# total energy = -340863.40553509106 ev
CRYSTAL
PRIMVEC
9.34955591897576 0.00000000000000 0.00000000000000
0.00000000000000 9.34955591897576 0.00000000000000
0.00000000000000 0.00000000000000 13.68402015501634
PRIMCOORD
 96 1
Ni 5.306686347669744 2.8401706733059853 8.860895689466068 0.12244030341580847 -0.5138676197931344 1.8172498008595994
Ni 5.733362677751752 0.4078781131203352 10.282200208199933 1.007529454062355 1.0501249201353786 1.286227009443417
Ni 1.842460871050941 0.49350041050086846 12.02937601591496 1.9507350492356597 0.9376381283878561 -0.49117454907099284
Ni 7.795640956037291 2.014315056852444 3.6011141935089053 1.1744629547945322 0.8452730470908733 0.10790739990695608
Ni 4.254188148222121 1.851221404868253 11.690627583682373 0.1671024222098735 -1.6881572822345956 -0.30631505998801445
Ni 0.9833675836042903 0.3325749205147933 8.659425850601899 1.2106792568140892 1.1025204030179592 1.360576885109902
Ni 3.8604316042348352 4.182168519625799 6.515426844585736 0.4155193243295231 1.456893494855465 0.7922471297131451
Ni 3.8801311183789933 8.679716256674823 5.890655865295964 -0.4555709409347703 0.3852844367043816 0.17785400429942272
Ni 7.123566833956368 9.13077622837428 12.480551922106768 0.4724461194235541 -0.4207841722728882 -1.4816974412730224
Ni 5.373853556787747 6.674816202548136 12.697374666607443 -0.863763392585577 0.6405373879092582 -0.7503090947184627
Ni 2.4314641895386773 4.644298365433791 1.658229743235183 0.18340707290716798 2.1046559397582527 -0.9571016364291066
Ni 7.911397806829326 5.142433350762024 3.0582967458900474 -1.1015014748351417 -0.7605796234065354 0.5243358663143098
Ni 6.259780069480592 4.448808502481632 12.495015684983375 0.7638685785704522 -0.8341849075975117 0.7146075275517951
Ni 4.16530192089962 4.140506898825436 11.41667344329689 -0.3758060649003012 1.045383291685335 -0.6021896413689952
Ni 5.818948511864529 0.9438937588692954 5.0228291577439235 -1.3094664395873319 -1.00701111966504 -1.4627908341765066
Ni 0.5944400852057368 2.028722722394042 5.811137892920045 0.12541661243531305 0.7312999006058115 -0.602809277230865
Ni 8.889903621399464 6.475801557046216 1.2077840373540805 1.1805675250303733 -0.2540144508120851 -0.7729144908228044
Ni 1.7698896186603603 3.0550795637272543 11.913225548822274 0.12899224560171332 0.548081803780998 1.0228401162774967
Ni 9.112282806932825 6.267951581280305 10.421572167119786 -0.39063875903775946 0.27702428144369706 -1.1080765569494981
Ni 8.856974485748905 8.770219957156764 10.365015768918825 0.3055712398434544 -0.8485692013436419 2.226278632368772
Ni 8.770949222511888 2.3944212493207586 13.367317089958005 0.08112524671710544 -2.6774406456025694 -0.921778021427148
Ni 6.153559765640167 5.470481216341554 10.46118717014789 0.729433536821034 1.9003951633305274 1.3323189187054731
Ni 7.673489009054176 9.298114578707521 8.640637918151645 -1.4830606401691362 0.9663118421734649 -0.8405046791679525
Ni 3.2830310845382242 7.81243275831679 0.061294753098094346 0.01159284704392197 2.0690579880489848 0.4378475555130782
P 5.878617377202932 2.5325983350049115 2.843689846122246 -0.720101975007463 0.6339571635885791 -1.3981216761328954
P 3.7916656210690634 2.2929598694003026 7.618592157013911 -1.050906021275777 -1.3415604919083992 -0.33008979381010894
P 2.24370640926199 2.8684530797065917 0.4595531082198894 -1.8308859035857952 -1.3932934015063165 0.21135882092508762
P 1.7481892995675314 5.403706688568619 10.872090799536402 0.5436517930341024 -0.5093923576306001 -0.138474988281168
P 8.5215685197273 2.4804184638902718 7.772030522687389 0.0791912629191862 -0.30383728787148323 -0.24839119108803676
P 3.567865303048794 7.955022834355021 11.316356449010629 -0.2585501338989096 1.4972161057339117 0.836290898196921
P 6.2773759335618955 8.738543661988086 6.414959322450532 -0.2316365973375172 -1.5870131691934022 -0.4411395960007886
P 0.06667261761433527 5.5581800500730205 7.080303634241484 0.7637425945155492 1.3285597087733572 1.537216043165617
Ni 0.8055941940037054 5.969008883014854 3.011565795915994 1.59972136078869 -1.5348097477169698 0.9010811551994288
Ni 3.9466532081443866 6.993243375173541 2.347384568870904 0.22068292653949087 1.406078726196443 -0.8086247997402203
Ni 8.712075069419452 3.9451853278783053 11.684004358328924 -0.7151227766253168 0.6895904366821671 -1.8842203533428774
Ni 0.9721668157140668 5.030163884296411 13.123275918510737 1.264532298078803 0.41307471944377244 -0.046712059344558264
Ni 3.5817306943519673 0.3754211300394409 9.207853966677288 -0.6991950496514668 0.5189098102027321 -0.04650739953291991
Ni 1.5318125288801816 4.193135548620151 5.848290222941231 -0.16892482013059296 1.4321096030425657 1.0507705241391774
Ni 7.398032395046021 3.787729458062566 9.385007480726017 1.1843874129970957 -0.9723156251653834 -0.43549242501734026
Ni 4.667962091251951 4.9228029346441255 3.033076319025374 0.8396726701849603 -0.7155565217286257 0.06681320096980752
Ni 1.3178198949307338 7.609098618019142 11.651559529670614 0.3206181068742478 -1.3251406557894791 0.9874185422450931
Ni 8.230778634149893 1.7069671078914082 10.925787168607464 -0.7274357896647149 -0.027486378345726856 -0.1582763392778113
Ni 2.077461956961434 7.614848594857612 9.423363098583158 0.34600697926099766 0.8552424995987593 -0.810669598084391
Ni 0.42775246395860594 4.319653738178169 9.482916029429207 -0.2159253572498475 -1.8074086463994612 -0.859688708295571
Ni 8.22571117488737 8.683259738336256 0.9984568317662535 1.7544300373199009 -0.7599185927837687 -1.7398189722749455
Ni 7.374162978999494 6.0515374123696155 8.470161856880209 1.5715053033657902 0.47194629696900015 0.3644412747067852
Ni 9.360588310796397 7.7147392493978035 8.367997390360967 -0.5908361640293889 -2.649662704158353 -1.1957282919312118
Ni 2.915771181787077 2.778547750798085 9.875592699717561 1.1644083987720075 0.09568257570599005 0.1949428414609094
Ni 3.816591536924937 6.2576390211943975 10.08218048544576 1.6032913375281357 -0.9472221725318654 0.16154755382991534
Ni 2.942800747705806 5.979471035994119 12.688151329776304 1.5101045316608057 -1.7955275786911593 -1.051511773180576
Ni 7.5438293687356275 2.1169451312522645 5.788983185413638 0.3109936964106063 0.25324954762160257 2.1861028314808353
Ni 6.8947364548969166 0.6597373831567566 2.008349105274187 -2.7667111471346284 1.454749709039585 -0.3636421758442576
Ni 7.892193819144419 6.750304516359209 12.240301060594973 -0.39948026858878943 0.04531929276208969 1.287462424512415
Ni 6.6834551921395935 4.018859827857406 1.0468566774568384 -0.4885157712919071 0.17807974715698363 1.9617581398190407
Ni 5.829616355072163 1.0155674538997246 7.494190706896917 -0.7877551553800627 2.6025084150700533 0.14824877983848014
Ni 6.441124054454529 2.0075085802046284 13.54165171292251 -0.1816317261743001 -0.006409503070769607 -1.069088605722075
P 5.310837550460445 4.9274403143382415 8.666486635168425 -0.8019581863533221 1.317906085714253 -1.5476763192669927
P 2.4690494039950197 4.349263781507332 3.9317472112767877 0.40405348978176864 -0.2736131988796191 -0.45818780973232703
P 5.8425374412360105 8.496680002094767 3.0027669289197587 -1.6145023757526067 -1.1861239360722282 0.4201323976215022
P 8.357661456385472 4.876466535926306 13.526872870014266 -3.253632320245906 0.41487731987015003 0.2941113188329709
P 8.949226553171973 1.4093333474428449 1.8371895914712184 1.1396401906883922 0.4516152987211319 -0.2616084611092591
P 9.301424321473078 9.056634250603434 12.458533718115552 -0.9533689088595516 0.11773569885128757 2.021756117639228
P 4.705668849934147 5.287491709540672 0.7728913176043529 0.22156892868887001 0.6038125216843988 -0.3639676775044764
P 1.0184938648760518 1.7523779005815718 10.355901821890953 -0.024157571082810008 -0.08597974659592936 -0.9852637006856193
Ni 1.6981691758507564 2.535468648646229 8.071395820876578 -1.7573346125612057 0.5034081150227072 -1.5710139655516684
Ni 1.0913175552741752 7.495968992416716 6.22208266035423 0.725672270006389 0.13542925947630868 -0.42623671074702724
Ni 5.002059119456667 3.171565679874413 4.611884390309737 0.2037239300876491 0.39799159985840493 0.9017419287118793
Ni 5.2531414414032085 7.117461573996171 4.641291548277283 1.2580356346108656 0.12530708344064226 -0.47561089030478093
Ni 6.335679763748402 4.076425043132954 6.859689644849753 0.4324294698213004 -1.390606598702773 -0.0008901159144371766
Ni 1.412138214193318 1.131015769349208 3.1534275415546853 -0.5655282813922196 0.5827397601744996 0.1491304111124851
Ni 5.794134790678675 6.315092041799927 6.857322337312352 -2.5816148594504957 0.7251279674671447 -0.3657026579177121
Ni 8.417825848183126 4.379303904404902 5.657904282519351 -0.1566352041299625 -0.23272751640885078 -0.8420385993139756
Ni 7.772379261120031 8.863771612840885 4.109297146492918 -0.4799791945758056 0.3823893745447737 0.26026608814875174
Ni 4.207739554834282 3.1130281107920337 13.578160793502255 1.0566850898513995 1.829037537523147 0.8711920809494803
Ni 3.5601051717058176 0.8542511524797501 0.6227841986748536 0.38272696038985055 0.5389978392018587 0.14338759509143695
Ni 6.64533705300066 6.843098858020703 1.0009550330853418 -1.419703258958413 -0.0021759246053962523 0.6219231152421805
Ni 2.9537771262559915 2.271212802528299 5.634901570298718 0.08102214548033787 -1.9532945824327201 -1.0824483148584325
Ni -0.019625652653062105 3.681153871100413 1.3036422284626745 1.32460998009699 0.8884776075028054 3.0379753861660967
Ni 3.629291884884161 0.33812107703606264 3.6457919810216115 0.5420924189667825 -0.2733717722927744 -0.34086194472494846
Ni 9.063665116591288 0.3116515495118456 6.842283576751898 -0.9981084178587712 -1.3518467043257558 -1.2464422733463114
Ni 0.4479269355391773 3.3165959899855557 3.8150778438352644 0.40110649133830273 0.9885531700701684 -0.7337990128785814
Ni 7.766077660487301 7.326583089355631 6.252762292870909 2.396990883417091 -0.4955245985095724 -0.7983838387385025
Ni 1.2252031948301034 0.29929050174250943 0.7263193100794932 -0.4064083631671904 -0.347613147405853 0.25421731085151056
Ni 5.40772699757763 8.379651611709184 8.566209843972251 -0.5199372230259819 -3.1024416841702824 -0.8916814591520837
Ni 3.06499009291226 6.331659454739389 4.481160770537175 -0.9246360597012334 0.008047295784508721 0.702298628277455
Ni 2.3403434183716323 5.276842565444707 8.59478208660374 0.04404402559409189 -0.06943109820862882 -1.8054155272288326
Ni 1.2574591624605471 8.209171810615413 3.7038676820457463 -0.11501624303759544 -0.8132928946398509 -0.18983971590638918
Ni 3.226812205302903 2.720991885078372 2.5519191921377558 0.9489988048163139 -1.327560063864249 0.9068823352622383
P 6.814760354285086 7.662054502268079 10.377016858788517 0.048125137642000985 0.23093031529911195 -0.3232663431303723
P 6.427735490498937 5.077996211947816 4.864956297737947 -1.2729673162200335 0.1137862272852363 -0.10913998676247656
P 6.159496733595335 2.802155379281236 10.9519780793678 0.18697062188871025 -0.5468566731246453 1.0092531216216811
P 5.612454221694681 0.07477494270086932 13.82606052664259 -2.0215756261973055 -0.5038629431719387 1.0528816569449093
P 3.3649705918753856 7.312035180476508 7.4459675678116115 -0.5469114376219807 -0.7995601184347907 1.4829346561142331
P 1.8192926716920312 0.23015147129892463 5.273574895680406 0.3012808399982166 0.36662131307723955 0.17286117907052165
P 1.7567534927123103 7.404511637239615 1.6495673797541377 0.3103396077663752 0.4469130081494561 -0.43182191814428855
P 8.536770897514867 6.936585066813979 4.007734791369445 0.709450665941204 0.33058678805118547 0.576468068233175
