# total energy = -340896.57755980303 ev
CRYSTAL
PRIMVEC
9.03807055703152 0.00000000000000 0.00000000000000
0.00000000000000 9.03807055703152 0.00000000000000
0.00000000000000 0.00000000000000 13.22812984239365
PRIMCOORD
 96 1
Ni 6.2690406804313765 2.035436740430591 11.358677332456287 0.44601826424932867 0.22782313712869795 -0.09270729512775001
Ni 4.6770026400801985 0.31911076995421567 6.102056905320038 -0.4584734592935458 0.6111633056225151 -0.5369772092274042
Ni 2.8790321636559373 1.5486281877964698 4.840066604020817 0.16983010555368172 -0.11476247515557655 0.059242844821717315
Ni 3.524422701075589 4.167273540688064 4.847924302503236 -0.8438687105441789 0.9414053087397724 0.10337094548918326
Ni 5.136471029487589 4.5164774701397095 2.615425992183706 0.4334170305455503 1.13677263933261 0.16979102478563018
Ni 7.199293123497352 6.158477964149523 2.7133408326244064 0.8755426446086921 0.10481204881108401 -1.1695806870015664
Ni 5.14696422932436 4.496349687162542 11.390716388529823 0.2118858970731512 -0.10858797091374847 0.24795204666808907
Ni 5.5881124498522174 7.828632047730003 12.462300755047595 -0.07153117527076712 0.4382573893569872 -0.5231140780920669
Ni 1.8498399629559024 6.533340975717099 0.7084157143548481 -0.3753262970504052 -0.1855590862531643 -1.1949387061503807
Ni 2.8027418106652453 1.4335012459180876 0.3154169105456982 -0.15684037816223312 0.5490158855594932 0.747592724228564
Ni 0.5244005992155902 0.2673877001644836 4.751557683537161 0.04327192331475773 -1.118864905814254 0.7588351299116027
Ni 8.688830406442127 2.109865250900718 1.3383430169762804 0.1550611747746233 1.0706731766003754 0.373284326919712
Ni 6.861124678111769 0.708347025019138 4.833677591992725 0.07148463830354784 0.3582292323588024 -0.3831187965116305
Ni 0.7120164816373372 7.6664800251016425 2.5619712280884395 0.2126348594240338 -0.7932218349215888 0.9384325992646935
Ni 7.673412225166074 4.041228609659965 3.754354829522975 0.6419859474303266 -1.0767741472917909 -0.20813054379577703
Ni 7.654450353281881 3.7748676343029386 12.742379713791575 0.4032775308476926 -0.3627088653967108 -0.976553317395815
Ni 7.807934866312082 8.612241797125327 7.250047312130751 -0.4214356898139581 1.1211084504327917 -0.6922692690659109
Ni 6.739445135129459 0.7825468723059142 0.2916006910023064 0.24188424320745433 -0.42286059518594266 -0.1440617383403261
Ni 1.8638218580011103 6.43048773356166 9.12472389278816 0.014158293778253034 -0.3351759500837647 0.19911059968535386
Ni 0.11629285297135708 4.595334635149042 1.3902893271070704 0.4159602685216836 0.6861536430864763 0.792132715622468
Ni 6.295992206627116 2.1669768183155003 7.066784164456109 -0.739010638986508 -0.9393779938970983 -0.8732124538136188
Ni 3.358709678674887 4.5759208597404415 0.5518645840080099 1.1783283512872094 -0.778036385430402 -0.7733310095349327
Ni 6.076674388161044 5.734836486157262 4.942108227446417 -0.1581963779694953 -0.20392627590644233 -0.6811608178575752
Ni 5.40320256573463 3.0365386180533753 9.189171662018195 -0.21476244728999785 -0.41356605725789425 0.17455450761254454
P 0.34826577773497286 5.523571588496155 12.544843645202006 -0.4121102986479741 0.0934904531506777 -0.11225693512490346
P 4.223707252816234 6.127522572727521 12.622850327778403 -0.9849906495298906 0.0674829733433225 -1.3091435090302743
P 2.5488172202999486 8.438566234624542 1.455451103905671 -0.10062706419545894 0.6758160086058941 0.0810969645823313
P 6.346551172937971 7.885617082157951 5.775480689142588 0.34106917563974803 -1.4838774796434768 1.0628701356161887
P 4.685932253722516 0.9416132976696118 12.5328853741391 0.3759773003708428 -0.3479790153857039 -0.14442477810669965
P 3.96257932027186 6.120816324425295 8.109293058213423 -0.32811235836876396 0.5122920477758983 -0.39130570319779706
P 4.8570861945571 1.0661398328556968 3.8620054794935386 -0.5752002572643449 -0.06173861466037755 -0.19210794311527557
P 0.23208770825881567 5.7317545041207945 3.539543393002307 0.6065654018391876 -0.45109876409602956 -0.08691382837442452
Ni 1.5305068564676776 1.0235976350678537 2.757125765104374 0.5412691517345388 0.7985239638607925 -1.3226662261070574
Ni 1.9160438292817894 6.462473465019314 4.899804634719463 0.40409411321171695 0.563459571788649 -0.5523891729071002
Ni 5.806878946018511 5.504537412048056 9.091389681213672 1.512050599643583 0.38600871646491586 0.08629264985065783
Ni 8.582063679765309 2.1732040488818534 10.306895378378107 0.07625557732962997 0.8790102914423183 -0.681098340050756
Ni 2.4130111731446204 5.053528656617599 7.110516676127245 -1.2802980455534918 0.6904766959418626 -0.8889054390688433
Ni 0.5828037069031331 0.009814440743110022 9.056467480654408 -0.8385624678399172 0.0985670963426367 0.1862859371168598
Ni 1.4329499236183088 1.1009273661646852 11.56153049791405 0.06584106686452532 -0.6999090449993559 -0.931907396551666
Ni 4.252520621532537 6.6967944804957575 1.55782352071114 0.271665588234945 1.1144302670816677 0.531822147389026
Ni 5.412701577817703 7.814586886191378 7.904932342598232 0.40628674998766157 0.04959220910583072 0.8655271693542191
Ni 5.5062727215817855 3.0661744511841036 4.754388407214057 0.44644352471220533 -0.830008664732635 0.09195576167370616
Ni 0.7338099810054755 7.422976330009212 6.946620305894666 0.5708520075979782 -0.7306830929574191 -0.0338701703848836
Ni 4.964404243533699 4.523039109314125 6.915374792409994 0.6130980607513828 -0.09176215760566131 -0.1976756670110402
Ni 8.227744202417355 7.149900068279471 9.148891693273542 -0.1757719249594134 -0.3110898556688384 0.28684975217455116
Ni 4.408120043056971 0.24941007415645325 10.168172745876243 -0.15492619185865575 -1.2395260058424522 1.1045885984008976
Ni 8.301621390587703 7.295006289967133 4.843744194902455 -0.31917571800076644 -0.2393013129716266 -0.04618421186554626
Ni 7.362086849130372 6.034575055827123 7.1155960717416 -0.13719946400285402 0.20411139533405492 -0.7278150273810046
Ni 2.3969505218871316 5.18427338429955 2.671089660706283 -0.971106435348631 0.012262876527753075 0.3987552174973068
Ni 2.27929292027206 5.467689198667764 11.38854634780561 0.1377206266136467 -0.5607827962874342 1.041719726790819
Ni 1.125239775777878 3.2608996798518497 3.7950713370722067 0.08732160533580444 0.08671456787942486 -0.7603916757654453
Ni 3.711302884559599 2.823854743325624 2.717401637694744 -0.695778310660434 -1.6790972289148565 -0.11337999298575313
Ni 0.9786241963186914 3.239533681217802 8.229603333516772 0.06878909374925572 0.49539244380708225 0.3135540009386148
Ni 3.310401191915588 2.8761761333816733 7.447542709403123 1.0157914369608312 -0.9302156106715399 -0.17461852808126055
Ni 4.229572960563059 6.982460774415528 5.9003542862354195 -1.0585599382766093 -0.4700989593476162 -0.04756746536631808
Ni 0.6254878023976406 7.372363135275428 11.393626647227014 0.5041699328893963 0.04471174108507784 0.03720257719222625
P 0.21883880073019885 5.47989963189729 8.061275597323842 0.3097904201311245 -0.25083219642936155 -0.741715953732813
P 8.32319526484298 1.6143801505979483 8.034739822370558 0.05896105191524039 -0.3196544574093979 0.07554415308490217
P 1.814446878924206 3.1906919482997007 10.427456912041029 0.19857452467622574 0.06676229312721405 -0.39399019200849567
P 4.045015561194511 6.08828830873835 3.7928091080290165 -0.017961212464111 0.4609836273099093 0.5836409318325303
P 7.076736887677689 4.081574556319182 10.357969514706786 -0.7466912954602172 -0.533729648824384 0.4052271983748957
P 6.267892845479378 7.726754917187287 10.078008954686203 -0.5245994043883417 0.12693047797667817 0.11119301263676333
P 2.3310539499578424 8.56709663503689 5.82474269233839 0.5572233610709499 -0.5348102834830725 -0.4269455638885937
P 6.961239384909291 4.179420707424172 1.6002066484583912 0.2248224026291612 -1.6995274717447504 -0.03950602851442229
Ni 5.316672078880836 2.8527946450287627 0.3985120268069371 -0.3834340137592041 0.4871026929944643 -0.05234200393682598
Ni 1.2453466944952452 1.1412100463304844 6.9750206347896615 0.5863483034613645 0.10859671266449684 -0.125172614745307
Ni 6.517370705164493 0.7521292460779588 9.147529656050974 0.683179905170133 0.05469687732224773 -0.2966135164295344
Ni 2.526737214097335 1.4546774450718833 9.274810995121856 -0.23327310449967567 0.33844845018744935 -0.027043891491669556
Ni 6.266961924219096 2.019132061269922 2.5292452786578044 1.121350648350585 0.8661002682488697 0.13937333172572128
Ni 4.152460143157944 6.597972217778044 10.359345109035088 -0.02229403551150999 1.8240264574618006 0.5560547946841456
Ni 8.104745101143772 7.238563539768474 0.17892216241917078 -0.028050221268996853 0.17252256478418032 0.5532620624303568
Ni 7.639239280650282 3.7275985256497797 8.126754610396578 0.33902746261937095 0.9342473575387522 0.6003243060254823
Ni 2.9401927866494217 8.273422610664596 12.373579439907466 0.899176224867232 -0.49721149929369207 -0.4042103270746071
Ni 0.11483772362276079 4.762150302149302 10.201903728745165 0.34394032653995604 -0.3220746368151163 0.35204084415990333
Ni 8.49456611936928 2.2980649926760015 5.775177009974185 0.10513163693403184 1.1956565581530116 0.19157803875373458
Ni 3.797309163325079 2.4674655478358787 11.28675598273958 -0.7155284967041677 0.6825895798843018 -0.015104459741606244
Ni 1.1924378298574645 3.356893026506764 12.50362552474068 -0.36293203715111044 0.31940351774085635 0.7168065920856429
Ni 2.8823310593841214 8.345302385257057 7.999896253024543 1.059631574074233 -0.004847557900288426 -0.46556301915047554
Ni 5.71200632010413 7.753236463717641 3.646135684918705 -0.9751584939308173 1.0128151279413267 -0.40975722503476525
Ni 3.2326195572943477 8.3861635019341 3.5467132943205772 0.2173178667219999 -0.36996297585596283 0.7951352498942177
Ni 3.474125838808891 4.391218851244083 9.44094248018616 -0.6172989862066078 -0.47911787501677483 0.09735276431956137
Ni 7.407494115262967 6.238591420956713 11.24025962911316 -0.45187729413326694 -1.0259655492803557 0.5149510826653002
Ni 0.642379956140041 9.061479090740102 0.5346714625183532 -0.07684487417419668 -0.165481855887315 -0.6999748652402848
Ni 4.68511882737858 0.3652230055848882 1.5979055557121016 -0.5515157691632114 -0.6486499897140635 0.3582436305365056
Ni 6.214956866630133 5.586458482952881 0.2037343773303596 -0.604640931122965 0.9054692569647954 0.3141970338392524
Ni 7.901198715679567 8.90388225563778 11.08818867030731 -0.3858899314988644 0.0462906555364235 0.37421892291883935
Ni 0.28336610498052944 4.743098049560228 5.582323565704541 -0.5659273166028511 0.5956883499153676 1.2184707278340499
Ni 7.864377616510739 9.051266071088463 2.3912890745333386 -0.04130965738206434 -0.5311318061902207 0.46326059626954413
P 8.531251647480785 1.7233160141919304 3.589598938786971 -0.8268462078442534 0.6776898285898393 -0.40343591080242774
P 2.0187886145913714 3.2158991268912227 1.4560729231552576 -1.6060910117604599 -0.9609549487369256 0.7769482945725458
P 4.43987982275242 1.112947999913959 8.122098196481069 0.9106572289236382 0.18740410988170306 0.2847576455322128
P 8.496726218215954 1.5358573941966776 12.446929708568355 -0.0305804438900183 0.12669959291279473 -0.10290891825110018
P 6.325067679387578 7.811622399071257 1.4359532744415295 0.1656921721259082 -0.31026478866438184 -0.5003878401391446
P 1.8569167721481439 3.166334348334067 5.907960726358268 -0.9310784728924674 -0.10520517048444462 0.15371494515937398
P 7.065276614298682 4.111815940172618 5.943014882746658 -0.23823790470411874 -0.5043221421965444 0.6255152034688131
P 2.219063218538857 8.27225669957162 10.184575036198185 1.0690983759140877 1.036453336185557 1.153818796181619
