# total energy = -340871.25371861376 ev
CRYSTAL
PRIMVEC
9.18866816814841 0.00000000000000 0.00000000000000
0.00000000000000 9.18866816814841 0.00000000000000
0.00000000000000 0.00000000000000 13.44854466889675
PRIMCOORD
 96 1
Ni 5.949533870224849 7.471829681738954 12.635445753955853 0.0966606233485432 -0.3285733571655825 -0.9593063573899092
Ni 1.383840962518839 7.519583189187082 1.2400576049668743 -0.29963970485036784 -0.938455482082829 -1.6897315687002514
Ni 6.974235745075788 8.347886474814182 4.672050820609866 0.13007133759850503 -0.02532433769740155 0.31546021682239217
Ni 2.747090120113442 4.557735521242651 3.9135933568348826 -0.02758150916269443 -0.6206349925583764 0.19344671653135717
Ni 0.8202779030207518 5.51417478173297 5.380130493364047 1.5130358463749878 1.0577752375917848 0.07640752952646196
Ni 6.093290580639697 5.873754925463505 1.0441478528791226 -0.48290202464955545 0.7469646037262619 1.1195135951418462
Ni 8.831513636160595 6.203462709618541 10.941023219664752 -0.9546742579345364 0.8413785971324735 -0.03631168994684069
Ni 7.375164894678283 3.4197465589705143 4.206785374470993 -0.13378632455624703 -0.6185002056035606 0.6655585925439441
Ni 8.6449836763382 7.502143097377085 8.737465781738221 0.15150405355098423 -1.425005387897617 0.04430756366812369
Ni 0.571433153615717 8.135913093378573 12.189007888490679 0.34808700171847795 0.18505952090892644 1.4503726630178118
Ni 0.8614137317957717 1.2688172168510183 12.669967579524954 0.3243279516256672 2.055469450731273 -0.21636630144200802
Ni 4.508410751571389 3.059238359774853 9.996935366661786 0.956746824192849 -0.42576285643440226 -1.6777479139758138
Ni 6.796701491197536 3.6752282832513967 0.7362328325522032 -0.5037408157717775 -1.1677120092239437 0.4390423471521277
Ni 3.852927933153137 6.121545734652202 -0.19646750423362455 0.4213768115515646 -0.5649739515506463 0.6973340851833281
Ni 8.5705462771007 2.765338814704934 2.1654575450493083 -0.3878439699014417 -1.7569538321830191 -1.0623672278378413
Ni 8.566236791822044 8.296549386857151 6.605360344825237 -0.05448681819397067 0.23688704710317912 -0.8062300742557986
Ni 1.7800747027878734 2.209378459086504 6.187742736452819 2.3597520536702907 -0.37780998270420735 0.5044902923432925
Ni 3.594156665738441 5.536962678302405 8.648638009590483 -0.05511982379227926 -0.18932832348760942 -0.24596972613073764
Ni 5.105756867733664 3.7750999154341374 3.5547060386694027 -0.779752082569928 -0.16246440921722988 -1.2744654980321148
Ni 7.610734775464824 5.643854452815407 5.36286222964512 -0.1997279215543786 0.2737633513042382 -1.045166804799155
Ni 6.01940450148049 8.841474152241753 6.823684014695982 -0.46497526496780567 -0.19090158151200026 0.09151121793711982
Ni 3.051501501342811 0.18715754584485347 13.164524661423522 1.604558120055701 -0.12850296467012062 -0.6765240904165122
Ni 6.777203137761914 7.32720923653478 10.215850786749899 0.19346240026064102 0.7065818290338413 -0.2069370377083081
Ni 3.4716717216777244 0.7061353506114022 6.763609422364808 0.5336733416651519 -0.03754170569919986 0.08854467910962815
P 4.322671017194545 8.139634503907049 1.3129421193171822 -0.32480746236524705 -0.2679791405222933 -0.9377659122149721
P 5.492829506035067 8.621148271620008 8.978463408695557 -0.5913745530313621 0.12250278122262774 0.022434674854432332
P 7.27355660424892 2.5437724639070294 8.996484224321353 -0.021949250577581556 0.1703849496158872 -0.9478436081659483
P 5.845940827513632 4.932642363149726 11.775518748637879 -1.2910763671159184 0.9738156067496776 -0.3463797892193841
P 2.9450415942244716 2.2527673492481473 11.360065990439557 -0.38721070719281697 -0.7284223219477003 0.14744813831405573
P 1.7434027289134308 0.6273609000913328 1.1545901286963305 -1.4932380949227704 1.160324458510621 2.681232508544834
P -0.1327156069802368 7.5633212487316435 4.594358795176845 0.3311691429172167 -0.08883238555337605 -0.5528987655536671
P 0.2907478319556789 3.649766484302241 13.422064647330032 -1.2724600375663118 -0.8835994534748977 0.8296649082399711
Ni 7.746800570787487 7.184766505639865 2.664586908130519 0.5810634009133413 0.5229677823221897 0.12083387816063708
Ni 7.629617488146352 2.0892641913624463 12.701383635319672 0.5723501894100594 -0.6189311224933921 -0.2927262655599862
Ni 7.660684374558151 3.9687970362743408 7.330223119629448 -1.685500304227723 0.8237084335462201 -1.1815913383091972
Ni 1.6351510315406397 7.049546067770584 7.384971960004314 -0.49413466014058127 0.42539801689581574 -0.286339645307352
Ni 3.725857843774619 1.8911381325599577 2.164932872108133 -2.3679045075740963 0.7040364369041681 0.9220608427748894
Ni 7.37895062588256 1.5877099388035445 6.277162258817925 0.527838994371562 -0.019704420407462838 -0.3251234509437691
Ni 6.074398679290197 1.1929004420700997 10.438598800248945 0.6328346199483617 0.04804311945115597 -1.252262222462198
Ni 0.07776369704319924 2.540905599499907 7.70479181855517 0.6193550974046881 -1.7281027122792818 0.5665559513257856
Ni 3.6166229589288723 1.048142166846354 9.238154461774206 0.028747504446337585 1.7998187498673455 0.07857239838826469
Ni 7.8957029352664 4.9401678822184225 12.644752036877435 -0.5676113891734934 1.5172995067473483 0.7925731455939963
Ni 6.053540402994786 4.902494343535081 9.223092397235245 0.3941755685464244 0.3753952026151277 0.44937921030176153
Ni 1.671501402036078 3.388624540550886 1.4750366544028453 -0.4563790386583624 0.13338497535277027 1.8780376215709336
Ni 0.4030168149656301 3.6919884136314978 11.34792224684836 0.4947085303661803 -0.9178478331348063 0.03725117104197456
Ni 4.247590411199037 8.849495859380914 11.230933045101425 0.4224685019538466 -0.8658778678254183 -1.0159876121320375
Ni 3.264412126911518 8.154354749997466 8.781684408617696 0.471008358535763 -1.1965160779398296 0.469608649974759
Ni 6.569474920929158 6.457998001098354 7.2898637332980245 0.007086731643452311 0.6671516480626768 0.8046411325021239
Ni 5.387968427143776 1.7277728046938299 8.03682341684021 2.1295442183595004 0.1337906954316212 -0.5439387281469019
Ni 3.210235740551279 6.520701471336189 2.409279768541096 0.7711440291859428 -0.49281157045378354 -1.4270962089883745
Ni 1.52488701588208 8.920018886062534 5.403813366193912 0.6232258932140041 -0.5398519596720379 0.2431355991160522
Ni 0.8666889460782367 8.830512071351698 2.982039765811904 -1.2558771935069661 -0.12556239398455796 0.4763955909896053
Ni 3.231397242889751 3.4551688740008264 13.434773494001478 -0.19155104217054109 -0.17715029336417878 -0.4274492429978896
Ni 4.987461956267973 5.544359556019501 5.248213381630538 1.0256798997191368 -0.3636642873314447 -0.18281906161418193
Ni 1.702393703756418 4.492128431925808 7.713250906289776 -1.3252339868342338 0.7284485471999455 -1.1605026359596982
Ni 1.5243265071358159 7.1896916316726145 9.989443845664583 0.9861214207002243 -0.14319270547181145 0.3308330997340367
P 7.3469281180017205 0.9719037886864316 2.3783883856875527 0.016947940708248233 0.2645796279224411 1.3534166199160367
P 4.787130617152313 3.701406798302333 1.387607397520376 -0.11268245269809626 0.6764832098762478 -0.08148468693905321
P 8.870317381004439 8.761119250830578 10.477532105311184 -1.0464212460315463 -0.7209095585104228 -1.2157389307251836
P 1.6257050808658897 5.024124741474444 10.233575727267013 1.3658887842411185 0.7839764050639209 -0.6772231733660659
P 3.4539284038246674 2.4081017813071433 4.817806985175321 0.5923065779273283 -0.024137002257519722 -1.0906395924199734
P 4.502511626733656 8.690899450192019 5.2156147442678815 -0.5503600582922135 -0.9847062855202526 -0.49200090162703003
P 5.580002399081129 4.484731554208713 7.225176429645132 -1.8116072578618412 -0.1256742369720739 -0.9898508058356696
P 1.31754472310413 0.4251431274411144 8.09759726680402 0.6266755423255014 -0.10894175470874141 -0.3611749452506876
Ni 1.8929391114823808 0.4018351522644892 10.53351865926182 -0.5332154281921269 -0.19633355116084897 0.44295839437708234
Ni 3.5623087425490603 3.1426806536244682 7.734903083497928 1.0379898274347412 0.00832471781561147 -0.7733330664174617
Ni 6.45951413131366 8.658077528197653 1.1512408592207015 -0.4809202183328363 -1.802549004314315 -0.12809595903968907
Ni 9.02735171663817 1.5901081811441182 9.973050343136547 -0.1547369586659851 1.252472024480159 1.2065847750297414
Ni 4.032796108696163 7.322697600560752 6.818008174489958 0.8422175480940012 0.07761132002657602 0.5213785834581988
Ni 4.661337752621839 6.386464220939864 10.484578894778565 -0.16253177212005557 1.0210904805762415 1.3557236707826588
Ni 0.18104156844299205 4.381836850263334 3.535702954437447 1.447449832944062 -0.4491020453809749 1.8969524561975653
Ni 3.605807896726362 4.4516982928510025 11.38881917025612 -1.5195371378286153 1.620454222460667 0.4448026466746727
Ni 0.9901616719458947 5.856342399657423 12.812212754058482 1.2761009767530085 -1.1616496050799479 1.1301433069415505
Ni 8.896321311363915 4.8289390564228505 9.181469569057734 -0.22137481040019297 -0.7256470731954083 -0.9917541935059695
Ni 1.7423184660927884 2.917907457704494 9.44680889633849 1.1994137112025989 -0.41955132830705166 0.5707746173928234
Ni 5.596257152722796 1.589363899038423 1.0893009672913028 1.0159536735703083 0.18940108570707379 -1.1327167240956815
Ni 8.40175963513136 5.11939285100344 1.686353046078489 -0.018159701628162273 0.9412376728136563 -1.959026856930807
Ni 5.1906234051188695 7.580504057838436 3.201789516951833 0.6328605880902907 -0.599601826037161 0.8298394861446224
Ni 5.373992463159054 0.807784990046637 3.8575801557471316 0.7109431913263303 1.9957378391985952 -1.042102049830902
Ni 3.091784621730071 6.919517227305228 4.627268009516939 -0.6135914554480335 1.7207930659917459 -0.5006392940283184
Ni 5.068276291077726 2.694788222019399 12.31652638486621 0.9774226073746457 0.15568081063649317 -0.18927381610059016
Ni 7.659517413725765 0.41807152857021207 8.440642402519757 -0.9956594420976466 0.11632390610542548 0.38690448880630784
Ni 1.4687442545759302 2.0700047432940845 3.496958017068623 0.9421596704072935 -0.011572278218631682 0.9247738708306782
Ni 3.059440510470227 8.990064102009633 3.1373300922646363 1.652726709341128 -2.5968141928987537e-05 0.5112949739699517
Ni 8.7229403354088 0.0414987811598961 0.8844726940703681 0.5901219115711837 0.17718346059495937 -0.14685035682905676
Ni 8.819798084496874 0.7969212279038774 4.450863042932389 -1.8550735565755923 0.9515938192369998 0.005324240426390831
Ni 7.263642031507621 3.6290368493584317 10.803283249037674 -0.3389819540934162 -0.9844481467628594 0.1165175101734703
Ni 5.50045610045145 2.905603831290593 5.65990062369412 -0.899770149697489 -0.12090792593168209 1.4364339414495324
P 6.5950010405541155 5.458408755813654 3.386666435406149 -0.1782941771606349 -0.13604581001438507 -0.45368812208976056
P 8.909543804574971 5.861552374397291 7.155217587176964 -0.5236192998632595 0.3521254334539097 1.564774669510176
P 5.831569750806134 0.6485738589704454 12.415252190152897 0.4117274613872587 -1.1773513320859208 2.211858857399016
P 1.3850814326949978 5.499766950353584 2.1319574993586436 0.15972464168856362 -0.12318875154605881 0.04807988622636236
P 3.0095092887128425 5.566118321776123 6.191454039446526 -1.155855881216306 -1.750914825077791 1.1419703814834654
P 8.145607138088554 7.190298083758736 13.333478537149945 -0.6909538926885971 -0.32809641752916396 1.0310139103375404
P 9.267874289461375 2.7791677600021116 5.371065872410116 -3.0422539589367927 0.8975451170217124 -1.4969502536670347
P 2.630917790949178 7.38661397497083 12.130963991781217 0.22573051626572738 0.45488162817722944 -1.1677770581339242
