# total energy = -340896.81654908805 ev
CRYSTAL
PRIMVEC
8.99551635449956 0.00000000000000 0.00000000000000
0.00000000000000 8.99551635449956 0.00000000000000
0.00000000000000 0.00000000000000 13.16584746554448
PRIMCOORD
 96 1
Ni 6.218564348875479 2.1429838270493504 11.42408425101386 1.0580626869252165 -0.3806790767218863 -0.021220342831357004
Ni 4.565341399908059 0.3018580384857428 5.915401960544537 -0.1826290570905629 -0.16313675269390615 -0.048328254791742575
Ni 2.697584385711949 1.5575646299753512 4.5913789214730905 0.15401627844987667 -0.11064973853878364 1.3108064985549943
Ni 3.3180141317343343 4.034794851494171 4.695085528785849 0.25662540607237094 0.7571477149068508 -0.3235548209050686
Ni 4.948838245429021 4.461452183616972 2.4815912477598725 -0.04191489506623104 0.5254391266808176 0.4507460087423011
Ni 7.106988512747379 5.820215906151591 2.67996126997588 0.51768596509796 0.8400549932250435 -0.9426769763633441
Ni 4.989120166855247 4.5198510746172085 11.324155760494092 0.5949504433080787 -0.35548149441033616 -0.5619783592574321
Ni 5.68476142360668 7.787400360616587 12.31254259784722 -0.7016975043583464 0.010791691298865286 0.17262643735189623
Ni 1.7819757719628595 6.360279710677347 0.4675878302651575 0.0016431920303778154 0.9451863730487592 -0.4002616268395042
Ni 2.845029891316521 1.5197025023998743 0.349187047282515 -0.28212457878473995 0.1347196350037938 0.16933491108481807
Ni 0.5087054351439285 8.954469633487768 4.8225843768266605 -0.15667351356706566 -0.18744627597354815 -0.6161319624817002
Ni 8.43629191981284 2.272627206145994 1.3188883984394486 0.4760145535011028 0.6316524267148026 0.5997049272739284
Ni 6.778526235177656 0.6312720416666526 4.776530032671715 -0.019770497758707886 0.15972772701235718 -0.2648544788503826
Ni 0.8349863000415079 7.504041601142242 2.6079962410339523 0.06656611795600793 -0.7318496024616945 0.1880851951091277
Ni 7.569789828856464 3.9056192392385642 3.8695607126559315 0.5486914123405389 -1.4253524868243905 0.32649230626683773
Ni 7.410029461609975 3.957271493108459 12.533004708234435 1.554741196533574 -0.3829647874322695 -0.1916284323756958
Ni 7.936635973939743 8.929561049202547 6.890990877037216 0.08378453871682344 -0.13843050819647773 0.4236262697073736
Ni 6.809704694236008 0.5202295909141693 0.5189090491398571 -0.035016111063868725 0.39868734037384884 -0.9443548782863994
Ni 1.8597779913499588 6.584789803342767 9.153344304161125 -0.061655053807635744 0.029223158531175478 0.035818295250189924
Ni 0.09335996460966672 4.819383772172027 1.3102239172608552 -0.7748677578944333 -0.6701513541209491 0.476393019886444
Ni 6.353317181158835 2.002203998929556 6.995422522953581 0.35660120983707616 -0.3511041912782469 0.0004671694444056471
Ni 3.1763977206103777 4.301188067464752 0.4506798580649041 -0.037677974166748014 -0.6468149933878539 0.5778605777053274
Ni 5.777676110165744 5.45519585085159 4.842200898946842 0.1285466734238625 0.6612787342216676 0.12163477679537762
Ni 5.066301695626355 2.9024842531185095 9.294824882990858 0.9693894526575241 -0.5428287829121748 -0.32135087127521433
P 0.17571481473232026 5.492716148812463 12.371051234144776 0.20248902923928352 0.1220626083614156 -1.1176742279402623
P 4.048306116787201 5.92565235122457 12.571883329137549 -0.3704116333576072 2.3059306369744608 0.4895452409976859
P 2.3169840963989463 8.469926154786636 1.3550026972223586 0.22146299923862503 0.16748320258805996 -0.4019942932598948
P 6.3619078991048035 7.67018878487212 5.820752938467166 -0.5473814352798637 0.20803721275102238 -0.6261914036002313
P 4.839470759788097 1.0095487891519657 12.695774075641054 -0.4126116637644249 -0.14481738555942802 -0.4103789177791642
P 3.892036009816143 6.242222556412544 8.34174904482632 0.9009366592017645 0.6396567850765177 -1.0567529669748574
P 4.749335687726734 1.0002294343959206 3.771935973828272 -0.20373858537566847 -0.12791418204618615 0.010433793738814288
P 0.26494044010851364 5.488947027535646 3.4362988725583348 -0.6239170057437577 0.20555686953132984 0.9419241573577197
Ni 1.457660427349253 1.2353182540817162 2.5371637475783047 -0.7049913446182698 -1.1113876236006022 -0.005678281331699898
Ni 1.8601468075130838 6.3486035306837705 4.721904760706383 0.31326758004644756 0.6826831680393727 0.6288674077704977
Ni 6.05113080633275 5.8346267230620015 9.13447800808984 -0.9012223087629834 0.030167781832631916 0.3990118135928031
Ni 8.668142353676073 2.5389304669548367 10.291782648154372 -0.5726597502306783 -0.29805102020700924 -0.08798880660615814
Ni 2.684810752745169 5.059564054012187 6.837472053561259 -1.5110257579234943 -0.23809212315487385 0.7138747631508287
Ni 0.6976373617903966 0.17396068907843146 9.148157489535318 -0.7505098978753592 -0.9060729519870654 0.37911995976488255
Ni 1.2546766048877096 1.0779956717183243 11.544446956074005 0.7311386924375989 0.16250297576464914 -0.5414666124573255
Ni 3.987154597837786 6.75944674537305 1.6075104344270785 0.3729287433525061 0.17200243061465215 -0.20291171859899892
Ni 5.68119919920186 7.930339112618092 7.896493483014211 -0.4113927037556592 0.6266603728168497 0.39932677373006065
Ni 5.429414701497512 2.9850720871100647 4.617486608064278 -0.34090051127236776 -1.0279450416042297 0.23191067693451026
Ni 0.9441064089876525 7.605609974260491 7.12850308878023 -0.7064288483957446 -1.2504794195301625 -0.41547844378925863
Ni 5.123639115718085 4.539461299876068 7.421970109779062 -0.3545319860128733 0.2728693787350591 -0.7770750499583973
Ni 8.244174680889234 7.037129334141736 9.033351314815722 0.424824660890849 0.8759938732134979 0.175161287958608
Ni 4.8108920049039705 0.4126962910210811 10.35110717776889 -1.3872587652764625 -0.5881485898948967 0.03600547156033154
Ni 8.094858107920514 6.950520504420498 4.650690857364967 0.1995453732299273 0.44285683580221147 0.09217970475905415
Ni 7.311312667118817 6.058875945758381 6.916875474827292 -0.6077663641258243 0.4116097048624717 -0.014777415419490679
Ni 2.2649360398174045 5.115956944905669 2.6339330128178373 0.4565070795957945 -0.0038965068409287733 -0.588001008573439
Ni 2.4286364431480125 5.124565653883985 11.417093835395207 -1.328583620032757 -0.23045671809680313 -0.42829590726890104
Ni 1.048418414538907 3.305582328382158 3.7796910083216955 -0.847408091156005 0.21597832197496997 0.16884485882227696
Ni 3.6372650007420972 2.5653502979572544 2.54156165543567 -0.23069094559479625 -0.26080859091578307 -0.18517084967581013
Ni 1.2289944062115425 3.3934685214000746 8.259620881711246 -0.9012112530193899 -0.02649161853262534 -1.4721126257980646
Ni 3.8173732255736965 2.6667387607520276 6.809705593787626 -0.8945017022096983 0.07053847234019464 -0.3399720859208274
Ni 4.030755864732139 6.812232434280842 6.052484631516904 0.7410675215155366 0.560028691730229 -0.2965662081313667
Ni 0.869437327883884 7.3563532166009775 11.293834574127102 0.029231900281923847 -0.497709264865717 0.20060878149743516
P 0.28365561150808116 5.476857053798074 7.79885525091229 0.8470951879012766 0.9443543640657671 0.8219387432403071
P 8.557389558544385 1.7533070619169948 8.070151023197585 -0.29128593356903376 -0.19489861848653528 -0.3883530483273763
P 1.8514301523406826 3.123863906155451 10.338428897273552 -0.2765172599002915 -0.07431825109760104 0.9764700136533893
P 3.9703779601736695 6.0715056504663805 3.793672739110615 -0.6266657721334885 0.020324313379648868 -0.12539064429338403
P 6.85543789846355 3.9920931362171954 10.286924169868907 -0.024535523247519033 0.7086834487578763 0.0858254804062522
P 6.404069883411352 7.919607461822761 10.08443330169369 0.24633096612489835 -0.4928573360900544 0.1417785987331042
P 2.3880666652042253 8.360936480825012 5.717953978736343 0.6978930430105916 0.371321032545754 -0.22021524287445302
P 6.908457470791862 3.8733613182393576 1.6739189330284567 -0.4870646406676773 0.3611209520843006 -1.0338920032162837
Ni 5.141090417095235 3.1195370628758585 0.31244306236743996 0.5889877979667405 -1.1573399219610003 0.4507550076033657
Ni 1.5230488344165236 1.0784274564946663 6.878615745436934 -0.057855477555887456 0.7885681381996613 -0.016026200224927237
Ni 6.902151613954035 0.9736836661670699 9.30465968082366 0.22046618254299452 -0.5425014814797431 -0.686746796585785
Ni 2.6326637454857154 1.4884790657606535 8.931868399101123 1.2272325331870801 0.8406975119050489 1.7890188310383641
Ni 6.229736779963325 1.956551754347578 2.445582196516196 0.6261034718721152 0.11169797729763989 0.6318930819706989
Ni 3.990446956757392 6.819527797897785 10.496300206123546 0.4144245486034475 0.9465701407701633 -0.16053068252962674
Ni 8.068249371078448 7.092010978318021 0.2651626293580062 0.29954894490877443 -0.17825535350289945 0.02721975494790151
Ni 7.504590327628843 4.015922258561562 8.194541920400354 0.9770456836512013 -1.2290536455562187 0.3023416771625632
Ni 3.1045325418979792 8.21104419482117 12.454496340827692 0.7990703232825658 -0.26666813502035364 0.6960796439509367
Ni 0.2971120041524518 4.83945276875575 10.008150424988342 -0.5532900874548149 0.7836020524436376 0.878553663520874
Ni 8.667512667543907 2.1765640889261038 5.733897631602766 -0.4221651117808149 0.9405938685820705 0.49303885597324126
Ni 3.678581406528309 2.4815210827337166 11.281261541170998 -0.5976778695415708 -0.13249640210022987 0.43500674363017344
Ni 1.059581850110579 3.3183919434136335 12.62247950940864 -0.5404294294420628 0.1490131688083305 -0.6016700214200993
Ni 3.145354194294633 8.399689164501694 7.935082448296531 0.6436257970265948 -0.6446287843698123 0.06469409774427567
Ni 5.703184240730599 7.662560587156747 3.5214693192433844 -1.1460970020573293 0.3584508614513053 1.0547698751065577
Ni 3.0584215259911383 8.425929085180636 3.4229495265564323 0.5631582384981462 -0.7425952710139727 0.8665820929812946
Ni 3.2944098972943126 4.385880852240973 9.217422964073492 -0.05384635639649436 -0.009437491263816005 0.20652900363661206
Ni 7.214628859282936 6.174918104400256 11.142901506901952 0.9769243275819884 -0.8831106867639372 1.3937181477485612
Ni 0.3445615528659528 9.130538871557336 0.46848918098577114 0.7559896900430076 -0.5050821602910205 0.30249594335224034
Ni 4.679125683990312 0.20585609077583428 1.642149468557487 -0.6428292692672284 -0.45866706336159074 -0.26667379144730846
Ni 5.9314184770919685 5.50785560253295 0.3541687641395592 0.17116913608007941 1.0488967041552322 0.5703902374702112
Ni 7.966743966573414 8.725416805154586 11.458170960451197 -0.46189945425595935 0.4733259509253461 -0.48183758794078313
Ni -0.038886716867671464 4.758358190449044 5.753738142075675 0.537606615281287 -0.404078172372117 -0.17972216785641307
Ni 7.850225045574328 8.6696086228124 2.5377961323653215 0.0742683716962721 0.8956404437998317 0.7672670627290399
P 8.451053561854028 1.5916126586931418 3.637341462629575 -0.21194451822522853 -0.07398940700327257 -0.7791743556895872
P 1.6623533978838165 3.157129324966122 1.602981192033576 0.4244533935943593 -0.07940672136410196 -0.5304787459872541
P 4.649467467165331 1.1251321764689775 8.087411619631851 0.4773821232725907 -0.7211939225200611 0.15616803468555684
P 8.275479077174019 1.70581073651939 12.368681815184601 -0.21687280876478132 -0.019972843577501086 -0.014348041191555935
P 6.337835897823745 7.513774749642281 1.4703090226412177 -0.9144647755951862 -0.056271678008535345 -0.8648170306610719
P 1.6974808885424617 3.2711654835012425 5.94768506898903 0.685754864986161 -1.1902832096562403 0.03297028427843354
P 6.724283272649711 3.929691240519623 6.102094003663732 0.8975592580890994 0.259564691206353 -0.9887048651566844
P 2.5226215961317577 8.676625125427956 10.456210788743439 -0.08419848632579048 -0.41268622575610214 -1.9225084502897984
