# total energy = -340886.76664623746 ev
CRYSTAL
PRIMVEC
9.09444048200811 0.00000000000000 0.00000000000000

0.00000000000000 9.09444048200811 0.00000000000000

0.00000000000000 0.00000000000000 13.31063292555443

PRIMCOORD
 96 1
Ni 6.063299899859866 2.157201301097279 11.225083367445023 1.690810660697043 0.7944449086954124 0.8361736558927663
Ni 4.9751773700437365 0.6640587703357977 5.602711957642026 -1.5034680001808947 -0.35437077784466064 0.6939710822483661
Ni 2.9360219074297733 1.9033208983930985 4.823387519302446 0.5218596368596755 -0.7811008832883386 -0.8219749957948812
Ni 3.6463431874559245 4.627669701762842 4.780607270902945 -0.6291538286626648 1.1825513882296215 -1.898403586821795
Ni 3.6995092869762223 3.293069643859281 2.663524275452928 -1.151395017231475 -2.467757155497376 -0.072712597173378
Ni 5.424597339252522 4.645449333059828 2.5651051491445607 1.1850523002746043 0.3590524995910462 -0.4245310409098301
Ni 5.335580955040297 2.891886587386666 0.5643664223488742 0.9973789958919145 0.014334671455117248 -0.3473526946556147
Ni 5.625520814569311 8.017122226688855 12.327429602298743 0.3864015810279603 0.7525446689172007 0.6644170227403332
Ni 2.185066666976546 6.435808185243275 0.20974235432890478 0.6250274651991171 0.7314958186667014 -1.0836937572297596
Ni 0.6940440503098612 0.17277163455984637 0.16357442682038736 0.09554862123128706 0.3428974870977385 0.20088208976347985
Ni 8.558859862033554 0.15982387953298213 6.570234930065278 -1.4471197032981529 -1.4129181177157795 0.02810524287664837
Ni 8.694558009646002 2.5340021624255358 1.2121716085138412 2.151258727218456 0.7057793877372038 -1.9619067495817628
Ni 7.072700952178956 1.11121331440081 4.719298009304222 1.0079981661686577 0.6406353469397031 -1.3765146393860808
Ni 1.2056772685091466 7.177696268457068 2.1564155414327986 -1.1717437560911563 1.7039312572394012 0.4962596769033841
Ni 8.003044032700243 4.011139387243505 3.9298841986061364 -0.33685308067587144 0.06517360848385549 -1.1596641992188028
Ni 7.72881027202028 3.978117473566084 12.289494871830206 0.710704335842647 -2.01029182575337 1.5276872777395754
Ni 8.266428125790794 7.274897649174301 9.102715592584937 0.26557284507364587 1.0836006832953209 0.8993903977605672
Ni 6.9396765700914775 0.7807395332908904 0.25470435901901795 -0.23591517010821306 0.25657501245040976 0.6903193444283917
Ni 1.9972937527111347 6.548770231452926 9.264267415824532 0.9607577451244552 1.912599161595887 -1.4696808764281206
Ni 0.24835825839546954 5.172572202422811 0.97137810577711 -0.9475276195874262 -0.7932100078470468 1.1707325412178224
Ni 6.6131224928634 2.2457629632814498 6.82713013981547 0.658914090644233 -1.104049695178292 2.0409568589373945
Ni 3.7068575949496063 4.4697083636567765 0.550816615356864 -0.5282308304933419 1.0165725381012298 -0.9686435756304349
Ni 6.28735963196414 5.648738921321846 4.661636527814562 0.23936276233718132 0.760551084161445 0.4814526937975386
Ni 5.42929007058206 3.212711167061239 9.10535116145955 1.764015367015491 -0.9726300710820089 -0.04207173235906948
P 0.6092483959620496 5.647120110901968 12.245862474350128 0.658606072485511 0.7224115969772461 -1.2144392380771536
P 4.477047577189599 6.146086592287728 12.442047746134573 -0.9243321553075693 -0.349280764916263 1.1313064740117162
P 2.6740565470667588 8.805164595750325 1.1519864197684722 -0.7774429748207772 -0.33218884243098273 -0.10305881356540315
P 6.717945014770851 8.349742295771199 5.768216224749483 -0.6968165221169612 -1.1507622687434826 0.3781568245206649
P 4.758129451612085 1.1093034818829752 12.517026861340714 -0.27197926282062196 0.09804027730488922 0.7150962942627556
P 4.184661313149643 6.544050216801707 7.887734711381768 0.6037587856283279 0.4730858098900821 1.7802205160204438
P 4.991965707319561 1.7451140103918832 3.5329218719979365 0.4567338508946199 -0.35565992896972937 0.9339043723770367
P 0.34663733031919525 5.947673182565807 3.792079778559734 -0.22369060301756316 -0.28552434849490826 -1.459204659487145
Ni 0.9136002154482689 0.16246217673976257 4.5965876322571075 0.906442162401026 -0.017688418418698566 -0.4872353619175867
Ni 2.299938545704032 6.891121351935666 4.337722566681378 0.4138308808835066 0.07999858931182996 1.0507700099185453
Ni 6.220115338455231 5.93939724165519 9.109038957107083 -0.3171129219344667 -0.9007443406853004 0.9928656814025932
Ni 9.171925194699106 2.4966512950410227 9.885261281771268 0.03205779976649318 1.1912730843733352 0.5228474546942415
Ni 2.823414544402006 5.462766706287536 6.713084945734989 -1.9779355209098517 0.4481247690693701 0.44974147873718673
Ni 0.5242790377995206 0.3455405407875244 9.045613419189788 0.4105810064876413 -1.3330254578541947 -0.008652019248043163
Ni 1.5988754061690995 1.218072990993951 11.480075110785771 0.06483396575624963 0.46355833001562097 -0.9754950513346295
Ni 4.321232527055958 6.913711942289485 1.3425240439644632 0.38481289638460175 1.1863951874557437 -0.2222443574893398
Ni 6.062654194580028 8.001070539098482 7.96560222091012 -1.0852775567771116 1.7096542757661073 -0.4875091844042636
Ni 5.328287213710279 3.3927538068496994 5.285293245957591 0.8090755141243937 -1.963334226056909 -1.7427515725407083
Ni 1.386565691269791 7.714932155724013 6.955151670150277 -0.1790012305299885 -1.825810803055733 -0.23980704896345154
Ni 5.35870811738722 4.886952202160326 7.116449758498216 0.41971073670305137 -0.4673563636054725 -0.6951795007341705
Ni 0.6222498081882244 7.769107738146595 11.283476951399852 0.8105312727343138 -0.535843095622961 -0.10111094581041295
Ni 4.721096889647211 0.5747277184801565 10.157757094860001 -0.5852165038497664 -1.7037931889996398 1.1263840970094343
Ni 8.265382265126265 7.7107669019470215 4.389780053897276 -0.3934065515908837 -0.4049945135387993 -0.015716896514624545
Ni 7.45255754553575 6.4384728563276825 6.958759434720872 -0.327148708903914 -0.08548326657548504 -1.5560277765554815
Ni 2.6526300451047637 5.364383048297357 2.4543212214492973 -0.33977282542582776 0.3256947500662068 0.5601410489383772
Ni 2.7392545914494164 5.440458043591113 11.203306729521424 -1.1580706294794378 -1.444120254350197 1.0320606064345
Ni 1.3991705858875014 3.60760087066556 3.7013008917667625 -0.5588935496845213 0.2375478206156296 0.219069559305784
Ni 1.552721120321424 1.3867384856404525 2.2675996245127514 0.30442298517162414 1.1243732372269926 0.6196520598198167
Ni 1.5065122678303813 3.6268901790956924 8.037359175825456 -0.7352527146059724 0.0629665735302077 -0.30324747680628417
Ni 3.7327039950243046 2.8175759135617677 7.089655717717049 0.8117085808718666 0.012464451015597889 0.07358188715220876
Ni 4.587463180042137 6.995498246255622 5.7373224101633635 0.017912875724678826 1.3705951885778525 -0.22921898903496007
Ni 8.436039442255652 7.2830007957142575 0.2223954494815888 0.017341833712557233 1.394667399035708 0.7876502543710822
P 0.3319343482640352 5.9957736786935625 7.756012653182642 0.9945243000519388 -0.09375836210008369 1.4219339480611448
P -0.28745434892366134 1.920500296613051 7.662186219357639 -0.3011738821067071 -0.49945992900823655 3.9395825890723244
P 2.2971465524517685 3.405777045733221 10.221554595396247 -0.4392192390496242 -0.08130316705586643 -0.08937334565851059
P 4.496309602298048 6.4645557118569705 3.461603269117646 -0.7471834046052873 -0.919014599749398 0.7282125199297393
P 7.327490798939248 3.927188606423821 10.218054145224272 -0.2121656330970991 0.5057516755542193 -1.5391060610994782
P 6.247762437761031 7.888017548483219 10.208616844254 1.7629555582924088 0.41325778198885604 -0.02006643173257189
P 2.911012195886698 8.70747211524279 5.506049877250067 0.14430445047875148 0.089824060042684 0.2169409429985554
P 7.208890199581704 4.22715963389175 1.2142733337275158 -0.36373319289616707 -0.7552157879914606 1.1599380217054798
Ni 2.8347735006628425 2.016837705476978 0.2870732918641504 0.09846708042966269 -1.2616063826812596 0.69017999063705
Ni 1.6639097506216574 0.8043296026623754 6.833958245788757 1.0853089242356793 3.2369751713051995 0.41639915583131515
Ni 7.282546073686201 0.982445130495935 9.409272813907231 -1.1310449928202133 -0.17861042284947304 -1.504984436825421
Ni 2.7404823409251673 1.584378867914677 8.958522328044351 -0.10762175034573723 0.27170441189268046 1.070380842170937
Ni 6.882108761339599 2.1936881966284862 2.335270447283977 -1.7586695293225454 -0.09530385221033263 2.0424457847780952
Ni 4.233925897669222 7.030020742625627 10.49097466868721 0.11683684118610199 0.9433122959544981 -1.7084168038145802
Ni 7.755265999612574 6.128907194067775 11.646045013249958 -0.8284256365162314 1.7377289225151364 -2.7941000806705425
Ni 7.990184493746822 4.1977300242359705 7.9828261818888215 0.4231752982128841 -0.479350302742555 1.2261822375456948
Ni 3.1539883643580975 8.514569936500909 12.294233075362548 0.17943857517772321 0.03066477607370848 0.2027422829006702
Ni 9.422386087752306 5.123071162448643 9.868729407719265 -0.8359756809493474 -1.2189677220751265 1.0822806789323167
Ni 8.995674936624631 2.7202926828794842 5.818476650510504 0.9503676601393826 0.3386502817856103 -1.0425334809413658
Ni 3.8444110084365217 3.144320974041629 11.844121019227059 -0.2821037528491335 -0.1852775504570035 -1.2592983033733733
Ni 1.2921563038048214 3.487381460888136 12.38736742226085 -0.5918836314572967 0.5360719238043156 -0.26305599218906306
Ni 3.553052416179972 8.64169202666422 7.926868089116261 0.07999961775309448 -0.4644944686766452 -0.042391834702649574
Ni 5.7638836332661665 8.27844188177203 3.4778286605227375 -0.15564970028824163 0.03424657988769586 0.91560351718532
Ni 3.2514080116487976 9.056152966356068 3.2295986337391795 0.41159993467045886 -0.717660455445506 1.2272502737988928
Ni 3.749710598873596 4.60341482878634 8.901206435296015 -1.5272936418455825 1.2023301135184454 1.0057823894642612
Ni 5.499089901888643 4.695095884082974 11.177258432866267 -0.22655198372575822 0.1807675784017919 0.030993105947404686
Ni 8.679779543734185 9.18602157756884 2.415906304519133 -1.2181804502871407 -0.14516885536157578 -0.12379373211990938
Ni 4.74548817923213 0.7484024309877219 1.5708281514786104 0.3865460770256246 -0.8052242586991034 -0.7801855705629209
Ni 6.417073637687372 5.949510259559154 0.22562488532484193 -1.1016811949461156 -0.2677711382765453 0.23103830163188596
Ni 7.728719327614669 0.005561250403123887 11.562028752458234 0.4003881251150395 -1.1380098541738208 -1.0809146518227255
Ni 0.1634843918588323 5.170425914450386 5.7730344593587635 0.9649910664795123 -0.07689218247236436 0.2732732990416971
Ni 7.345261335795674 6.22678156338653 2.5077101347633426 1.1934258690502801 -0.3194965916752949 0.12891974049256508
P 8.976531139243477 1.9084501628695694 3.802807580645629 -0.7199515654725278 -0.37724588267062126 -2.046747497477243
P 1.6300602428531747 3.5863744463959097 1.397469925502572 1.6700672575021045 -1.0097300612580997 0.07121390114066445
P 5.011636982253259 1.2563878690779426 8.226051538031596 0.32459946011949903 0.373278413382441 -1.805236064228175
P 8.635389579355365 1.855966146391355 12.121634235173362 0.32482494586674376 -0.026864942711644055 0.7458328041146639
P 6.810390003074619 8.176156708781132 1.6618062065198704 0.40024157223484613 -0.01985817237650774 -1.7427263757297278
P 2.0828724383912585 3.5335630300574956 5.860379285395856 -0.40278439326135795 0.3779603922391426 0.5387772385506205
P 7.258282106269138 4.151075544157433 6.038261995551052 -1.5180422984506439 1.119771476788923 -1.5822005782961073
P 2.3361071358156 8.70730841531269 10.137059057586951 0.6770069435902019 -0.42766264456027636 -0.5765192331860846
