# total energy = -340864.66833799984 ev
CRYSTAL
PRIMVEC
9.33646563930949 0.00000000000000 0.00000000000000
0.00000000000000 9.33646563930949 0.00000000000000
0.00000000000000 0.00000000000000 13.66486120753882
PRIMCOORD
 96 1
Ni 8.931935197731226 6.927293336947103 8.347590091995423 0.7589091776826479 1.4233426554832131 0.7832163869694446
Ni 1.4425492871076593 7.266393766751255 6.639715258790286 -0.6472299694380853 -0.33461750647713334 1.1835649170958003
Ni 7.917845652477707 5.774099791042371 6.638362404927989 -0.5311366912862273 0.13541280441607648 -1.352309245784471
Ni 6.671259441393158 8.830858621380463 0.9735842229885873 -0.40325207692639586 -1.0638273573231356 -0.812325388520259
Ni 5.925079775909191 5.268539516442562 8.253261912964659 1.81850295654041 0.11042502412248725 0.2980512773173254
Ni 0.9928024037349767 8.160995225533586 10.821763740359222 -0.24050356080984386 -0.7307571407284641 -0.8010647280047752
Ni 4.771363387932073 2.804254118772748 6.538773127543849 -0.8427397391460583 0.02608255601966476 1.5832462459518022
Ni 3.6829369037440642 6.778488748560027 5.149834759433394 0.4798881775238961 -1.3965263066213176 -1.3352728591274745
Ni 8.809870246760426 7.829158565949358 3.324169209199206 0.1936907142213632 2.1771579635827214 -1.5387962431685434
Ni 2.2484263134993285 0.8804697844830043 0.5424813277292283 -1.0044947810010894 -0.3625404581396466 -0.12739790453139996
Ni 1.261179106783445 8.029920585279719 13.282723488990042 -1.4129253168046312 -1.762485560634526 0.9726023031678669
Ni 2.1141772749488354 0.7456129420233634 3.2840896297646447 2.971025145397793 -2.123322920040137 0.9105448717154899
Ni 8.38431414570114 7.977421639332892 5.828459494578953 -0.13708273591933168 0.67374421367853 0.6055341323611959
Ni 6.110632692812488 1.5889544038411096 11.028772788808029 0.04346835559627998 -0.07378757540511163 -0.02458051755284154
Ni 2.361761669154411 1.6857922248193218 5.828364262630055 0.14442117856227388 0.264795343477673 0.15747029843674815
Ni 3.9362632242803 5.974245603644562 11.664188361257178 -0.3827063915645602 2.4392449069902957 0.34699068333050564
Ni 5.649616695486787 8.502429771732317 11.987881755564006 0.8092074117165676 0.40089746065129017 -0.12356490393855493
Ni 0.23315675394741625 0.9196876081446878 2.3196374037582004 -0.21740785533264492 -1.0776210686731182 -1.4083595518108196
Ni 5.550678169753456 1.3428171618001716 2.386130777960353 0.5312693602093496 -1.104247670121711 0.30770139881257974
Ni 4.1146457356194555 4.357449859448938 9.468546689551372 0.11089450755973805 0.8934673474079129 -0.12398373664352841
Ni 3.0461992877690256 3.3132222033086394 0.061025006312937814 0.1808583383433853 -0.10464826953971008 -2.139699304515631
Ni 0.863082484636521 4.758395037243804 6.2485855072578955 0.10575024435463724 0.8066316805695914 -0.4030924114200799
Ni 4.097980144562175 1.4876350793853095 12.699807796134277 -0.3293236050680457 -0.3578962744994159 -0.8022780315865861
Ni 2.2392205584391163 8.008063919360898 8.848024646992739 -0.15978069173747966 0.4455642074310455 0.1989650752464251
P 3.6200184622118456 2.403822446584689 4.126241625867714 0.7049172968472247 -0.5599950102788162 0.6394783505171245
P 4.4828666015623515 5.58850952827676 3.392001432565288 0.4120123396175292 2.0663483024273055 1.0235111742025922
P 0.0680777724107918 3.0291135557607216 10.271521008794746 -1.0764116217460493 0.03383726026441914 -0.3777927563130268
P 2.39184376124772 5.903633914475817 8.122393608600072 0.043473240692286426 -0.5700431385434377 -0.05766264481879101
P 9.260970917641963 8.393893359384483 1.2595228177898532 -1.0967601034954144 0.35984517069567057 -0.2983693227783765
P 6.669653569313688 6.859930737799609 13.02612473726861 -0.7930418577002988 1.4748719337107568 0.4968888258469507
P 6.070131105133787 1.7987821312480072 8.362580721127953 -1.057951615268649 -0.08120160848099564 -0.6096201295051114
P 3.330261252989052 8.426701699426658 6.32531351502699 0.1870968630539294 2.212766971035583 0.49241124969157124
Ni 4.306304701010966 7.289977678802062 7.986906554713895 0.33433622779128874 -0.184032879416625 -1.0251777632717376
Ni 5.491531660314873 6.9187878168052634 10.048920062830165 1.1524157451865056 -3.819963557155395 1.425667446961648
Ni 7.756950341166722 1.8813351598914079 3.1866589432222097 -0.17808000426729975 0.566667022982353 0.5744816339307655
Ni 7.766426853728706 8.327324359811147 10.12571716044454 0.5045301444422924 -0.0074019488910259616 -0.3358832605634345
Ni 6.306931881596417 3.1341954758445802 0.8771011877023507 -0.11987588512274194 -0.28946842074432083 0.005904795520209186
Ni 1.661227983882793 7.946807368701619 4.532962341269322 1.0576610806114235 0.26923255331342016 -1.714696209065389
Ni 1.1966641296373355 2.8207796628463533 3.4628670735977622 -0.16703814463084135 0.2865517613181581 2.576031194715131
Ni 7.970251233768751 1.3783424133256341 0.7582909286321481 0.2304235508660225 0.7601322514564716 -1.1157489858930913
Ni 5.896892986328279 4.3355745205989615 11.401017671415175 -0.31685272629454464 0.07985255065226893 -0.4598315159833371
Ni 1.4944226898607396 3.7041493535379804 1.5256681055651053 -3.066847332005441 0.03209328099011892 -0.8980850486855824
Ni 2.1016103922804326 5.5217631358574355 3.5379826737614835 -0.7828464052245356 0.058966708342195216 1.2702699718935284
Ni 2.257109226487155 3.2167298315568247 10.160316234584633 -0.630006149360631 -0.9381963148841713 0.8008443844638531
Ni 4.143243329685814 5.109754246352275 6.895657656981563 -0.1354490569706506 0.335268509797571 0.7896127774140917
Ni 7.4048628877431435 6.223977384933149 3.982022175726146 -2.0325807190585574 -0.640163292399291 0.5666695940855144
Ni 8.06009604202881 0.9892732197463763 6.458054714386586 1.8567180341575507 1.1110623790506995 0.9992921537542274
Ni 2.7106093690223174 7.415581150227041 2.215702935293916 -0.6702408285109618 0.7158398572969994 0.042148351233275795
Ni 3.8273346803781787 0.7772812996184268 7.855901004305307 0.5767809714879034 -0.5707404217207783 -0.5334008047300555
Ni 1.2658006572447076 5.369989551416458 9.963323346408236 -0.2557111217882177 0.8812371238903081 0.37366356463600164
Ni 8.363829940222331 8.481179976076087 12.441022444174404 -0.9339511664545721 -0.8709593961133838 1.1864221840389375
Ni 4.604847524342947 6.478181333233745 1.1107602434978798 -0.1778511760859453 0.7927556939184476 -0.21773130011033467
Ni 8.421781382066891 4.15738807503695 4.2344531292134215 0.10965292184315309 0.07917197964547655 -0.13771265619384673
Ni 7.059357642552271 6.434234589756648 1.5756947554267964 0.5676491843899644 0.3927918008250203 1.019458087179141
Ni 8.019575781418954 1.349035247875325 9.067524019092206 1.592201141152245 -1.2990529575634917 -0.24067608183196615
Ni 3.4167729430376554 2.122934879661288 2.035995579489198 0.6889993400653875 0.875334385252628 0.0466881480851583
P 6.089905739228644 1.1730615446553725 13.20840055475392 1.23681452044856 0.3128394913700935 0.33701788838850993
P 3.622726037229555 3.991264343002113 11.776500440284877 0.1668190866414998 -2.4195715969310845 -1.1849787667241913
P 9.217593698565144 2.5666504062703837 5.352102750661534 0.8336704298549384 -0.5088621961587431 -0.10609785750204308
P 0.26245738387182077 2.4573577402107083 13.327585206093813 1.2262285174025978 -0.5705244490552304 1.022316896784175
P 8.350030644097592 4.43652038643163 2.019474703648382 -0.5660525293268058 0.3252257808495883 -0.6413573127073923
P 3.9562992794113487 9.123706200709677 1.8275795256777407 -0.3461386197428555 1.6805239340590543 -0.6176540555531814
P 0.27319058470064383 9.085520056494396 7.931180926263204 -0.6130060152582089 -0.16020363820751118 -0.05366740761646887
P 0.14001057145886703 6.437380978656538 4.779244298526724 1.0884760091097512 -2.2370384419884375 0.8717772640289889
Ni 7.36013188115747 4.998276847347275 13.498819719386216 1.2440341781254511 -1.2518765569880053 -0.777052681360894
Ni 3.5266631428943422 0.9136469149155223 10.356529527885241 0.43537261161002433 -1.0574029418540305 0.9725079436818476
Ni 8.74064035449727 4.56239461535838 8.508890605912505 1.6075969068820248 0.13360326201116346 0.15372034447601265
Ni 7.716346052366661 5.745222103008663 10.198304445729653 -0.1981358944769104 0.5757730990486793 0.7464105309950049
Ni 3.0376657582304523 4.165305397847356 5.233409197411062 -0.5183999604458492 -0.6716829602741271 -0.8547136236784828
Ni 0.776485832751155 5.970436325688612 1.661128083701105 -1.221722144891812 0.8721796416737301 -0.8391543357876451
Ni 4.587827147593692 0.0326907005758882 4.551970451540199 -0.5551546514673793 0.38884670013434325 0.3097210003457698
Ni 6.016259698746949 0.31266796210540426 6.520940478289281 -2.3812055955583764 -0.3965240141739429 1.2991848551556657
Ni 7.14512241535461 3.4213291382398694 9.611467437331 -0.7254894645716216 -0.2859755770997139 0.5399766581753603
Ni 5.684721806061226 3.731337141302014 3.2370142366722567 0.2732725277107487 0.7087189299815021 -0.012215825339901542
Ni 6.079094112088963 2.1509162669994777 4.867396405577436 0.4299136453779822 -0.7738621994480542 -0.1260915270151506
Ni 5.254534818075099 7.806172187695563 2.7835187623698836 1.468828041509522 -0.45319061362805174 2.302829372341318
Ni 5.980781129549378 7.297726945232058 5.995950085174456 -0.09780990646163801 -0.44553258286216174 0.21413021302263768
Ni 4.92976586293365 4.853972435368943 13.475083622946483 0.3060636060988406 -1.963468437641928 -0.3235373374035718
Ni 7.8783243936847285 3.0701473219773865 12.303758660888674 -0.3065976242254397 -0.9135977996092007 -1.5894454327839789
Ni 1.7137736121575113 1.16231527277474 8.951235539374705 -2.151164624842753 -0.6696178502149822 0.11805631541549991
Ni 5.5782394161406215 8.904000492720929 9.332567603929219 0.030665804514972993 4.190808935616312 -1.1522601934452479
Ni 0.3088306747527196 2.7755911694473423 7.39079003317696 1.4004531524795494 -1.2408182422913148 0.8570286449649047
Ni 9.339453247293223 0.9403034577881499 11.200827043778206 0.21803057651830834 1.4279927526607148 0.22713845235684754
Ni 3.670892863148047 8.265806388115674 13.298560935550524 -0.23139619919193696 -0.07346181663457671 0.16833398062412944
Ni 7.285412147134268 3.586528560182454 7.004197803915627 -0.8983989803815754 -2.306073076089596 0.01563205011030211
Ni 0.7073530397300143 4.598050577401939 12.74573480396053 0.24769930722733474 0.38170571821418775 0.15780197074455404
Ni 0.3758020759924819 0.4790867264525159 4.814718199491505 -0.6910886184942485 0.958488232363988 -0.2989511634237755
Ni 3.5568666090401693 4.470084980185647 1.9806938265757634 0.5721822963736274 0.03506496202393316 -0.9173963474196846
P 6.3832481512335075 4.544599311966125 5.305915255445645 -0.5718058868708151 0.25969838857073985 -0.037085077777755486
P 7.176016779953232 0.013113065904733814 4.537403697944923 -0.589228710332953 0.29620111148246403 -0.28876573825034135
P 2.0364885448717334 0.19614887168811837 12.12384777013435 1.0651815573581849 2.4810744414315726 -0.8775969560345595
P 6.734551341548509 7.334167170384195 8.19940824586242 0.02426298631242273 -0.11701476152486301 -0.5315292987389556
P -0.07507265242206028 6.472392724575195 11.697900471167333 -0.06952082970895769 -0.2790186861659065 -0.20582786380452936
P 3.77903714394159 7.953622988573784 10.700666047222333 -0.9023191413715881 1.1619267700007343 -0.7059305686030874
P 2.7440432522582388 2.7712310400222724 7.999136390974921 0.585493668770553 0.3269574188287143 -0.9411713383520952
P 2.4563774113249863 6.242295530397789 0.19652139666469284 0.8069013892912102 -0.580209023332846 0.10667918392680982
