# total energy = -340860.67557899165 ev
CRYSTAL
PRIMVEC
9.34045697194087 0.00000000000000 0.00000000000000
0.00000000000000 9.34045697194087 0.00000000000000
0.00000000000000 0.00000000000000 13.67070292629739
PRIMCOORD
 96 1
Ni 0.22746254899166407 2.168732727071151 0.21855081881340868 -1.9047195017374938 2.263121512228735 4.321809727007621
Ni 5.4513056302525404 4.287026985467552 11.918597071203438 0.26735230557157186 -0.10041263419180771 -0.268252448788338
Ni 8.376297811901436 0.7727079996400105 3.4900207205663394 -0.48483986510221655 0.8320655472616638 -1.1587100628356495
Ni 3.0508268205352356 4.551081709437032 12.974714156098289 -0.6653696164615897 0.1946566776790583 -1.0719445871136313
Ni 5.5200607354219535 8.86427131541532 6.622895050858219 1.7441975609586156 -0.7081496877415934 0.41986191756893493
Ni 7.055426402795673 8.161551361290106 2.4733035520721978 -0.610085242066988 -0.4218480947610283 1.3707340281485618
Ni 7.186734549578939 5.005952632768819 3.4425562534519667 0.0860404246305357 -0.4027802794962999 0.6668294888365677
Ni 4.770946730573132 8.927132592115518 10.204236487051626 -1.1224032579848153 -0.2978129360542742 -0.014200202759781996
Ni 0.6830592258449394 0.44385759029208527 9.727538783423697 0.18902596175584221 -0.24301861392221374 -1.0020550612113452
Ni 4.27579975595884 1.4608942024211666 6.126881281819292 -0.12231791890533127 2.11383169272025 1.4982926266275423
Ni 4.812390339000886 2.0714705466433414 10.049374509442966 -2.2884687327442714 -1.0100892443697314 0.8571109202660658
Ni 6.9754814299461945 2.1037044643093714 2.383596867442722 -0.28187235356461776 -0.7539577472146434 1.1060410145767081
Ni 3.507024088784027 6.9582015841965115 2.5799351450792005 1.4945670981468389 -0.9437727805306843 1.5269611982068283
Ni 6.571730828661981 5.984421563230326 1.3916094933306675 1.7224252022785302 -2.442612795021264 0.3218509508400844
Ni 1.109552906272884 4.571817524336651 2.8406627982075787 -0.057404763171714036 -0.3508766486484731 -1.2322996632973422
Ni 1.526324104840912 5.334811448528191 10.792473259879467 -0.6130898332212666 -0.4516299540091512 0.24439184012065648
Ni 3.721919986709949 8.286227783488359 8.17642043504628 -0.2823240963900557 0.5632387140270945 0.10207613793715968
Ni 2.1303714695068554 9.063008222450998 6.6482403813672795 -0.16778273610634972 -0.5804579061188584 0.10532009879575409
Ni 7.756268925031327 2.9697703332834795 7.521443293658865 0.16132206808267058 -1.624452802097099 0.3172903280525955
Ni 5.696249778868586 6.846358950138835 11.656844769924389 0.020839048232538303 -0.09447647121303084 -0.6674838345911149
Ni 2.0007632859270714 1.1931873597013491 13.180936505503585 1.9067290759683546 -0.5038392890228548 0.4259220077200858
Ni 7.449266779031014 4.7381243641058965 6.006223124292128 -0.6397310899578789 -0.6751616628513469 -2.4836874535743867
Ni 1.679152664925405 2.530395228383434 10.534137697830275 1.4725576837552832 -0.0949068738822301 -1.0230542891708319
Ni 1.5494323958596772 1.566077090522345 7.794624578321326 0.987948446606634 2.4016458656905995 0.12671064865638826
P 1.6674023698156206 7.116260800291719 5.236480719801049 -0.2456395964848286 0.2930088297974115 -0.7835282617829086
P 0.07604252984719927 4.315618124840406 6.680872202508411 -0.08170528759029154 0.19132529931298017 -1.297263726873553
P 0.42158433614360213 8.921612381932782 13.630976544391192 -0.719168150339284 -0.541691583983938 -3.379054589108174
P 8.158693181398537 9.136508279858703 5.216576205588847 -1.062236615797248 -1.8200769858957493 3.0416541205692647
P 2.818567012745173 0.6540206785740262 9.346714334243588 0.9149360588046501 -0.4617053359672823 0.14759340564266837
P 9.14531633096246 2.4417169280874935 9.124893421377768 0.26499511819330496 -1.972779687740525 -0.8774912836946308
P 5.907969921359431 5.972288309376899 6.624563256507349 -1.011484067834729 1.305353445860223 1.1368160909760356
P 2.7973268131588065 1.3352837345067148 4.540040355025842 0.24536346000530648 0.45245424968265946 -0.9093130561909177
Ni 2.670016382040872 6.153483837862359 8.553663752950479 -0.3833442822588753 0.24770907741934758 -1.202297203397981
Ni 2.920415357639521 8.83344780678075 1.1273885092237053 -0.39142654504637747 -0.21649074283501424 -1.356796077911231
Ni 2.557641341924961 5.19447107966928 4.558605447681015 0.20410985267215814 1.2416772478575002 0.5144270918410302
Ni 2.1621383643147856 8.587093249133245 3.4239369861452547 -0.12341783683772937 0.9567951609322812 0.8045871393357369
Ni 3.1126419660332907 3.3151150559337648 3.3719881655474104 -0.4079996189137102 -0.5322903452746962 0.7891854600686861
Ni 1.170219175540014 7.438198337294055 12.208293218174013 0.1609878246717034 -1.9968457275507931 1.2001467327138815
Ni 8.74660023608856 8.463481639051459 11.10199172503922 -1.0174379714253188 0.049174661952437894 -0.6491022467601337
Ni 0.42728201501241647 0.06844500199163597 1.8502754444073732 0.7642670995604516 1.8362991041815666 1.2711796281919914
Ni 4.1188053519800985 4.540340183700742 6.392885359198479 0.55516390743876 -0.8838663339830392 -0.9410139868386245
Ni 5.967421931195502 0.503433828208411 11.991434890198358 -0.26102482069164723 -1.9184245100284123 0.3559694897903482
Ni 1.5745488851682703 3.1299404926972976 5.587284939662518 1.4428719837653925 0.6554613562089422 0.6136325930986142
Ni 5.335736153787229 6.625260988657351 8.730781237839013 0.368561724633062 0.37533452458052136 -0.5535551681907435
Ni 3.8184162496504754 4.355856814294262 9.770191981053927 -0.8480974039135458 -0.42432895220135314 0.8654847461520578
Ni 8.750233673924575 3.012204030170404 4.574217087781567 -0.020748288290944914 1.193705347963912 -0.27276550616734313
Ni 8.286722827717945 3.6864916326945174 1.9413495719653642 1.4596941975290538 2.3094142246476874 -1.9129269772489506
Ni 5.34221843105765 0.8315771649491737 4.037409806133363 0.16987278586615906 -0.4737509542779067 -1.237407931058185
Ni 4.348094894392648 1.525418080496199 13.519696205854666 0.5191496941276802 -0.16482442480897422 0.9250628628260068
Ni 0.710753681330242 7.264148258537519 7.225008006845913 0.9561773248426243 -2.067934415967503 0.8596480848656227
Ni 2.9062832459534285 6.685264085465979 0.460948758807096 0.26297371688790194 -1.1326367627873655 -2.905424219568532
Ni 7.229784716638555 9.279043656150682 0.5440573444973412 0.8424188654715299 0.8369228753539651 -1.3368975392150912
Ni 8.9680531349422 4.04998486361055 10.375257455550527 -0.39931520376583485 -1.7623163820465133 1.4136593667571784
Ni 7.799393815748238 7.245943707528799 12.855163776790537 0.07227242431216585 -0.15962976798191217 0.6976493024309017
Ni -0.05300802844001383 1.3989669714371678 11.947661771754404 -1.840155244702863 -0.9723770745309381 -2.6482586247219744
Ni 8.007443158574421 5.25068195087014 8.177432006556923 -0.07246217172546876 0.3358333811621055 0.8321437087977669
P 6.700526392468672 8.05572398164475 10.112820498761504 1.6879883607568993 0.20102812842304085 -0.4647888599886124
P 5.131394972454356 7.7499080737040105 4.028414011840649 0.04497656471069028 0.6134968388516983 -1.2852867570173347
P 0.940266460668963 7.239601537115807 9.721605725034399 -0.16183911692840514 -0.23495357752589213 0.20098082012487323
P 3.732082404102195 2.770631786589836 11.877926852628697 -0.27890118675143577 -0.06441590438222455 -0.3497911288937782
P 5.609719783719903 0.782820912609298 1.6823442991376572 -1.53710162907494 -0.8382536783502468 -0.3407483019652196
P 3.844317337360676 7.943386303357488 12.493012769568681 -0.7549193397969644 0.33187568206593815 -0.7780502693874729
P 3.190886975679287 3.340988122272479 7.806286139088072 -0.3854258473782523 -0.5063258028901344 0.6928421108502455
P 0.43240151958290357 2.4128549154569425 2.722260361085035 0.6257602296000837 -0.32842063363780216 -0.8812664344663467
Ni 7.003315992288926 2.0834823745536615 9.826624221089526 1.5888846751845023 1.1982158342397558 0.65296970013534
Ni 6.922138079094065 6.982412049160391 4.916627038791554 1.816775432326342 1.566157923010948 0.618588908662625
Ni 2.49565806819799 2.9702280156844174 0.9719978617396781 -0.030065451926812738 0.3161094203706169 1.0157505564205669
Ni 3.7033978601577213 8.764515232925259 5.214211201835432 0.7587065747535384 0.03126230044839132 -1.7064483672343
Ni 3.577918158643537 6.764826099571816 6.265324603828603 0.166645537178113 -0.11555463203956873 0.8318017520773159
Ni 1.2389088975092941 4.291024701132884 8.435042749130345 0.19075759973496825 -0.8212484020415017 0.35657138504040525
Ni 7.968932453695532 0.2606417209224877 8.829811566807589 -3.4820946336205 -0.28937226148608874 1.7708233910762599
Ni 5.432026926670192 7.391430668283967 0.31187226036457466 -1.6577053935026418 2.2699935567582195 -0.765250032299011
Ni 7.023127101929509 1.7093970652159312 5.508390768243763 -0.8295196409113585 -0.12409763651357338 0.33873204286613917
Ni 7.778844809991859 7.618413117777505 7.486186804055215 -2.0233232050160317 -0.5845675574118577 -0.12914882578423564
Ni 5.121736939748858 5.614184522243335 4.405903917813925 -1.8389843643232135 -0.9604553833926879 -0.1016771027265281
Ni 8.24564349711951 6.059939159385021 10.333493469442118 -1.2194474899250225 2.8749144810154488 1.3174540857784987
Ni 6.486284326544089 3.3387557530107634 0.3054254768313686 0.5939335720077901 0.30615359470948567 -1.373513647776228
Ni 3.41066793270093 6.526466973254974 10.609190139218303 1.251462352268722 2.2472495781934847 2.026098967988956
Ni 5.142388690534019 3.4213440752370854 2.21129065203833 -1.1153553499990985 1.5167009539314007 0.3395128868962218
Ni 3.513422301939991 1.205367315840585 2.3103079043668777 0.650564433127957 0.91933855874772 0.9097686556710977
Ni 0.7387087355703642 0.9593863764795582 5.148700971484093 0.03483664806321097 -0.2952857987570463 -0.21987277193336974
Ni 5.454285236087215 3.5445914074895537 8.329709479668859 0.7198965438648763 -0.08768875886723608 -1.5289525176052443
Ni 1.121443308240098 7.102324838206029 1.7001976489570865 -0.05204941239707165 -0.06288918332505297 -0.590560541770499
Ni 2.116248698277925 9.262006662287211 11.416677331100985 2.23088116413779 -0.3172139662887053 -1.042227519665173
Ni 9.279632104951888 -0.0009162988475912947 7.278350423652326 0.17967280267571636 0.9725136001088026 -2.843483516199677
Ni 0.20098235293742023 5.31439320917208 13.497796569992662 1.1312295980271938 -0.34192303899961113 0.40127644125726375
Ni -0.038102526900908956 7.909536486602433 3.6425447817473513 -0.5353856963705682 0.35804154182802855 1.7960659676931325
Ni 9.257102922277166 5.691084506058005 4.540792261827383 0.6124804817720421 -0.36705917194560655 1.2018464890138074
P 4.470071924471086 5.227965959052178 0.7760546854411519 1.156447492053718 -0.5310338471597758 0.9969827888947603
P 8.62301664737826 6.394318185327129 2.3437467410068047 -1.4298722290716148 -1.7506340606125788 -0.18997007083666637
P 1.030280446339068 3.480086210328846 12.27667470505695 -0.43888628119023765 1.1007648537794334 1.4103048484626486
P 6.932123027800233 2.251246325640178 12.068004221829494 1.1664174587822362 1.2821245572392692 0.3841066143461966
P 7.683002379052671 5.10569937480172 12.53127782042421 -1.121770766607139 0.12131955954780398 -0.3563934647016443
P 6.040856605403074 4.99319356828554 9.90700819542562 0.6978868723630045 -0.6210623099037821 0.3275192048694553
P 5.771645949080176 1.063709942521833 8.148737188109571 0.41420960437916404 0.6139426681398652 -0.08476335769032499
P 5.918216402866135 3.514814030057128 4.523676808123751 0.04148449239703178 -1.0455501562805025 -0.2530631426424093
