# total energy = -340859.20221276174 ev
CRYSTAL
PRIMVEC
9.38003279565460 0.00000000000000 0.00000000000000

0.00000000000000 9.38003279565460 0.00000000000000

0.00000000000000 0.00000000000000 13.72862614468652

PRIMCOORD
 96 1
Ni 9.27423534862145 4.581601950551631 5.839979304497564 -1.813290301991219 0.42389109333298614 1.7055610795333402
Ni 5.983682344045034 9.589957870545483 3.389062108389548 -0.34794867636840077 -2.461275147317458 -1.3860097233607098
Ni 3.786428435264016 2.763836026246696 5.2076112654280955 -0.9195979830566937 -1.219414579804558 0.8208383110872767
Ni 1.6953377370102312 2.854766063607626 7.2898181346758415 -0.11062222773495786 -1.1527379044126147 -1.9676220547989853
Ni 7.623358966788734 9.091709291575203 13.284724625895015 -1.9778128792890581 0.4035672941739694 -0.4020971373863462
Ni 0.2271346787377469 4.251218437458307 3.553298039600221 0.11330800209723711 1.0691338571377136 0.10430451304704617
Ni 5.112493043449705 6.759148410550382 2.463903851433599 0.21871911794490073 0.14907950326989167 -0.07439486997180736
Ni 5.854181612065975 8.165177797826429 11.973682140139026 -0.0924967217788407 -0.6884396109071756 -0.8917125695003353
Ni 1.808564112189083 4.384189781550378 8.83725432948513 1.3082752474927082 0.7358049875650167 1.1205659476657606
Ni 4.8015074380583 5.961132745343191 7.759803737003639 -1.1972758389239897 0.732306744603771 0.679444863607733
Ni -0.03743571065684679 1.3129607024508825 9.191575686125503 0.8629470673318685 0.856829384469905 -0.6922582133223175
Ni 6.43249815048673 2.9109243196092653 10.774322076173236 0.6617723860286344 -0.9085003304816354 0.8684397150153237
Ni 7.993729559443607 9.12896678161003 8.2064236777814 0.2580996766250523 -3.2745094208052317 -1.261179579556486
Ni 7.309090349939073 8.617830037657914 5.487866945566958 0.2034069130678626 1.421352621636378 -0.40669067029429956
Ni 7.209389981968233 5.068510069941825 11.281250937439143 -0.9830283835971972 1.2183920520773146 0.8267932431191309
Ni 2.7780655359100477 7.299147515236929 6.195152368110536 -0.3523426916710383 -1.606035475932176 -0.417754641417945
Ni 3.653044369731477 2.890738489157365 12.79682316103788 1.7098777046308231 1.4225286442223501 -0.27517334427788737
Ni 2.2592653052110903 2.811270851802114 0.999054154864904 0.12283599619233039 0.22241996383525564 0.6002934527875468
Ni 8.935569266620586 7.686571007409253 0.6566041676575812 -0.8077580808645508 -2.666706289904201 2.0356796696988555
Ni 0.22328136128902915 2.470935123973908 2.1301744806626757 -0.1170013917884243 -1.2006966916800803 -0.5868864353530214
Ni 2.521296519743542 1.0743983298285864 13.308214103877193 -0.27649514841310446 -2.7809771701353396 -0.021232941236847304
Ni 1.9685687106317018 4.470851904015578 5.244417575888231 1.5886396490532317 -0.6530185510954045 -0.6946434257250423
Ni 4.859682401098581 1.0297775140945298 8.349502945151803 1.0625672596637896 1.8531349447919825 -0.38488103061837586
Ni 8.893950061362649 2.503643298130867 11.274716806633942 0.024805489079454054 -1.3589488625881756 -0.1010906340954388
P 2.1435250812584887 7.926962486415434 1.4213113366125887 -0.035204315815274854 -0.36775619801263115 0.1083804828886327
P 3.784224127570616 1.342076324069237 1.4720929578488795 0.3793791269635402 1.909732638681369 -0.9538545902467185
P 0.4997559502312561 7.4954153202441605 9.399976563479171 0.16470358296039375 -0.4429008016662695 -0.4319260478223207
P 6.462420454920541 2.969999765792383 8.350628549080348 -0.8911086173677492 -3.684387230578261 -0.8911412703778974
P 3.801370827415446 8.908723612924797 12.157673358298931 -1.0863666760762323 0.2953405632543817 0.5387504990777431
P 3.869995146925717 8.510484943005707 7.57718575563656 0.6868239296806236 0.2538468148859693 0.35275329684589574
P 5.42484813362084 1.8828164513420766 4.302413718138338 0.5952186093678007 1.7522458851843885 -0.20449191860192525
P 8.340612550122847 1.1473280843655405 6.840370114027614 1.9293344720726968 0.85990262407859 -0.9598822844980373
Ni 6.736692612175916 2.2184434027358715 6.076564366218716 -1.0266690031052834 -0.03236581792521523 0.4568495505368777
Ni 4.562335363308042 4.434663737712867 10.990438030453804 -0.8402997622459981 0.5397678845986639 0.7374155265852461
Ni 4.398550611672061 4.905935342529029 5.229329793229365 1.2676921838640232 2.055761528050395 0.2878388555606978
Ni 0.4484800012696793 0.3278293301788019 0.9089795764896677 1.251265662876884 1.602394536745479 1.8857182780446429
Ni 3.594391025021564 8.973445838816113 9.833691455216169 0.8145223961715778 -2.269517131342433 2.2170152047889755
Ni 8.652095297249359 8.89041378902047 10.488189805524096 0.8886138759703535 -0.7870753557042187 1.5754609455794286
Ni 3.567048229590667 6.810457189626541 11.395419067904877 -0.31675553859504807 -0.4090900237644116 -0.623399442677391
Ni 6.8060204341415265 0.6274031877413122 9.76537761478952 -1.018250440024285 2.865279014808214 1.7638199631752334
Ni 4.579482063152872 1.515625689785343 11.012266304638107 -1.2451891176655006 -0.5712734114061129 -0.3015184099303195
Ni 3.4168739054573383 0.3114292809399066 3.156910988143587 -0.647785070610607 -1.220136288461931 1.7885835432731583
Ni 1.1073128647057788 8.404593753427871 5.168622221349858 -1.030582736337393 1.6444439005070453 -1.1356241275504635
Ni 8.16666922303175 8.31190964994496 3.2433057796757563 0.33773856860461837 0.7959788288414357 -0.28796869627034277
Ni 0.70395738692818 6.737377354565781 2.7821608582034023 -0.13890924760510917 0.44868475533789826 -1.002784483178202
Ni 0.9159752049055726 8.584981163009887 7.613580282659503 1.4894855698588734 1.045496934445064 0.3681806871445595
Ni 4.219617107164416 3.776954602198765 8.555583202406122 -0.7191128716213164 -1.3484374215338906 -0.20656602752213457
Ni 8.576773634364248 3.3935645241037267 7.789581588933288 -0.706887276089402 -2.4307124440392527 -1.0865857340655738
Ni 6.4939655050180045 7.103376851964805 6.9793728191701385 1.8653595118826325 -0.7432868977643586 -0.3070791918475485
Ni 6.4182498807579025 4.669596037665608 6.988159095835703 1.5176620322930896 -0.6088392854750289 -1.5658745874425741
Ni 6.696958793498291 5.590471371673444 0.19771420605541165 -0.5574647876577947 0.9264175770816884 -0.3335145032209417
Ni 3.006300492487947 7.05389717927253 3.6581433555277845 -0.40888279284961193 0.6267825002170109 0.10327272934842215
Ni -0.49819886479676934 5.409990161764052 0.9082629419884942 1.4611473850358125 -1.8533100369172661 0.2417546596081256
Ni 2.554614396028463 0.8650313091029164 8.487516994843755 -2.380541479611816 0.5014036829981687 -2.8768813749338324
Ni 4.461969013012813 0.45125930496991074 5.808128465332845 -0.014697711221490817 0.8627645190074175 -0.26819819851163484
Ni 7.6347932266962 6.13911886654431 2.6505993330318325 -1.3854893320808654 -1.107890666190937 1.247242914870736
P 8.097904203030412 6.82425521778395 12.29191194481389 0.4455963462205616 0.6977783718095982 0.4770198548371655
P 2.346799770720911 0.9978103625238622 6.087684395029464 -0.8523831757730932 0.4109409609302213 0.2421696356583571
P 6.539571224189538 6.174725470817272 4.798058400020585 -0.5960981837592766 0.6008570386005007 0.052601685356115854
P 7.881722588520677 3.654554555002275 2.412270523224709 -2.0827162022623678 0.4124748810762444 -0.24610522326733747
P 5.222699048086962 6.70079522688808 9.993039451367135 0.15329842644724567 -1.29533797060575 0.2829676435113256
P 3.1808347616415293 4.992907006074576 13.023922195651224 -0.7956862373016812 1.210279193162193 -0.9516339284463159
P 2.971781972012578 4.979549839455847 7.049539216062515 0.10012878440280176 -0.02504537300440203 0.564611426004905
P 0.4218922984741814 2.3965233242643698 13.530014357996912 0.4881295915970819 0.11561479585354283 -0.9597177338957149
Ni 1.773764190731578 4.899106678695857 1.5230396676613571 0.8247325039353602 1.161444431047677 0.3841248691786417
Ni 1.0527585943023159 5.824503188483349 10.732778849180477 -0.6691452814539379 1.5064695060113797 0.03365394060901946
Ni 8.783303195186711 7.2138548775514595 6.792443774756731 0.3369135016001617 -0.9208650226945754 -1.3079865126076957
Ni 5.828855523673721 8.324844715090485 8.712172530928882 -1.155109747078901 -1.0611878628177596 0.4838906138150698
Ni 5.132519413345062 9.39532219123464 0.5739304351125258 1.0449040380560712 -0.5884540369504575 -0.6234539500644102
Ni 7.7921620359394765 1.8281590005784971 0.4379706125901676 0.2734306505551678 0.8927536091703399 -0.49095266286817385
Ni 1.6546002548296532 6.730595590896299 13.321832973409307 -0.359106235647117 -0.9130894925142147 -0.23635071498373492
Ni 0.3758626018228964 8.759074570624788 12.653922114289497 1.5620418439600452 -0.6151608568176825 -2.7409201542134536
Ni 8.812062375561027 4.380484668618919 12.517843165351369 1.9576556876148932 0.32119531953395647 1.799841375575165
Ni 2.790193918240116 6.779090360151097 8.468049674899575 -1.7174138651068682 0.5710898346403971 1.9696588827233563
Ni 7.956490829474255 1.4236826088887227 3.671144080902475 -0.8513462498681467 0.7958906400030035 -0.5814619219033406
Ni 1.568791715343601 0.8768191962446 11.225417230570233 -0.04802409328776246 0.2931201585642952 -1.2811493378101937
Ni 2.071580230159011 2.4532443822302814 3.5673146225204233 0.43117631414048974 0.21935675152889964 -0.32480000616607935
Ni 4.509919740368814 4.818804218426936 0.9741708040178774 -1.0585085162133834 -0.320186418653468 -1.4117829756700717
Ni 0.33236551401083675 1.619472032226323 5.04690410253341 0.9137500089163489 0.1434734699370239 1.653560518096333
Ni 5.911615552519964 2.4228812162577897 1.6232174792985552 -0.8401305836579853 -0.4735504082313263 0.2591036924095344
Ni 7.145380638564995 4.105715369628437 4.807641041465595 0.37378723469805947 0.1682193094231361 -2.018825574255994
Ni 6.26888223944003 4.675646158781535 9.320007094372446 -0.09748954700774178 3.6102232456703374 0.09588183620098971
Ni 4.04809382851969 7.118666305327535 -0.02686628976781272 0.0962505323943181 0.2663079234674575 0.9919238863146143
Ni 5.395376070758446 4.34486868431322 2.884933186895896 0.8007135153129435 -0.10700648535924151 2.692797073453982
Ni 7.707619800873037 6.732696718229582 9.587880193294044 -1.1619946471241924 1.1498736954909423 0.2129801585785945
Ni 4.876932281303528 7.653862833252293 5.474797745953282 0.9096735248541302 -1.2303852198834488 -1.7651042292042958
Ni -0.25921345269799506 5.50555393529749 8.329747658202571 0.38390606829961627 1.5570909277126732 -0.5246811654688707
Ni 1.7502953488214226 3.705778913783793 11.25459007038829 0.5377778507518287 -1.1095472279577536 0.7209612376839648
P 2.8131656184151645 2.2663378498954456 9.946238716024798 0.05018767659798453 2.1050359488054906 0.27558857743843507
P 6.176732797823177 3.669262446335258 13.026200605603252 -0.25900110539339916 -0.12950235246891245 0.059889734377096854
P 9.293933417370983 3.9955375050893944 9.728832069239497 -0.27578886637469924 -1.3172234578249316 2.383723991104856
P 0.8324347573355377 6.2898184725109605 4.802122768205904 -0.33835923290775277 0.21685943902834262 1.1542795378681217
P 6.720934157176291 7.925067719802384 1.4987950970437796 0.06140257147719748 0.553674210267111 0.14242728806069663
P 6.432488770453992 0.9881770689020678 11.907606375523635 1.5738740607082828 -0.48642417887020095 0.7782927244155822
P 0.5758477138041468 0.28564357094349674 3.2540684292391906 -0.16279505308377126 0.8129506808090838 -0.36345937040949017
P 3.17100448733224 4.93091436970998 3.3663689951868148 0.6634315188986122 -0.8464531834419036 -1.3176050095340663
