# total energy = -340890.5432131138 ev
CRYSTAL
PRIMVEC
9.06405998890540 0.00000000000000 0.00000000000000

0.00000000000000 9.06405998890540 0.00000000000000

0.00000000000000 0.00000000000000 13.26616800298795

PRIMCOORD
 96 1
Ni 6.56982101036261 1.9859989874983206 11.439402932632957 -0.19972072246552702 -0.7543315856142945 0.5914660843039039
Ni 4.628390005728958 0.523038861259085 6.209415857898707 -0.07725470801810566 -0.9885004624553622 -0.3833391400525527
Ni 2.758383793646376 1.584687732396986 5.051584620812025 0.06838697321483062 -0.555573741282669 -1.982982853525772
Ni 3.610178829177667 4.606246507226134 5.235108268616401 -0.58988639852161 -1.061607209743365 0.1955946161122954
Ni 4.939287262645409 4.6503522230324155 2.543482183043359 -0.1289531648336618 -1.5609013025976988 -0.7666463984259054
Ni 7.121486892219923 5.947192603012617 2.7916398296704705 0.2632791639434627 0.8436787060205598 0.12326485619963287
Ni 5.2977527062760705 4.576135700011077 11.462964050114842 -0.7990127305717529 -0.4602398071653493 0.4286926284866875
Ni 5.781247793110975 7.780951639281531 12.391914176909228 -0.651456091704291 0.42702989607228387 0.28313682209933816
Ni 1.448482103251695 6.915977460556172 0.4160031899041299 1.6020898610208667 -1.1766247383325414 0.3173466352118276
Ni 2.8753736156586385 1.664152346140033 0.6008683185838308 0.5593820592851657 -0.8682473964988595 -0.5237882213409559
Ni 0.5011990087652022 0.04771411807970494 4.96609693921997 -0.24443477754345 0.3407125636312777 -0.48206924433561493
Ni 8.734590452617873 2.3829323016349133 1.254736915020943 -0.507114617340017 0.11728138492268836 0.6590737561505489
Ni 6.862880197261228 0.596279185021825 4.838994345500953 -0.3887916785266917 -0.1799329983156385 0.030921629279520937
Ni 1.0003187221736511 7.903688075313765 2.7664335853043203 -0.5820540469613847 -1.7865611135264907 0.44688009802899165
Ni 7.636497715564987 3.856784708738187 3.9329409405927644 -1.6405131979940715 -0.4227556941769622 -0.14218740413574865
Ni 7.501488542335526 3.9261882159162993 12.827203873614142 0.5982052027999504 -0.021456627211879176 -0.16748320258805996
Ni 7.849847559101412 8.805081646992194 6.902997726681409 0.025509714235330258 -0.9711113204446371 0.07253159151082347
Ni 7.090451550888088 0.4632033757836259 0.4769490227257191 -1.642804050910777 0.6720136041406685 -0.16352164683715065
Ni 1.6487978285535472 6.751201914390454 9.164574048617277 1.1452531659997953 -0.9089145352009185 -0.7297261283607884
Ni 8.907442076215442 4.8831263470811415 1.4486923894429622 0.5756759113491827 0.30089311764149473 -0.06433799995643757
Ni 6.566802678393129 1.6504656155877344 7.020681855687252 -0.673534411660569 2.7168181189589276 -0.6542855907332861
Ni 3.4440889943165294 4.445712941125632 0.3805581833976641 -0.603355122432006 -0.704304088743258 0.8107953250289779
Ni 5.787683275688545 5.439686821321396 4.74301320168347 0.3756641400057982 0.5998702492071991 0.7860230031803043
Ni 5.501458390006107 2.934435030412795 9.23192635902454 -0.4832452669215871 0.10115336901257418 0.6678954682072368
P 9.319938381317796 5.44735501605467 12.582960088081387 -0.6073030513361605 -0.47224968714203186 -0.9367467269218382
P 3.9681910698099094 6.046761301765597 12.499635091197796 0.6979642625681592 2.0494420135902702 0.2574121636397244
P 2.4242462869709245 8.573023583680971 1.3448445479788966 2.090364719946561 0.8367488116699461 0.9165170301385247
P 6.125854289049939 7.528091558342808 5.502541545172333 -0.9277072424273893 0.707827014294852 1.7104482324223123
P 4.977383506692633 1.075758893290724 12.793746615458748 -0.0291010311310144 -1.6792728352607722 -0.8229275895161375
P 3.7790875866889797 6.176359231193918 8.311718518069682 0.17959721224277456 0.47655037139991474 -0.9979847477967134
P 4.5876289280510205 1.240353158257074 3.4965508670076875 -0.30163848044795144 -0.9257827717111669 1.136582891919307
P 0.15245567585665568 6.039156555452101 3.512682174533466 0.5318717696800388 -0.9520622742329862 -1.0516768380035306
Ni 1.5283183434534469 1.1016277204405651 2.790127038061743 -0.23767663288401 0.8501815401360842 -0.13280107782484227
Ni 1.935303700095006 6.3227166075038275 4.907195051921257 -0.2484302718560883 1.4858330607079508 -1.7939144685677684
Ni 6.380382157022849 5.4508446791425085 9.322268751135674 -1.5795929654699312 1.197444760401686 -0.85655144821817
Ni 8.70035549811719 2.3732881418285254 10.212415637205298 0.5124936222637432 -1.0288148458036925 0.17844947179157655
Ni 2.110774837023447 5.369594445585684 7.015972170127667 0.07007207422673739 -0.5980571072578603 0.5168133326850195
Ni 0.8660011367197799 9.088623570923982 9.111561987486038 -0.2321590454998905 0.004110165513631631 0.706443503683764
Ni 1.439853118161769 1.0747074623343886 11.491525809481297 0.40711901608096984 -0.46382161097933666 -0.6364009971433814
Ni 4.072880962445041 6.985770722312926 1.5134306249553338 -0.7526166598057168 -0.9051067314190541 -0.32975657884040627
Ni 5.411017199641317 7.7414051456393596 8.172224447967851 -0.039813532452512075 0.16773079982249178 -0.5326371870911536
Ni 5.123940292321848 2.7888752913801054 4.935611786328217 0.7100577033975835 -0.1336127750928602 0.4151280024283754
Ni 0.8738406421864573 7.645307981854281 6.917497503412874 -0.11191343574255565 -0.9228049200297654 0.03510018613724277
Ni 5.053838852526168 4.43159113569485 7.300902708046616 0.5604935471817895 0.47118422199199494 -0.5516476667553855
Ni 8.113720472901752 7.280325479106333 8.825809339327954 0.8402740512143851 0.03986444029510553 0.7714134807972456
Ni 4.836528014783548 0.27652090308025884 10.485897360978152 -0.5173743473948121 -0.5529555869335315 0.9967606455816254
Ni 8.124189462165265 7.270726639599786 4.965712623077309 0.041256692656941846 0.12796020479277315 -0.6456595396271719
Ni 7.043436271831948 6.094900524257821 7.079583742985965 0.08939905669012346 -0.8357463385473606 -1.5850401046274314
Ni 2.085676454970921 5.124583840579605 2.560012309207748 0.6762052736245128 1.469894277990507 -0.3594456212644067
Ni 2.525364939978502 4.980166173102934 11.230620468914614 -0.5401859459726891 0.3233861565376882 0.7013756022425534
Ni 0.6795905858154649 3.437807600758422 3.391721387849043 1.351409359678021 -1.0529400209866704 0.9603908487033395
Ni 3.2213941049526746 2.8449727585245923 2.9885755670101024 0.6139884337761361 0.7953324535066884 0.3440755665662397
Ni 1.1318201041953373 3.2980307319855777 8.10537700570083 -0.4840142838771277 -0.26033113705873234 0.01483552235093574
Ni 3.331540561688788 2.669229699797099 7.023692936408758 0.43625244311181643 0.4399165222269649 0.5558740461319073
Ni 3.8862791598753916 6.995713996098272 6.140935978431377 1.4984877733574837 0.04285000528599072 0.05757368464941052
Ni 0.8081470547534151 7.111860860533472 11.265125532402354 -0.5744752061728622 0.10271248596957794 0.4924421029295067
P 0.12771894979686904 5.517365815250667 7.8477872982705925 -0.6286925727555301 0.20564917213482004 0.9268896316221005
P 8.544607755680007 1.4514007305615229 8.121136686767905 1.9125685654682674 1.689953197792754 -1.2306988944691255
P 1.9531780263527097 3.0740759382861134 10.296908085012824 -1.0287019743749122 -0.16420093229236238 0.9429628830348793
P 3.8591232362100367 6.001459130043487 3.6486738918635027 -0.7224272807065301 2.0319369148269715 0.3488153952440703
P 7.119955066085261 3.9140876958584725 10.563902661066283 0.6353316753386025 -0.045195365589715715 -0.2799530250547178
P 6.359870189314338 7.7917106784640335 10.122948833287113 0.36171564824550606 -1.1691173742119028 0.8734862763002955
P 2.439691445157094 8.585994253495766 5.628476687967419 0.5187519444686293 -0.7176337159726286 1.306843143031872
P 6.895710222466808 3.981950312841955 1.7934529744013892 -0.27797147584831483 -0.9274190217630093 -0.9618540635124273
Ni 5.197631099865018 2.90648146947022 0.4855245298618314 1.3319695057858547 0.6901169986095986 1.2202375899264857
Ni 1.4429983469708072 1.0285442049152786 7.030127512580332 -0.7443724175190536 1.0356400962556422 -0.15419574145053444
Ni 6.930960351683953 0.6976072178146727 9.106680084787053 -1.4745875697011184 -0.6375032290686247 1.2532546682824546
Ni 3.204634658071085 1.5801103821129392 9.399120196389827 -2.0954601321915973 0.3189144939195798 0.269964032162806
Ni 6.489350285963069 1.875807210462365 2.7542949961946266 0.4428102988349923 0.8613601824607231 -0.9238948106598346
Ni 4.352452828110666 6.644853298781103 10.382342288651063 -0.2748185320416299 0.9339917898845205 0.0748862077859291
Ni 8.34563351125348 7.428994190708186 13.277443830830947 -1.6250868361366722 -0.14646854800960582 0.0220117283844008
Ni 7.62576586856239 3.7680838178873306 8.329800411300663 1.0988378119600495 -0.5274926667757366 -1.5547779633087804
Ni 3.2354071416638357 8.49199088756339 12.528369974109648 1.0056330083705907 -0.31262583269739064 0.530172527600745
Ni 0.24130068526100967 4.69050600869247 10.166103729202709 -0.18229867033433766 0.9901840208053723 0.09790220906512816
Ni 8.661860435431354 2.3319469643126096 5.786928239493177 0.33134423504250027 0.8752233135960604 0.5102886441926244
Ni 3.9250098881204063 2.5939798739393627 11.69749660179744 -1.0742120429915696 0.25942276631184996 -1.06177690255201
Ni 0.9366799571354474 3.20483406739039 12.442365641099393 0.1826830502569499 0.9154754762478878 0.3974087307717414
Ni 2.995499602419971 8.640287972706538 7.944537980779394 1.1458290931079234 -1.023986571177114 0.41920757181438767
Ni 5.694758532892411 8.036240888291786 3.401803341751905 -0.2868713494411059 -0.5071500985636427 0.9122639112891257
Ni 3.2469819462434946 8.27159826943151 3.6301279187621396 0.46059590495318736 0.1672309773679378 -0.19806956001534923
Ni 3.310339725422678 4.235200148359319 8.991318167945115 0.22232611856986872 -0.49124576862856034 0.29988267409910935
Ni 7.267073823432517 6.133132729204572 11.358413744003224 1.3905685463759858 -0.030026885379393443 0.8587949928367079
Ni 0.6456329915498153 9.399520827840432 0.570935166944155 -0.19288004539460976 -0.9413122348053337 0.3478340051674074
Ni 4.8035982849183165 0.18557303176323378 1.617464279648752 -0.4374081539828144 0.6861356453643473 -1.4302000447246788
Ni 5.893361150860233 5.66318841202244 0.49071732981773325 0.423908833944799 -0.08649988076545748 -0.526011711354836
Ni 8.139453339152068 8.800739962267325 10.83522260653667 0.7160941393996506 0.25516913324181856 1.7561531906585948
Ni -0.05756040642338828 5.146627634422778 5.488452370357436 0.12609332678736349 -1.7832230502921935 1.4048520528781936
Ni 7.8907083414390025 8.812903930744932 2.5641908408531844 0.8645090125023499 -0.08300832267243125 0.8558433664075518
P 8.551469249076094 1.4928144205571863 3.737875118824615 -0.05555176912337529 1.243833889189187 -1.0750985593615807
P 1.8195556542984153 3.2820236020813667 1.3948446219826345 -1.6292306831017165 0.6091611875908218 0.07468823284251008
P 4.885501130792865 1.05030701289943 8.349261854458835 0.4755921212517035 -0.5442454607540433 -1.6894029817162388
P 8.471406407375131 1.3574517489889575 12.487152067809301 0.6951974984562995 1.5529604504840675 -2.2132459675545304
P 6.556650931228511 7.559135963734612 1.4267365169814834 -0.7777553638548734 -0.19426227045411706 -1.2686170096711378
P 1.7646183868298848 3.442520911941995 5.5303337658474705 -0.6325821376179235 0.4536564975208768 0.6484993230688121
P 6.9270628058975365 3.954350250238148 6.008884407969607 -0.4306320116012455 -0.40719023563853746 0.7231060519411094
P 2.4717782174452645 8.390455287797264 10.542292129289603 0.10456239469412314 0.45999246704123364 -1.3961527253319825
