# total energy = -340866.46728979825 ev
CRYSTAL
PRIMVEC
9.31038285860328 0.00000000000000 0.00000000000000

0.00000000000000 9.31038285860328 0.00000000000000

0.00000000000000 0.00000000000000 13.62668642148964

PRIMCOORD
 96 1
Ni 2.663756427979355 8.621824280482455 13.11598524027579 0.6641367724957529 -0.6329405493986067 -0.4810246051211845
Ni 6.10870984884259 2.1562940045872736 13.05384774438149 -0.42171414028632537 0.46771914626152994 -0.580891137001535
Ni 4.147030779328515 9.18882660292219 7.33754819250542 1.3743230310514007 0.6732454196652405 1.1407408799517385
Ni 7.193881535081725 6.867291921509622 12.178946402167648 1.6043537173543787 -0.7962493088940029 -0.3853633695714331
Ni 7.388868885473437 2.335788877728745 9.375623609421453 -0.8059074008090573 -0.38258940637072175 -0.022612595193193315
Ni 5.722692060818389 7.364019473345495 4.134854660489653 -0.6349817481983516 -0.30736509851908356 0.14340713547546272
Ni 9.088516536880059 1.7868207670881204 2.604727668956363 0.17277324734240565 0.3779048564108588 0.9491913804430944
Ni 8.81345989300753 3.901245979491297 4.6031631993696145 0.1434403027062433 -1.8876486622981363 -0.5521372047972942
Ni 2.9134608990439466 7.172700413841159 4.046458160486831 1.0659989110531576 -2.5649890779683564 -0.42180670000013165
Ni 3.5697591044807173 3.086559539089916 5.426405881713887 -0.46474489412455444 -0.6066903574528262 -1.0850633838837764
Ni 0.688486992454355 7.898156143926244 8.881669620670221 -0.9790997379667524 -0.36994934900920806 1.5380413672803899
Ni 2.052604269529616 0.21483056960051175 8.27055377271404 -0.2086452786486665 0.43350264828082113 -0.2681930563053123
Ni 0.8163436885687744 2.1701199232871584 11.710284068735096 1.784726117200281 1.2403796120919994 1.6835737766289713
Ni 3.3880669809600046 1.6709809822638975 12.162008953481568 -0.5826230320909772 -0.19028348831202713 1.384872267322157
Ni 2.653310178294997 7.374465723029854 7.177420778003341 -1.7045645199480257 0.3181400776474005 0.07211147325426935
Ni 1.7799497044615107 0.07535730866329995 3.60192833969408 0.2972591204333332 0.6748508164791475 0.4619223370740948
Ni 3.8927549102291454 4.040194134829402 10.496554614544438 0.05810461745221606 -0.3187779683417155 0.8513274808150694
Ni 6.238608311940771 4.864274751640334 4.447545734374759 -0.6780760082846645 -0.1860931043797634 0.18176516642837084
Ni 8.311201973691702 5.979053455701445 1.3765000864158992 1.8140948001703856 0.308407680850985 -0.36659945870036864
Ni 8.268653523551315 6.010243238627111 4.1735402327387385 0.1437514061887589 1.6216137899864072 -0.3426334348030744
Ni 5.3531443402555325 6.285756091264823 10.404574548139202 -1.625260385600059 3.304732481355831 1.4968265836049768
Ni 1.0516822387216345 6.163808695216947 11.126762333804313 -1.6306198501397595 0.4657419679305011 -0.11789973523297759
Ni 3.9927577336335 0.8149610966987859 1.5149333775761566 1.3733987194649186 2.3491884192218313 -0.4512766844347906
Ni 5.264258114108864 1.4257268742555642 6.087176795126028 0.46932377174448847 1.2723633640874474 -0.8701723814357142
P 1.5468828877515948 4.034533421987968 10.478431023068886 0.39503817365703575 -0.11639641121457373 -2.5356769592678003
P 3.4185305540145663 5.012589152239102 4.148140576977691 1.4094355584838176 -0.3064518426761948 0.18100746232673987
P 9.00304722128077 0.652731397723689 8.143934426495388 0.6499450543764033 -0.458185752849798 -3.1372600774010486
P 5.5211036489059895 2.868910716566539 1.2746454278402266 -0.5687542445286851 0.3672401776081611 0.8659421454044506
P 6.620920567545743 6.1738359776679745 2.554581015279965 -0.8145743324554359 1.2389009706639436 2.3458249020662376
P 5.682229136461689 4.936225391177515 12.16184509074142 0.1514757714162101 0.0652895652364295 -0.4472421093541007
P 1.0071599873931152 7.481535127103038 2.879236862310676 -0.4839453783124052 -0.04874554483481928 -0.7565195944045487
P 0.05021834362521248 6.484700354415763 13.11802980037444 -0.23287895438505052 -0.12104985082618507 -0.53834426477826
Ni 5.5464092697991125 0.37475967294547957 3.8704286118841456 0.20212547525227773 -0.6022739735526854 -0.2869348556891897
Ni 3.7710309633723784 7.98357890761072 9.191227750688318 0.6171778872477112 0.09978579924108621 0.5674933755383904
Ni 1.3669504266108674 0.3926998498766639 5.981257223348759 -0.17689164038615343 1.0525024192286196 0.7176337159726286
Ni 8.443139410658754 4.327773243787013 8.567874335365717 -1.4442647503478612 1.42148066257381 -0.13940624184618575
Ni 7.263886304579661 8.32448789017974 10.192147919419707 -0.022687157184870608 0.2903960747649128 -0.3330373064742071
Ni 1.4072178329253477 5.453361302468035 1.1722237669421145 0.11483498026472481 0.7859589827115884 -0.5164955443342846
Ni 2.732662572287671 6.044039928782386 9.575813601812827 0.4274857526627799 -0.14917334853527858 -0.06593105547517032
Ni 9.143252278318863 0.9275338681413323 10.111914763198744 0.033216595961284734 -2.136389780526424 2.403843130452234
Ni 3.704024137188491 5.936076727944765 1.484831978418851 -0.5050117120644012 1.1741636783865586 -0.5881904988764257
Ni 1.3775363320396683 5.421640827713483 3.6759486773639094 -0.9357774210300336 -0.5995414051128707 0.32945987353559386
Ni 8.488257526496898 4.1711353608194255 12.525582201297139 -0.3460715139503459 1.7843427657189335 -0.17175071961516225
Ni 4.724535213750384 2.289823517040979 8.438244011296868 1.18110899935614 -0.02115786502453776 0.37624932308530684
Ni 5.81958521631314 8.099279036690499 1.4546486478914722 -0.10966603446927566 0.06867442254826238 1.0507723239113902
Ni 5.048434126646212 6.981148594762751 13.099292654661632 0.2041479049989452 0.3783414297276452 -0.2793845541457576
Ni 2.4294699511013005 3.2035910529333886 2.270287540469956 0.054206053728758266 0.31611610523883626 -0.23732156353743644
Ni 7.909635846119483 8.11992946610218 3.420502493126105 0.6033494660050512 0.6949864108867579 -2.600419907972141
Ni 1.8376647684484386 4.407321155821908 12.490888921262538 0.49213794142552664 0.2810128337777999 1.4616626341093342
Ni 6.140560668958622 5.1658380558082 0.8778220093493008 -0.7532388667707478 0.3993002913674994 -3.8993983035439554
Ni 4.9060969919096165 4.269937144821568 6.751437240072659 1.4347105310005228 -0.27125909682514576 -0.6129965021765121
Ni 5.622894065839218 2.6285445596137214 3.488690806907983 0.3837561729853133 0.036642333813382055 0.5845989248704254
Ni 1.5957158463919299 0.4455679284931136 1.2944448882490993 -0.6180656891693033 1.62456233109177 -0.8765993680079806
Ni 3.6267572689795036 8.709043948078767 5.2603095806943045 0.5612584503722721 2.3464288541988236 -0.06161905836337774
Ni 8.823682693500778 2.258661665264201 0.15268003917006506 0.9645917741585645 -1.680037738451255 -0.11525535563159504
Ni 0.8673105869842028 7.634309201141028 5.096012976701447 -1.1005571086440014 -0.9201350865070864 0.7157406127149738
P 2.024188980726889 2.6716609431148446 0.17221042951131021 -0.12459025987927574 -1.09888692003043 -0.1727490789726896
P 6.735149656117386 7.800089880178169 6.069912551997949 -1.2501911988657826 -0.8974859816490027 0.7476950541343832
P 8.001203462559461 2.267096872228575 11.63341568491692 -0.9291588872722514 1.0935768206714263 -1.1179917591806812
P 3.6835692258190313 1.685644835430442 3.7327448065524007 -1.4138732825401972 -1.472613219583567 0.09176935669451292
P 4.56700353401836 5.383682396373798 8.417408305264226 -0.3454210248505406 1.4351399052284575 1.905235522141964
P 1.851555859829064 0.021834710124559367 11.120548584214884 0.6683654658651199 0.28162578477145045 -0.34311963041087357
P 0.20632367268732316 5.4579233901198485 5.943864863293219 0.5618562318572711 0.235991017651471 0.757417937849102
P 7.494532421719227 2.0199434460958137 4.214979816268246 0.8972450692827904 -1.3185717443227098 0.2500310406843049
Ni 4.151183210129962 3.961940366026348 13.54712021309984 -0.5926125392035213 -0.43372684847648524 -0.49568734933968184
Ni 2.7734234288991844 4.004172263145998 8.28219082037935 0.5209296688462384 -0.25166934761867626 0.6308201606214943
Ni 8.527835964472125 2.1675968095042166 6.169973099776674 -0.5476853396735276 -0.9928870215588319 1.2783483780262888
Ni 3.225852178597648 8.165820343726242 2.0355271650990914 -0.47129143699382064 -1.20990484054191 -0.5475722111344311
Ni 8.501887927154563 6.995626240270037 7.193991397600685 1.0570494151693537 2.318579693197039 0.2184154706615529
Ni 4.530795454675697 8.694612854486294 11.27775905573469 0.502420040077825 0.6142458012025808 -0.3617827540380156
Ni 0.6426687358174022 2.6751802678748153 8.692518018319646 -0.6573626869967131 -0.18079843163972736 0.19785487290138182
Ni 4.882383446503147 4.504242242465548 2.587026768867325 -1.1218918655660355 0.15911477601870663 0.9859021056005668
Ni 7.3242548277110116 0.42723206028600663 12.170116434965648 -0.8253781079391592 -1.9298690044199278 0.5275708283118398
Ni 6.120264034099531 7.018175987806147 8.171351642244494 0.4962527349248486 0.6138125703199041 0.4752766468938137
Ni 6.266586012744241 4.5140181445765775 9.80701741089187 1.6401961809742849 -2.7723912282385417 -0.8825098199551447
Ni 6.899152052008617 0.3953328261785679 7.610040756909971 -0.146928775475476 -0.5745888489325911 -0.025320995263291873
Ni 7.2237678643925864 5.386829305815253 6.572409748155923 -1.4633019694849703 -2.1351494803614197 -0.6935375942553733
Ni 1.46497944882709 2.312550161853383 4.33636579622346 0.04362673555101519 -0.0061621629466539025 0.2954125541428977
Ni 4.646458342223625 6.732486886590001 6.28368732417047 0.6192103442967078 -0.36074299991959163 -0.4290003895350934
Ni 0.9577497850090813 5.705272334294831 8.093733772597805 0.2696693837405227 -0.6276733874623965 -0.621658291616568
Ni 0.045538014109769875 8.51995007010256 12.136008778019413 0.5505562334634195 -0.609517542488976 0.47468323628418896
Ni 2.513067879725051 5.215825501935933 6.140389357912105 0.36850773146667504 1.0774302928185506 -0.7660203348061324
Ni 2.3068894490119485 1.8353651038566061 9.873325027315245 2.351912503021214 0.30955773529502817 1.3366381149061173
Ni 6.950610538644486 1.181729667947221 1.5892125438923543 -0.5717835182733121 -0.910654914930793 0.5408644600969524
Ni 1.2300319347586715 3.3709544970742207 6.638703399004854 -0.5246405420389223 -0.11856770783427967 -1.7415279845462524
Ni 8.070621677930736 9.212344630286438 5.35020505235415 0.6327181489751555 1.3362750751397436 0.31828843029980664
Ni 7.636320243861012 3.610175476922604 1.5876316408652564 -0.4878534551175598 -0.5008280130003568 1.0870202504998312
Ni 5.231094529995065 2.0174761946106488 10.832602646168535 0.7841365847908689 0.003011790243130297 -0.5379038348067317
P 2.9467920700510777 2.020846553243213 7.3301352655903695 -0.6192437686378045 -0.7573973690238117 -0.5966412007469403
P 8.79403843414695 0.13595300513894476 1.0342168913215573 -0.43357515338996944 -0.13673923653698386 -0.4795140820139291
P 0.2078924722165694 4.128605531444964 2.3563266515065746 0.3631788630545939 -1.1573424930641616 0.6237982207777063
P 6.783973304374759 3.147691513624223 7.29733571745042 0.0570959736820436 0.23813094681260927 0.27384999748077354
P 5.041199959084051 9.282293537486598 13.27708000356771 0.4570886631308773 0.4964851626506288 0.5959850552201801
P 8.005756239828314 6.322457620904518 9.9311834711998 0.13431905713126546 -0.8481133447531458 -0.7740066954457187
P 5.698047477115631 0.4084185694329037 9.484569055661659 -1.138073874642537 -0.5068281964478497 -0.2681778867966607
P 3.1579608660322864 6.249082492774017 13.056110167441473 -2.308541849345063 -0.663408893190793 -0.11670597203519255
