# total energy = -340895.7572535884 ev
CRYSTAL
PRIMVEC
9.03721328704369 0.00000000000000 0.00000000000000

0.00000000000000 9.03721328704369 0.00000000000000

0.00000000000000 0.00000000000000 13.22687514111270

PRIMCOORD
 96 1
Ni 6.45389871020761 1.94010893430536 11.271254804255804 -0.3491439822280825 -0.26800356600232556 1.1708374422268029
Ni 4.717416264200035 0.20425367089532867 6.032288312967682 -0.6074151514339926 0.5956924636804256 -0.10745488575056979
Ni 2.9080125447114185 1.618465478553254 4.765683116292598 -0.5632163454295913 -0.5126954538619041 0.6697795726038271
Ni 3.400368958210069 4.2950440298855685 5.031741384685695 0.7427148273109725 0.1217767016898806 -0.7856553354282404
Ni 4.682668179364913 4.420146172505231 2.7655806420189784 1.0080483026803027 -0.006161391615705517 -0.2099817380719029
Ni 7.057087506649809 6.047070482633433 2.644369923412321 0.06454523087123722 -0.1576327921565414 -0.17172320881133651
Ni 4.937083805965268 4.776582899158565 11.167635924905337 -0.6333138735776254 -0.5514630615484051 1.0671800758454524
Ni 5.809934007711816 7.909088857495283 12.359813344655423 -1.3308130235839082 0.42914257153991253 0.21028949912030884
Ni 1.792684875029585 6.568761690247768 0.2237668216823239 0.5107352448117397 -0.20931299413965243 0.42114181272262313
Ni 2.693089539887261 1.632888870854127 0.21152772381699061 0.3330218798552394 -0.4913882077436957 0.669125483959596
Ni 0.8100722963848671 9.10698050716507 4.499980914100413 0.8525068458351511 -0.5045769385198279 0.9697159827590074
Ni 8.486810787080428 2.4819802390424073 1.4506706369558018 0.5089321301647299 -0.10086257724503274 0.6167731956101248
Ni 6.796490426206221 0.6935446616693827 4.773116224166952 -0.6705557886482194 0.41157448074916214 -1.1416623633247436
Ni 0.737202535019186 7.508740311800633 2.319080855846824 -0.010105206754801952 -0.08692822655212772 0.24883856303810045
Ni 7.882130850456748 3.724804912847494 3.9807207168425527 -1.489144641579687 0.5735624645506057 -0.8361723703411856
Ni 7.348167107288161 3.8434725596537342 12.908120952648536 1.3779588280317754 -1.0167723128168618 -0.9956751258269303
Ni 8.155190247932229 9.03670713715781 6.435019971788736 1.1504115702722832 -0.15007837684805123 1.8493680215503825
Ni 6.966046620660466 0.7542666010232636 0.5440067982211931 -1.0027595434775374 0.2524414498980104 -1.1665542414704166
Ni 1.9242124762494481 6.488646795042732 9.123329729603357 -0.4494977381574969 0.29138492104074337 0.21305600612185244
Ni 0.2560956445381584 4.897057988609025 1.5550965394469136 -1.925172627385523 0.16193296219379208 -0.8850523838713402
Ni 6.537745974472959 1.8532342036109428 6.898357893634441 -0.593339647177533 0.5514754028435793 0.7793779870599609
Ni 3.4304357665966623 4.393540616782318 0.44395852181438133 -0.6384445099359713 0.45858633072232635 -0.4248038349552426
Ni 5.9245981690611105 5.512040348304756 4.832822380754781 0.9343291186192813 -0.0014770987661587463 -0.1179580992747388
Ni 5.314523016144435 3.065341389677517 9.402602211168345 -0.5698603331086702 -1.149557192691788 -1.4599119699668146
P -0.0039022686688701988 5.599610944417198 12.46823459911158 1.2243788657883687 -0.38273647347154727 0.38859036114916307
P 4.062281566162964 6.288056810387237 12.563044906735445 -0.8896274048365324 -0.49943961729326236 -0.0107747220180008
P 2.53713435133077 8.493200096827744 1.2858878985249416 -0.8312055132542138 0.04198405774126963 0.13287204027209373
P 6.463216077038562 7.768515005841101 5.916963531331927 -1.0506944194856034 -0.3797061712856557 -0.11073715604626735
P 4.811231574648255 1.125413199636579 12.503007988143722 0.09597208192195085 -0.5219198006736496 1.262167140280736
P 3.984353676557434 5.9833581294246905 8.244549308541126 0.05452847006518351 0.9006432963310618 -0.0811985231572021
P 4.686011948256718 0.9646411764332421 3.759910871326172 1.069954553266796 -0.8908566492579432 0.5361171752199542
P -0.03443720470031677 5.877080501944576 3.6397448545678737 1.4917208869472955 -1.9673356339068182 -0.38004607112357774
Ni 1.3807596591987084 1.044891629836594 2.3757188785460905 -0.3246359697843893 0.36271555026493013 -0.23072822659063488
Ni 1.9699227007217628 6.391361194717612 4.650159515965979 -0.8161177656831559 0.9396777845257043 1.1613361876045871
Ni 6.026754827312404 5.708446103238884 9.221341018150135 0.13180837489426978 0.017201708590267147 -0.010035015638498845
Ni 8.550631586847823 2.166183860244352 10.196875651400088 -0.10071165348946526 1.3899933905988062 -1.111227443873654
Ni 2.227844766051905 5.225316684438975 6.978949049976229 0.6087081592138033 -0.047707333378292034 0.38441077585017663
Ni 0.6419683820952533 -0.026204303455896315 8.986590367518888 0.6757442748276943 0.49447327442692257 0.4824019450846853
Ni 1.2305973243169408 1.1159241257544257 11.229259778138681 1.2104815389809862 0.18861484236035259 0.9732234816916336
Ni 4.042128580679915 6.66711368173298 1.7497436526882149 0.3235854170326879 0.8088849953801424 -0.5978462767986348
Ni 5.692468310263982 7.836095286308473 8.035313421997007 -0.32804910923099634 0.10549287692819251 -0.08468339638200899
Ni 5.359564486838388 2.8911310304144067 4.858151881970875 -0.08840661086986709 -0.04116413294313556 0.3379056903101019
Ni 0.6988531207154558 7.364967286666182 7.1141538932557555 0.2061993882113352 -0.4939749946342654 -0.8761450540793815
Ni 5.244105050725637 4.636614540790196 6.954506099377124 -0.6622562676435885 -0.6546514587131371 0.8795736201449561
Ni 8.383614849308707 7.203155983942419 9.145233223287335 -1.2738234935727417 -1.1431412618631152 0.6944189684190621
Ni 4.695772138535505 0.21085987375995144 10.455659866871523 -7.456199167729094e-06 0.6898272352833217 -0.940595154133651
Ni 8.148312928670974 7.496196659849749 4.58927581049544 -0.6480277827490324 -0.31355348671798255 0.267356676446946
Ni 7.295218075025747 6.1213654125240815 7.090424882501118 0.5405554134969658 -0.46602221817508127 -0.4294541892430604
Ni 2.222756815008427 5.223183902118795 2.5601412887490413 1.310864605486439 0.17315865570628244 0.5542372818594326
Ni 2.2983621408161343 5.371294789599374 11.284521433264375 0.15398336832941226 -0.9107698432421024 0.7302758302166714
Ni 1.0940811813990314 3.3123374642233516 3.7767354511798903 0.9650993099226025 -0.41312125641099173 -0.30362440052972867
Ni 3.4778720987942067 2.351112354387684 2.599358275521997 0.5586179274256314 0.6600050097155665 -0.5338232369794549
Ni 1.0925810040043293 3.267124286478197 8.15496341388038 -0.35205189990349695 -0.1174464497456429 0.15852239385034633
Ni 3.643623626482369 2.759883582804398 7.068825942902694 0.3500271561639843 -0.3458275162603399 0.13920775268213445
Ni 4.248303563106049 6.854129772130387 6.152163331460261 -0.4048407615697544 -0.3110554028864772 -0.23790006174872574
Ni 0.8710084176920879 7.485876162351255 11.304349079071466 -0.39886448938166147 -0.5407063372525334 -0.2524118822116556
P 0.1897697292658746 5.328711440901559 8.089107433695593 0.3982620799109722 1.2362409073332772 -0.06481956757854644
P 8.630529588935552 1.5510388307106404 7.9834108990255945 -0.6066253085428455 0.3059126823432731 0.5091753565237875
P 1.843211934148745 3.264395048085426 10.526066083913133 -0.7000098322432783 -0.2913306707640402 -0.042147065681695156
P 3.993363778138869 6.1447898691931675 3.956555208689336 -0.3453040396567021 -0.025238977072446857 -0.7821105554997756
P 6.863727292571192 3.9590133306854747 10.512217458373122 1.1279195598173544 0.6723956700704355 0.2444921131439467
P 6.447825702923032 7.767891438128845 10.169311247354416 -0.08282243191387026 -0.7379410600714129 0.10407774174822074
P 2.3695663437851673 8.259732730473894 6.011548812346584 0.33200398011368626 -0.02278048822962528 -0.9732275954566917
P 6.789956521047368 4.021234543712736 1.8310758605141322 -0.15330793952894242 -0.14104609144245386 0.11472339438752499
Ni 5.190993348625243 2.9318888620415597 0.70782436228004 0.12067266999242444 -1.1476648607650815 -0.6826908813488565
Ni 1.5880371816378163 1.0497536505495448 6.8948921223641495 0.2552457521160249 0.0939239411436705 0.14028941578208742
Ni 6.908624167853608 0.6404157888638686 9.093198757002895 -0.07121647224382574 0.25323077856852516 0.16468892767237442
Ni 2.7471591865890916 1.6226768199142858 9.291218558218311 0.6539477477778931 -0.34409433561931707 -0.4442359755379252
Ni 6.320391959292327 2.0512485824984257 2.7906724645273573 0.2763290551488854 0.0764070153058297 -0.831636173033729
Ni 4.037971462598209 6.882949445092469 10.372581669451291 0.2578785617531817 0.7429343995209463 -0.4299768945157498
Ni 8.116619421904582 7.31252433834415 0.3058012209755206 -0.377107300210228 -0.6585443660096401 0.5141411851694951
Ni 7.53084533533944 3.8612577952728553 8.318818030513432 0.5590323892552308 -0.5334900220097523 -0.13632117516295877
Ni 3.1369522672414987 8.4158234772287 12.330859920937668 0.6028879529876005 -0.11062402750717078 0.339001494477442
Ni 0.09180272306388176 4.722531326883176 10.311843463113611 -0.43692890035355075 0.03404269140700589 0.19275586111191964
Ni 8.778577215923583 2.4094023796637676 6.008651481787901 -0.08174231147581407 0.47905102633458135 -1.2253556278793412
Ni 3.739445198265673 2.6803470692455127 11.50072772236593 -0.024798032880286328 0.6189262373973857 -0.486446033247072
Ni 0.9260522759791529 3.315599898196168 12.727256493290731 0.13276482527026812 0.7961600916143062 -0.8694894964360768
Ni 3.306219270872668 8.41490168148015 8.036754857505771 -0.608363631390191 -0.037286395155284174 0.7214420339751252
Ni 5.541167286516356 7.715195447836622 3.736195416391366 -0.3779369952003749 0.8753387561280023 -0.03766640420252223
Ni 2.971842381692035 8.425502332588497 3.49678879350861 0.8571433161658979 -0.18834873318315948 0.18138027228512632
Ni 3.2366688779230963 4.148677324556663 9.109520867801521 0.11500184485989227 0.4596140006558923 0.2732087643523488
Ni 7.105526969514895 5.98598795847203 11.627494519660917 0.6352571133469253 -0.0018195697072420278 -1.892615519385108
Ni 0.6120091165459907 -0.021624243795443754 0.08593305307677848 0.5981527522954603 0.39612909272836944 0.8511220496724826
Ni 4.6645485668566105 0.1907809934253155 1.5291723896008713 -0.30930473874395764 0.43237007733827476 -0.2093991260955555
Ni 5.921706260830359 5.506392090041571 0.35029955515488603 -1.359988873816916 1.22754466511086 1.1769543537578182
Ni 7.899798602303994 8.820871373798322 11.485570508351502 0.36113072227631354 -0.06548908284174527 -0.786136388829717
Ni 0.2086746756030899 4.9357643728349885 5.77819983348593 -0.9272267032465451 -0.2362823236396447 -0.49001523865556895
Ni 7.632658579488332 8.837653478749901 2.572944308719371 0.5721059346097374 -0.49625427758674534 0.0693447091424096
P 8.553089708843961 1.5227252416889399 3.6581175090463662 -0.6498779485838937 0.9737094201891167 -0.3564479720886635
P 1.808255993409537 3.2377443062964066 1.557848370872738 -0.49811601338583245 0.014069590719188672 -0.16554716190761165
P 4.777342025069138 1.1384267866749602 8.14894553359645 0.27293622741725254 -0.03222954945766708 0.43150490112450196
P 8.45384303324986 1.6660192945226726 12.439465534543537 -0.31296727519720935 0.512921196719465 0.6599674716094118
P 6.170618224579067 7.645518533901955 1.2983447932289034 0.45097817935776524 -0.20125412839091789 1.0175652410318023
P 1.8438264646477798 3.147399285725088 5.895072689746461 -0.8207004999578317 0.2587511941661221 0.8217531095920622
P 7.033355784731206 3.873620702959318 6.04337245498336 0.059207877818723845 0.494154200524607 -0.3904664951259534
P 2.429871667609555 8.615880266304151 10.230339548236493 0.6521556888744768 -0.6543056453379441 -0.7051011307232565
