# total energy = -381163.75772672566 ev
CRYSTAL
PRIMVEC
9.26734270598899 0.00000000000000 0.00000000000000
0.00000000000000 9.26734270598899 0.00000000000000
0.00000000000000 0.00000000000000 13.56369280756834
PRIMCOORD
 96 1
Ni 8.854260323009422 0.5565345212039255 10.722994989673275 -0.4536845225453348 0.4209134987619009 -1.4046121689532456
Ni 2.381864660830784 3.9923527710485307 4.607830373069219 -0.4344894376741227 0.511987372051286 -1.2527787570873004
Ni 3.276218851246732 1.84005872764033 4.327753663773096 0.20809711945468032 -0.7767438918712236 0.7442960557551633
Ni 5.785463139740741 2.504073111175997 4.984101174557523 0.021594952561956357 -2.464868521095671 0.7195705279840252
Ni 6.638892744070054 0.8560680168426426 1.127714224335548 -0.308531608023359 -0.06068574791583097 -0.976191563181022
Ni 7.764633951109894 7.162812705533332 6.03610120769565 0.8683936922687367 0.7540929872409271 -1.364282101875631
Ni 8.84021103122787 4.199839310426627 12.682825783219918 -0.5372829133932812 0.10928036899508276 -0.39590232142954396
Ni 1.852050669306115 3.133890999544163 1.77121441770786 -0.09177449890083549 1.8909353034692078 0.3545975491434861
Ni 7.897333033576953 2.4047364630186956 6.930802923468992 2.673918491381924 -0.951516171921529 -3.8705386989997854
Ni 3.550763883587441 6.247375310102191 4.4898265161813224 0.4533412802733031 0.39871973627368107 1.453812027716664
Ni 3.9723631124912675 2.4237808526038482 2.1421954198894944 0.561984015684387 0.9324144180950716 -0.8349302704039686
Ni 1.7449757898575222 5.982774136654363 9.071044787482792 -2.13769435827046 -1.55679293685628 0.058498767566841185
Ni 5.72972933975772 1.3694630570154793 12.225756726239101 0.41695194301099164 -0.31109371232358035 0.01603956996136592
Ni 4.071143720076741 0.12951204325619042 1.266770704007188 0.04851080311619388 0.1391738141204055 0.1297661476532604
Ni 5.746920260770108 8.306115527300115 12.80374607290706 0.887463307305678 2.5902684213604354 -0.6675684238851213
Ni 2.5547376746125083 7.973955424375028 2.7949750036713503 -1.3870816162686497 0.45374648613152174 -1.3017911824302615
Ni 3.973299114120514 6.169566699417547 8.318951723900794 -0.573858655634786 0.13572056546448238 -0.5931905231941784
Ni 2.4164596517414294 3.175177012002487 7.875202618818147 0.8404000352692881 1.4139234190518424 0.2847748719233934
Ni 6.551455364149899 4.568725893121038 4.972056409037414 1.5279333323121105 1.0423385913217402 0.045957183456404725
Ni 3.279369747820431 7.067618559636159 10.381054133089712 0.1153376309327562 1.1647876364882972 0.5691393957822456
Ni 1.2869373688131498 2.7989784957885218 12.458021360232198 0.9533956483324291 -2.189015891362572 0.8130429834125739
Ni 7.662822922407953 5.026606769336726 1.3359189827855913 -0.0749826241544773 0.40177497816023716 -0.2895195856972304
Ni 8.786469709960569 2.8743312606142535 1.1701299258889724 0.2309979353122538 0.19981096818648814 -0.20380671960944252
Ni 9.007291955719705 5.167581588981177 5.714560552958217 0.1537421988528836 -1.9290596211447548 0.523886437481717
P 1.9872426670035412 8.12809913822897 0.4576121232726368 -0.2646197371317572 0.5780438973607269 0.06773648411502527
Ni 2.060158120656088 4.724296777776008 11.893581795565433 0.5375053138167324 2.0567717144824638 0.6412948349005729
P 7.619062529404988 7.085504531363335 0.5845256035898116 0.12956945826142202 0.6710162732244056 0.9905522027780682
Ni 0.4951837847111415 1.6792425269244373 8.246372674794204 0.43239013194293274 -0.08222156510507775 0.9973946796211984
P 2.0572203729682568 2.3021562448590562 9.825240611160591 1.643629632135866 -3.6139343759733373 0.40682848142374456
P 6.648864404991525 7.382800890434725 7.745153996410142 -0.956116646808018 0.7450815277709363 1.119135642977137
P 3.5474091054707375 3.0923176994570603 13.620253656532624 -0.40490812447258007 0.2333294116589078 -0.4861791527389304
Ni 8.880996607171548 8.750744103220537 0.7831025195386311 -0.10951665337560494 0.9508754530137365 -0.12946352881117704
Ni 3.017224420231515 4.215158228180525 9.90976989889008 1.705968342274088 0.9881711041404014 -0.3120041399529917
Ni 8.839719862056086 5.550702810314418 10.33246916139184 -0.409382872414482 2.0278948835471136 -0.12840063476430147
Ni 8.680099148569628 8.919103921027581 8.445012608674498 -0.31549081295001147 -1.0501125788402044 0.22313293074188023
Ni 2.6392651088734236 5.731351124758889 2.5559016528762046 -0.26396667692879056 -2.0276485718642627 -1.1293583491464099
Ni 0.9936815712303856 2.875739896729554 6.1821276559351706 -0.8950534609481102 -0.5404217161325789 -2.147332138470541
Ni 0.7591696065928123 7.181875629804214 6.382667395102547 1.5105961265852434 0.7552839222252347 -0.516546195066562
Ni 4.663558612646523 5.587475626798061 11.438587696651828 0.5117945393141896 -1.5029941458682696 -0.20298293815656657
Ni 4.597158101027243 8.45590359000806 8.262458928537225 0.1725613884419157 -0.48500338726327435 -0.7139138439188801
Ni 5.697886749677629 6.054484835734613 3.3339831260512174 0.6113039449654375 -0.30365705353987704 1.6138328604894079
Ni 5.647954306327359 7.4296658432970695 5.511213735637389 -1.3550029905665504 -1.4608586501508 0.7833973926319991
Ni 4.7781863765291295 4.912090213568486 6.554193863966158 -1.0785453802596006 -0.9449027803700695 -0.9907512061627518
Ni 1.0712028942862515 6.883773011903671 12.274599330068588 0.01813321926560103 0.7601949863736069 0.005078957184804157
Ni 8.944765193417503 -0.0405038487206178 6.024694035364572 0.9980739650764102 1.624059166203106 0.3508558227128667
Ni 7.920399449965005 2.6518316257967656 11.344510265569744 -1.1778444696722554 -0.2309799375901248 -1.1447451160151252
Ni 6.966159689963043 4.651038432437501 7.178055631075746 1.2277022737346468 1.2941755748665325 1.1295033593647064
Ni 6.002346764782754 2.5782489234580237 7.772619620455649 -2.6906445458873534 -0.8116746423101376 0.8189547209113187
Ni 4.648805002807319 4.083469286085623 3.8855503514801346 -1.7204053436350244 -0.003538866391193905 -1.1123499875138714
Ni 0.7372134178798466 5.139825897104032 0.6997010674356704 1.91710039190035 -1.0487524652678843 -0.15221933445045396
Ni 0.9616258322644273 0.5061692929419154 12.413139618742713 -1.3399702646031437 -1.0897502478364844 1.3935751944127936
Ni 6.296677574137721 3.6896257490589406 13.213709226111073 -0.14563859590914272 -0.22659414981760334 -0.6666325423344132
Ni 8.683212975771871 6.434001060693827 8.004409766494119 -0.4146785735957826 -0.06623418853788593 1.8438409210845663
Ni 9.035900243140322 8.361821525254545 3.775793503006752 -0.8482930648641196 -1.6055845044376864 0.4351337561263409
Ni 5.808177397099967 6.248589332017352 13.335931577470582 -1.0175778394372925 -2.1764036019152004 0.5258150219629977
Ni 5.289771504640663 4.427213567590486 8.924150915951218 0.1555982782250159 0.09774742865481875 1.0956085063894745
P 7.82222121966568 6.109088019888248 4.1652341254388325 0.3330807581176328 0.8649949509998328 -2.0858192666677238
Ni 6.249877492675424 0.46365906449128025 9.643406076829551 1.466668571964358 0.5085171541144984 0.2525008423810361
P 6.791118117951185 4.836950597628622 10.509285429562123 -1.0070288602768527 -0.4188026230664852 1.1826871424765373
Ni 4.6784790346572755 7.181365925946703 1.6533866403343758 -2.0182103092694983 -0.12514870348590706 -0.8814474401289012
P 0.4582608372731043 7.711430135728695 10.062402109122932 -0.11389704183148772 -0.2866988284189837 0.04754535387913102
P 4.586639666876805 8.862044891015032 10.563023970626563 -0.8371848707661002 0.037579500915670756 1.4211536182516944
P 8.556102101051696 2.7013192366895717 4.67087517983751 -0.416264944246296 -0.2310375303009376 -0.6368272860475226
Ni 6.998020814728861 0.2546804829121077 4.696075865287099 -0.12745755412474177 0.07079455421505873 -0.8022947437571345
Ni 6.676388413297075 0.35111367255017406 7.168113625651438 0.7051584663237533 -1.1537822865167289 0.35925613096142
Ni 6.02309634545485 6.8217744881447056 9.756459319159596 -0.9366066017995482 -0.40720900469161486 -0.6627188091023037
Ni 0.2550150339894917 6.809597199621644 1.9675087871093202 -0.057496551554571944 1.051741115582563 0.4173136972257845
Ni 4.726854564406423 3.1131228841863394 10.920834225130134 0.843449106508257 -0.23463810316800235 0.7750197100912652
Ni 6.693681275080966 7.785457670524901 2.399837745580879 2.0708785861974914 2.1493735943806014 0.19803510723298798
Ni 2.0956149744530688 9.277444267542963 10.286582839935916 0.4887214595448099 1.081501120453815 -0.0017702045265453384
Ni 5.217439893588537 4.901256689760677 1.4516949704490256 -0.5704504012841853 -2.2992336845702597 0.9747489171972245
Ni 7.160718286046109 3.3246221830244713 2.9202768930645067 -0.6161011092437648 -0.42080936908386884 0.6455582381626173
Ni 3.234033906530617 5.396364482260336 0.4037994434652851 -0.219741388561828 -0.9483040927421345 -1.318594627140845
Ni 0.7618691835690434 3.7654974850850462 10.11154312139263 -1.6856075192295485 -0.5200007292740657 0.8314975905733357
Ni 2.0708897036923934 7.997892970992279 8.20199229655365 0.04597440984758534 1.6252693844611237 -0.6271082589875457
Ni 9.42127342878947 4.6541800616683355 3.2183795109650495 -1.680271708838932 -2.9120620366000236 -1.2387184223394925
Ni 7.517853877989195 7.9538545577034 10.965025549576268 0.9110112698289471 0.5952260655669684 0.1192145973896592
Ni 1.4835718496977124 1.0132541993587765 1.2069147899183383 0.31949504901339815 -0.8614542848364259 -0.5824219718237647
Ni 1.0830743604948068 6.255725186022494 4.163362122180341 1.8101329873091598 2.9260982029781153 1.8082871923496726
Ni 4.2166780724101915 1.410369108416387 8.854636577129694 -1.538421633437944 0.7097954508751324 1.750506533895779
Ni 2.253854853852819 5.317267710917621 6.493346344190879 -0.30911987642666117 -0.1824123130940665 0.6054467148537122
Ni 4.93131068266805 0.3317653141190878 5.751806003927915 -2.2808328134655684 1.2742806357148184 1.0622031914561514
Ni 2.3138701662389267 8.564637323829277 5.147272207095113 -0.3771751773336859 0.5537390020667754 -0.4169560567760497
Ni 3.1482368462973582 0.5740794547137122 12.628368096349245 1.9801368994365445 0.6779068296966518 -0.17971136922313566
Ni 1.2853989898977554 0.6726608144276123 3.4774999778432143 0.7839931172344691 1.4132297354189276 0.38064976614584767
Ni 0.030124424713137837 4.191572840592099 7.925469613245801 0.6806365699229892 0.41158219405864604 0.08357807913297219
Ni 7.800035200849692 6.131709603818837 12.339759871212687 0.43368133995053054 -0.16877903858134805 -0.9009554282548419
Ni 4.5026682731877194 8.434866721707184 3.8702508951462518 0.7685040204599346 1.1536920407957678 -1.9481726878251222
P 3.3474291138123355 7.296911156772829 6.4272915044604195 0.8947904370947106 -0.5392472362085036 1.1989650537009544
Ni 2.622083455203899 0.989613207713168 6.847589598426166 -2.379057695977438 -2.090512301268019 -0.38702301666204314
P 7.769063740998801 3.0568979150315347 8.907358490681974 0.6387864666564225 -0.158603640710243 2.130604027082582
Ni 8.329867727060089 1.132348822501745 2.805893787033505 0.2904138153767256 0.34574087008380455 0.6873777453015646
P 4.091142645976867 2.2789508183280476 6.924374167724358 2.2151760946977075 1.7931583071280344 -2.450927742644863
P 8.171016203031327 1.4848414756700559 13.244742777159153 0.2585257084188773 -0.42754437381485727 -1.2555828021949988
P 5.435509738517117 1.1229795388664217 2.863091827189011 0.6470355940390922 -0.9280139750345309 2.0394671617657454
Ni 3.709893427902118 7.393958771242766 12.768223420975747 -1.5422772597386083 0.2385829467483633 0.23837288762008624
