# total energy = -340890.2758903836 ev
CRYSTAL
PRIMVEC
9.08468835811641 0.00000000000000 0.00000000000000
0.00000000000000 9.08468835811641 0.00000000000000
0.00000000000000 0.00000000000000 13.29635970647333
PRIMCOORD
 96 1
Ni 6.458949963977467 1.8215981159949053 11.37656444769159 0.6656354685284666 0.6088498269979901 0.9844368339089499
Ni 4.611396893354196 0.17785730319487245 5.754743986908518 -0.5266454882840931 -0.8632208898185455 2.092968733228312
Ni 3.0006634787520072 1.8848911397596313 4.867199005691684 -0.03705242476760715 -1.699659883557557 -1.2091759327956855
Ni 3.5348340692991758 4.3169348897247914 5.134163474610156 0.22175636210932775 0.4509565820912105 -1.7579074543455402
Ni 5.013912180270188 4.57170588993406 2.485994080226277 0.7609431773935411 0.1899307329582987 0.1461034513607032
Ni 7.192347770135435 6.220331539662225 2.4298834110744965 0.2698303347984192 -0.3294056232588907 0.7990515542294884
Ni 4.998086653156919 4.401031849820969 11.730979035177828 0.9483097491690893 0.6073243914923993 0.1885071131378947
Ni 5.650830596105006 8.103187709230482 12.10818347186978 1.3007398583476113 -0.6628666475340778 1.2613904100157114
Ni 1.8362698876871735 6.642551515618792 0.44370617238343035 0.12900432978657136 -0.6047003236059909 -0.4060874894926619
Ni 2.6261290319674 1.5146174118132123 0.02128088247005464 1.13522920610489 -0.11613981511907741 2.661141394221914
Ni 0.6997317680544344 -0.10197653524636513 4.920849541237106 0.21020593826756698 -0.4106152021596864 -0.057555686927281524
Ni 8.637821618883722 2.2736794625722068 1.6796489519894193 0.2413473968673779 0.5948360292174014 -0.8566437508216602
Ni 6.869677809165787 0.7943624242974755 4.8635687642252865 0.628756079003614 0.30775153532422483 -0.8840614807129807
Ni 0.6514902559551882 7.163731001819246 2.3026369067016836 -0.7723835580199987 0.6152246201760825 1.6572482513605655
Ni 7.907485352701169 3.914855667849808 3.682187714406662 -1.440795817962654 -0.2890177063601474 0.08560899352007191
Ni 7.6969295307125005 3.8961684639049188 12.569327703549376 0.4241453754356373 -0.05672213528239264 0.9964683111521871
Ni 7.848371285579442 8.977943266182068 6.8471868462069345 1.261851151702214 -0.11782877278572611 0.9115198340342495
Ni 6.945371432534195 0.760695477725106 0.3324141976985192 -0.7164072997646952 -0.4531998695994324 0.09522363379170051
Ni 1.8295381336166034 6.409329396186031 9.607071561753036 -0.07999113311266225 0.663698913627386 -1.455601772627235
Ni 0.14034480804210847 4.8219163765894475 1.7107758196979137 0.305704422987209 -0.6718603663922558 -1.0378229628395739
Ni 6.205096517291986 2.0378772916468115 6.827641139212559 1.182978191354395 0.7351192743519017 -0.23615068315778684
Ni 3.3280665623542696 4.4442567970109454 0.4920076434258152 0.1612387643402449 -0.3672509762414385 -0.32785267694947406
Ni 6.086196116110311 5.7596379085250025 4.792965291741819 -0.8920941212094701 -0.2984171452971764 0.20254327951598666
Ni 5.254874454180851 2.848867421039246 9.356980992983926 -0.05642080199188993 0.8889512047051142 -0.23348882005490756
P 0.3218205426085167 5.438185295794837 12.359405084339006 -0.5945328961546857 0.9017884656790985 1.1935292273973637
P 4.249989821241618 6.2481125166498135 12.702212165514895 -0.6511125923219432 0.2945504632529185 -0.1701275821894425
P 2.248342266751937 8.540451929101845 1.485761716193304 0.8873530069800588 0.3645060665064497 -1.56072723891368
P 6.347517176623064 7.764946592421485 5.983109431947046 -1.0443795330111691 -0.6007086859480945 -0.3231190189192306
P 4.772350316928137 1.0642167325814644 12.509175256548748 -0.7228543409416196 0.14915457948220118 1.6217140630096976
P 4.040896634077999 5.7863105535333625 8.19055788254073 -0.022449330142451658 1.0127973873295137 2.5111450355647076
P 4.842247909126473 1.0301764053177314 3.8919377245383004 0.2916255762966397 0.7533260271679155 -0.414537420032228
P 0.18065357027034004 5.619506590659222 3.7933715813001565 0.42926547027102196 0.23750488319283608 0.19083498994012293
Ni 1.4379698961675982 1.1592062340145024 2.732854133816582 1.9120222060464942 -0.19342306238227333 -0.6870152197558232
Ni 2.0012750822671532 6.247040523424 4.935901052902587 -0.5157031303399764 0.5798400700292013 -0.7959667446565775
Ni 6.032442015117649 5.697226099530649 9.115452742988785 0.6658828086525822 -1.6163373720788161 1.473767130682352
Ni 8.646651935964147 2.2407747213527673 10.21120515425469 0.484848606852965 0.5971723906600619 -0.11175531289813657
Ni 2.2277563629409896 5.355260260496371 7.145277274365064 -0.23548553876996217 -0.9337436784294564 0.3956958618456927
Ni 0.6640343936348686 0.055627363731329156 9.260688747240875 0.3553889346965299 1.0085218998826115 -0.4376902039996075
Ni 1.4434570479336228 0.9671286681385727 11.433153879919645 -0.00018229121413516992 0.44650523118807617 -0.5747140616565457
Ni 4.0081463325605835 6.788778659370339 1.6569390480412263 1.224447257132459 1.0484603879487622 -0.4937759912495819
Ni 5.479829507211158 7.586895785364667 8.023462301170417 0.3247406136830536 2.0606242554593353 0.21474804911229464
Ni 5.690657869850457 3.151741846084775 4.5113753830416865 -1.5897616784728168 -0.5642478720178992 -0.5254134156492047
Ni 0.7277725671289575 7.288136724143655 6.6963256029258345 -0.6519518003937869 0.8413145766637576 0.6601294511085728
Ni 4.904169144949693 4.4200006791048425 6.909386981962633 2.698229557323463 0.39301702946194894 0.23653737707324426
Ni 8.252485477645799 7.526019288702195 8.9660813885978 -0.7345924553141542 -1.019848123528708 0.12969929897106697
Ni 4.679332192867992 0.5216655170274119 10.446790201128415 -0.9561899232481146 -1.1561348459093057 -1.7895453929657954
Ni 7.972686161020308 7.231357421928995 4.672314271114261 1.5735734987487286 0.45154587893577713 -0.3727798764794677
Ni 7.602712227789582 6.081617433179722 6.9756961222610006 -1.8796648727617111 0.6335907813880959 0.6097101181157565
Ni 2.524453199905564 5.313361677806129 2.655735122845377 -1.095193530339243 -0.9511461901766198 0.43482548085730277
Ni 2.33957979189463 5.564598734245557 11.691741357706574 0.7955502259444492 -0.8852765840670044 0.5450910965837903
Ni 1.0897356221688215 3.362270414008381 3.936094760753433 0.7503656589880109 0.1978150208023819 -0.26001489136989414
Ni 3.8378084259166028 2.3843854748582625 2.540548542262958 -0.886907434802208 1.9786088928277925 0.019915250866688283
Ni 0.9496678971215204 3.355938386225402 8.061503525185403 0.03743783313148391 0.7802603896649144 0.7969309083420598
Ni 3.682260391913497 2.580687420818963 7.068610680873906 0.33691478715174233 -0.7250870869268803 -0.17028647636480995
Ni 3.964158271548842 6.854560887744157 6.318536112303866 0.660365735489095 -0.019237508073373318 -1.333844354211064
Ni 0.8553406694695143 7.534858690470974 11.677022345634864 -0.1863201327889049 0.10152155098527033 -0.4717894596761616
P 0.3315820402452611 5.760918849582966 8.189812938095674 -0.9412680118309596 -1.2844269801202008 -0.00737315253561956
P 8.594505824810202 1.7021708028886777 7.847484619996058 -0.8643166939858856 -0.4906094205961421 1.8058351312647545
P 1.66506893564953 3.093836042514176 10.379417243823754 -0.12231277669900871 -0.0023795559757700956 -0.18136690254868765
P 4.053342657123452 6.260504031565142 3.9870598624213116 0.24401851594163784 -0.4696978672544556 -0.7027652835012284
P 6.823327729181916 3.806847808004993 10.630306356699212 -0.010460533211691662 1.5561653305746104 -2.3800460280326363
P 6.479117972124114 7.817574192058211 10.152129242824051 -0.36884608864270024 -0.2983379553198087 -0.2985397869179697
P 2.4773127520348646 8.448678407346247 6.0730723753136235 -0.33261693110733687 0.4550160968725647 -1.3466463910717388
P 7.104226293098283 3.955573241053985 1.5182185822768748 -1.4573506369975417 0.5000176012839196 0.379920601289307
Ni 5.253529920304408 2.72712351240266 0.531520586954206 0.07004122098880196 0.5630224842512304 -0.5287216540868314
Ni 1.5005179754872677 1.1875595463684152 7.094392117954704 0.2652928519393818 -0.4418751886152325 -0.8518589278385071
Ni 6.92282323603871 0.8315115319160657 9.192558126927459 0.2434032509551421 -0.8810139521359086 -0.6622917488672141
Ni 2.9117062103862548 1.8275122481135844 9.045539706820248 -0.6319529886743568 -0.47142024926220105 1.5535721159261373
Ni 6.34313835683627 1.9285975754323883 2.5493379782457875 0.7335575862917366 0.09968706887969284 -0.12422567745100542
Ni 4.138575203263923 6.982291606006256 10.40156934790699 0.4166904618194888 -0.317215251840286 -0.33937687553898976
Ni 8.132040679443884 7.220819183437955 0.32679895182669816 0.36174984391755116 0.25154722021851517 -0.05491824930443445
Ni 7.492206078647321 3.808900947573075 8.253475708676422 0.14375526284350082 -0.3451911682279216 -0.16969923640277226
Ni 3.3461269228027084 8.375156024494528 12.536711855419604 -1.0323316007076997 -0.41132199841872386 0.14703007694003065
Ni -0.15495571232240254 4.807108334571864 10.226815374253963 0.5467026640452843 -0.6637660194198955 -0.5231097072166926
Ni 8.723935379794565 2.249841240330404 5.761671970247542 -0.26147682062740124 0.39522200753306774 -0.24061874623146945
Ni 3.574597750226147 2.6154272690859806 11.38217605968807 -0.4518567253079766 -0.2540995543267237 0.30991666129634365
Ni 1.0983297373520324 3.242134495210514 12.734934304498413 0.3428031276117193 1.3271291469744175 0.005937448530357517
Ni 3.0148810160265582 8.64200057552672 8.13000570925251 1.2765360074078984 -0.4770059708800946 0.5779315401525789
Ni 5.8588245359777495 8.08727133523367 3.7332454798957553 -1.5592074598350436 -1.0166134186414943 -0.6505742033199698
Ni 2.7391516397838136 8.21055055620214 3.4570000933544844 0.9227905218520625 -0.25932429306077276 1.9890403725737615
Ni 3.3311190176413294 4.484474712355634 9.8996712042698 0.47213604438230306 -0.08568946904902017 -1.6465771447999642
Ni 7.477979456684416 6.220349709038933 11.465517173713167 -0.5589524279469147 0.4396421855196558 -0.4058018399314431
Ni 0.4841412117797873 9.078946831305684 0.42474915319441736 -0.0753070973734316 0.8722125517941948 -0.47348921597608784
Ni 4.3908297447990385 0.3149288980229102 1.8815815877921434 0.30326264631493577 -1.604150085984005 -1.5664628558458764
Ni 6.22761745972241 5.861922414706581 0.2551171268355694 -1.1732041426867665 -0.6465609683955188 0.3130860601632608
Ni 8.105259018175273 9.014845270277421 11.388251899259458 -0.30745817245352214 -0.3543090713687898 -0.1276457588761479
Ni 9.063748147688864 4.7003905004733655 5.94177046605943 1.3153383249870767 -0.49720018643978237 -0.6949342174925839
Ni 7.979145374440247 8.929222082537713 2.402732002989864 -0.06516692361563615 -0.643242445545247 0.1140021999507843
P 8.73360148820359 1.3326783581407322 3.7421275796997993 -1.692618403329743 1.432501696274662 0.3778493205825751
P 1.9302419040245247 3.196129633384108 1.7848505516015774 -0.332415356619492 0.16241915780159125 -0.5873119529262144
P 5.004981931617866 1.0379801526141144 8.168126878525017 -1.9516153949580841 -1.183379797668188 0.3883188526553313
P 8.630481190693413 1.804055582782664 12.537802018022125 -0.7765438600452755 -1.673447743938563 0.22618662996653946
P 6.104856065990137 7.95391719488023 1.4968241412023908 1.0101915742755505 -0.42178124607883494 -0.723904893693321
P 1.9274801587648036 3.244787224209983 6.0106060581891425 -2.132955300923578 0.9531313389274487 0.9150666708452434
P 6.912966349174244 3.9844443806440957 5.9204568787113 1.356880152984605 1.002028578848784 1.1596837396028286
P 2.4480691402222257 8.429091819254277 10.275440260201764 0.08846883156637021 0.2953446770194397 0.8638492674311639
