# total energy = -340859.9567128704 ev
CRYSTAL
PRIMVEC
9.33490643381847 0.00000000000000 0.00000000000000
0.00000000000000 9.33490643381847 0.00000000000000
0.00000000000000 0.00000000000000 13.66257915269426
PRIMCOORD
 96 1
Ni 3.6387092617274774 3.9659444133705333 7.512520013717705 -0.8390615189635227 0.6846642030251434 1.1005622508503239
Ni 8.429598043119697 4.465352582754412 8.501553370345341 2.7718541247881485 -0.06735698928841947 -1.384331050106706
Ni 6.547783552046466 3.1062928625273143 12.604699440777754 0.5425107374511238 1.2768946762988977 -0.6148605519684444
Ni 6.538663348276526 0.6383358506802114 12.449642907819493 0.04200668344908894 -2.1379465834905824 2.7163098118639413
Ni 1.0703870678405658 8.667880869559308 11.427108438305916 1.7158498630538577 1.624870606360808 -0.46430394993239393
Ni 1.5201055292741952 8.748366434456369 4.154189339842888 0.18225727557344096 0.9460865162655256 -1.1357562822529537
Ni 9.084665780429631 2.4922893794486662 1.5984263293255545 -0.7030833289622794 -0.775225141233852 -3.17521341671637
Ni 4.82483983677735 3.0539800458162123 5.960655265133283 1.5649338207958596 0.36702677604577433 -2.0374809845736523
Ni 3.5204733344500294 3.70014228220852 3.225844078147838 -0.5118611308860668 0.7769063855910169 0.9247851836845881
Ni 4.097202535386024 8.108141198675813 12.965418902474829 -0.6155372663204948 1.619711430757372 0.9771518702117624
Ni 4.5045311858480055 6.187418816801038 3.751143544539196 -1.6291944305471426 -1.8542968263105677 0.6330518781654904
Ni 1.3594517863052322 7.516382798077993 9.215040820278658 0.9762347577141317 -0.671936728156146 0.44351940908687487
Ni 7.049749485844842 5.4062458259310935 11.735376926673881 0.3277873709291774 0.5362693845271023 -0.0418066516231409
Ni 1.799349925972252 3.441303991386707 1.6197257857655476 1.1452148565626923 0.22701606784637032 -0.7074117811343043
Ni 0.5751656040767675 1.3241751741797405 12.32643427578437 -0.5220213592485202 2.129810070426377 -0.6720933083386683
Ni 1.2215938853078094 4.886328866698126 12.816988286237043 2.3345881528101535 -1.1286278987382885 0.6667065901054583
Ni 4.363042006174527 2.946581945127199 13.08011596665178 -2.6632227022309745 -1.8633090571115072 -1.5932925744442108
Ni 3.448706572338153 7.250748695235179 8.006162011281019 -1.1544870258932374 -0.8688030118920134 -1.5599841901000682
Ni 3.309989859931483 6.1957828931345755 1.6739942654140116 -0.30530770176942257 1.2589692021687284 0.0039780108111415365
Ni 1.8049975444787147 5.081316396223734 8.541558112675004 -0.6928557376970004 0.3307158574298821 1.0709912220614264
Ni 4.276143360427979 5.645023402421686 9.381587689798248 -0.49479800475619307 -0.9422085213673579 0.6713206918387019
Ni 2.1127600809077522 7.117754280587951 5.639078933884636 1.3125625620141523 -0.0049750846170882055 -0.08581725287613606
Ni 3.8395777824251036 7.66859778546044 10.655445850302725 -1.5995732652466 -0.09747977681572889 -1.526922631659409
Ni 7.8899284214740435 8.068075779453107 12.133736598853202 -0.6951273073399964 -0.3982679934482431 0.6470636190635501
P 8.817734125566327 0.3338713367608154 4.488594633262496 0.6308150184151716 0.20872498284666632 -0.3957789084778022
P 2.2901046369173024 5.546185411105279 10.978865825609265 -0.2337706129613845 0.6638390387496761 -1.7880199574602045
P 7.900784917875722 6.3848334220484295 9.50441452415252 2.8165702367486007 -1.5491531609228353 2.645646383910108
P 6.622556154090708 4.528232513761904 0.5003360591021304 -0.006035921781434766 0.8468900138690061 1.1897180811813897
P 8.02929857734427 2.5788893081833013 11.193177545333597 1.1111541674335574 -0.09327319493354903 -0.4822425366886856
P 4.7140064904513475 2.73310196558291 9.142219213718466 0.15883349733286192 -0.38893463186245925 -1.8436403750379862
P 8.938051737020537 1.1499204722621559 8.295303275979988 1.6008487895249142 -0.16865973939466436 0.24890001240365522
P 5.342180361782575 2.845746283793629 3.82020785118393 1.2550097033003482 -0.5787198403818291 -0.5999923766073603
Ni 7.634058630958106 6.301911446522962 6.285251438674228 0.3738990776855754 0.654813181101982 0.20609011632698054
Ni 0.11500698307681119 5.305074107959122 1.5729588370787257 0.9973738536855921 0.09344674439693584 -0.11359262321719146
Ni 9.404451676588131 4.375513441421855 10.853744471207245 -0.8948017499486202 -1.3949769598563266 -0.9773968963430328
Ni 8.301429775196171 4.083582906624158 5.724388778524076 1.8037772202944613 -1.2696683337537877 -1.7823457898935628
Ni 8.62258790262814 8.283497419574825 8.529671042582228 -1.6005004050465599 -0.3777747585908978 1.8667903307918883
Ni 7.555897457809987 2.088218611397851 6.903550845780437 -0.4054403428269663 0.10282381473646161 -0.3339240799545346
Ni 1.9053477906679275 5.492575042373683 3.486239431394243 -1.6359237788511762 0.24013537883714775 0.2795408772179637
Ni 1.2656173049383515 1.2426067601144997 5.759979977002737 -0.8717389545918857 0.539896182646412 -0.5309117197596146
Ni 6.428912851118705 4.444199684348388 9.228484952796025 -2.3755630525606186 -0.7054281750453721 0.507594642300229
Ni 5.604799289786401 0.64994287357432 2.7169675129770092 -1.8912325229946525 -0.2902369234792292 -0.9590621025895871
Ni 8.0173965714009 8.132337276640692 1.0026800566187073 -0.310431139038917 -1.0632732845918786 -0.17679033892159873
Ni 4.614356362258804 8.514069613144457 4.539911415437004 -0.9176097489820713 0.5650842518762655 1.4801581218103605
Ni 9.540647964206794 6.696824671177348 11.241939363565594 -0.8058744906885928 -2.0320479864835392 -1.4583680225184625
Ni 6.445930385891071 1.198723364083291 4.825554890624614 0.39771649182014734 -0.024092522172829475 0.669839222197169
Ni 6.4017109332214615 4.817689298304705 4.307251003255972 -0.8960163390820116 -1.0448356467119813 2.0098197712129577
Ni 3.515656522632947 8.454671602307066 2.4416941855560585 -0.45803277221170147 0.7454062581002066 -0.7389610166954951
Ni 5.061545063997802 1.16663929002261 7.236098492782217 1.2741775344780506 1.6786621982599672 -0.8629336975954299
Ni 6.6861175332816245 1.9916863420171393 0.9287475961704686 1.4736018087490816 -2.6371972247014903 -0.9984853415822159
Ni 0.8938182425713249 5.224793911007752 6.167697893070867 0.365870293843828 0.22830650452301973 0.7057405640794684
Ni 6.272478485943001 6.931737596326328 8.597738381199706 -2.57627236419166 0.18600902930638932 -2.5080378573942936
Ni 3.731320870326843 0.8325523169188205 11.517800790103747 -0.30319656896369074 0.23148078848594325 -0.11567238856435562
Ni 6.132202844130415 8.377079858462904 6.217157028827546 -0.2408930829387787 -0.05701626948404373 1.9838248898110933
Ni 1.8571796724971052 7.095033117869389 12.976772949399475 0.44611108107345104 0.7168551859353912 1.008976728031843
Ni 5.862041311575809 1.772241357141231 10.897273140786808 -0.7947436708827539 1.0772022359681448 -3.7168736332417405
P -0.35665410986308443 4.533777448295522 3.6780344228550397 0.9735952632087553 0.3864992829480892 0.12173299293613873
P 8.903615266491048 6.440152078691897 13.29845756556494 -0.20142047876545313 -0.2902839746670807 0.6161329909229647
P 5.494983448282224 7.05981251518363 11.701657376972982 3.1272052642682078 0.2538588990708273 0.46095740205766417
P 2.321497927887937 1.2597829882994438 2.28244347905242 0.3077903589819603 0.9047951137159064 0.5316005182965232
P 3.509224771970215 4.564442616549621 0.5436220211095145 -0.45119595179552613 -1.6134487376771116 -0.24127206354475222
P 3.238055069500407 5.2552350415029165 5.2201432605285465 -0.16544997420811505 -1.2263542443471847 1.4342382193497945
P 2.227019337964121 2.797130090104939 11.776829513020655 0.4589601691219773 -0.3157929175714626 0.050569485417435486
P 0.18239660747351313 7.015686411580244 7.1227671254441 1.2889868315767414 -0.5586112425574121 -0.6854316773187873
Ni -0.03860543982698682 7.235075387016418 2.9093235323258035 0.5578273132035361 0.8524672508464675 0.8772259458483861
Ni 4.9684480402540805 3.1652988072865718 1.4748620373481247 0.09134692444511365 1.214242291574999 2.4902684492260145
Ni 8.717197181244668 3.8934868681686106 13.559577307565231 -1.9024772426705363 -0.41800480975553816 -1.362494670957905
Ni 6.959630297313618 1.0269517473272256 8.953238696604279 -1.9402611462875292 0.9377327449841915 -1.4856813656214347
Ni 5.462787355342076 6.5851231785354765 0.40003342093669114 1.6633952447985674 -0.7699582364079578 1.0084522229869408
Ni 8.416426489875697 9.160698594867878 6.46287790886377 -0.496383604075758 0.15505731811988135 -0.8699047295966245
Ni 8.488837360544508 0.3672370935007319 10.500949411741798 0.7748099080733043 1.5532376154048542 0.5937250555414096
Ni 2.457404833401309 0.9812573794113004 -0.08531731256473758 1.290295523085836 0.38283340406072774 0.8620150424359027
Ni 3.9884695430500283 5.715679310645514 12.395211067305139 -1.0324233890905574 -1.0130385568060425 -0.544650666612262
Ni 6.421911671152015 8.578760516036667 10.198528308882015 -0.6551661935660266 -0.9417552358800233 1.9233335172942552
Ni 7.435523836916043 5.8804497474348905 2.6996167220382286 -0.971406483087553 1.851080376255799 -1.328543253713125
Ni 1.8143231161943447 3.3549000956911392 5.129833639902229 1.230469552067139 0.9190665360332559 -0.35194442779135515
Ni 4.624652764263148 3.7396756117537593 10.952511517233324 -0.6976899258608501 1.019715968826218 0.19703751920640905
Ni 7.852840837463835 0.5754279149528527 2.619021005243026 0.7015391244036111 0.14024082193233914 0.3328946102487557
Ni 5.338586422733009 5.953075320956014 6.278597517233886 -1.4762847548978832 -0.7752328545433358 0.28077757783854224
Ni 0.4195349743612385 2.164942208926143 3.5413265823534785 0.9394016480461821 -0.6534574384050359 2.437183653585893
Ni 2.6885371213682774 1.6008711413699226 7.734468620549701 0.7842229738570882 -0.19538352854275384 0.6521214932024317
Ni 7.406865673585728 3.5568514655569468 2.5128075042043765 -1.6728985563033125 -0.2798843766003115 0.5658167591669159
Ni 7.3515936914753715 7.870791862898426 4.240632442146269 0.7979760617771224 0.5366067132618628 0.5664495076549083
Ni 4.788713748149233 8.845505472767528 8.519110462720473 0.20788397500260972 -0.18122369210260403 1.857612520947362
Ni 3.4860742035470293 1.3297574483398473 4.260088254528368 -0.3105679217270974 0.2093888416829104 -0.09903503711799072
Ni 1.4070038006389856 8.810462233307591 7.086943487790545 0.2584778859000774 -0.3468891247556348 1.6517805433777748
Ni 0.6142209864029469 0.36092202917077826 1.302919591800872 1.2382623086386804 -2.0580181852950554 1.1041617952761242
Ni 1.378607014694094 2.665517241637803 9.517612215135062 -0.5856795595291139 -0.2628479899433151 0.2953279648488914
P 1.190172589617308 3.16487873648857 7.291377009327209 0.24856139811731387 0.9706737186865863 -0.10559109306895362
P 1.5275454498521304 7.531327983580218 1.551126357470602 0.5571428855420019 0.2338639440061392 -0.04146649467490278
P 5.711609291358212 7.554179834991492 2.996162434669968 1.5320123874774905 1.4348221168777224 -3.3456379613209415
P 8.405196597209128 0.7064946713825869 -0.01886677977423423 -2.310671494093556 -0.05923050352654315 0.09430626418375371
P 6.68059126856125 4.075078806691286 6.915000108752629 -2.6069901049904907 0.9512531480681294 1.3488878788077479
P 2.5892697243472456 9.266173704792706 9.859505037156376 -0.3754065154690373 0.7078987480730519 -0.841565516332299
P 3.4877171471125457 9.203947217248773 6.4803799252898315 -0.09128778907240408 -0.6456803655627783 -0.7805802348981783
P 4.572339947552046 0.4569380782152792 0.5377232936149133 0.9361476598852588 0.9169672303020658 0.4534145567133998
