# total energy = -340893.6469651906 ev
CRYSTAL
PRIMVEC
9.04890364826763 0.00000000000000 0.00000000000000

0.00000000000000 9.04890364826763 0.00000000000000

0.00000000000000 0.00000000000000 13.24398516644129

PRIMCOORD
 96 1
Ni 6.397122544227294 2.022058995134715 11.368120656029303 -0.41759240480846793 -0.1940547824290013 0.28035386003756235
Ni 4.772581893201647 0.2899087800720759 5.922564547802239 -1.5766896757802071 -0.7124953663047987 0.46281476698137713
Ni 2.925040056830588 1.614767834917344 4.812268575505164 -0.29473326868768596 -0.15923664630855155 0.6804812752920474
Ni 3.52813139755859 4.158858090503962 4.656598473584447 0.09990946930314407 1.12160467334292 -0.10666761396258403
Ni 5.1375151347125625 4.851732654775104 2.320876421001814 -1.6749772932092122 -1.4757281110634648 0.47353909537741673
Ni 7.110384288768815 6.147427092660128 2.4339397593614676 1.475936370419529 0.828297081358167 0.9055003673130468
Ni 5.325895214103925 4.597078403923354 11.553496499357742 -1.578232851897611 -1.2549022311882065 -0.37849672435858683
Ni 5.669436847022221 7.985377090998961 12.39397316291797 -0.1552637777037326 0.3522784140920062 0.467821219057033
Ni 1.8375880421866742 6.234106542198502 0.3020343111694159 -0.05738110902263021 0.8922494158404117 0.6164878031592221
Ni 2.5781684273124257 1.5779387964351246 0.19651594880152565 0.31613230318875235 -0.28881150388661225 1.68616262040207
Ni 0.5632779737712277 -0.016065423813595214 4.873733254593733 -0.11625320076849012 -0.6036651974732572 0.5335324452119133
Ni 8.600711598573756 2.3615467191488255 1.7694099813659285 0.21363990364978047 0.006757116218175459 -0.4281185011507724
Ni 6.855766233532281 0.5382686134377737 4.9515954522655035 -0.24768182372583794 0.08704675440786298 -0.9136983297428071
Ni 0.6284373202829638 7.156153644209371 2.396379569451886 0.9205104675686341 0.5166526387374393 -0.4427272522028827
Ni 7.711602506409392 3.8601990204534324 3.825206909443422 0.33881380394666816 0.2938498376414681 -0.10744485844824075
Ni 7.465454225133387 3.810321462685866 12.640828163581062 1.1652866876119026 -0.04583531316655977 0.8010804117340591
Ni 7.878735759668997 8.909840250325495 7.102868269269225 0.6296724201702962 -1.345565242192418 -0.5832095007220666
Ni 6.954752192244074 0.9438640090822779 0.4846620024125852 0.48591330067205346 -0.50555704304491 -0.36487347714819746
Ni 1.9084409589718778 6.315058035628953 9.306349641660418 0.8036402020414353 0.603161261253645 -0.4883005699573075
Ni 0.10625222846639351 4.864229190928408 1.6569284875208716 -0.2344126174207576 -0.9134905846073751 -1.054062564626888
Ni 6.466066142309857 1.7601475234321693 7.107027145457536 -0.2822189382707591 1.0179529633885243 0.13724214431533138
Ni 3.120586868034707 4.067599895640772 0.4278005006891034 0.5133323161149547 -0.16886645608883175 -0.3125155323717715
Ni 5.9768009625321845 5.598864446254941 4.591318776652118 -0.4857451505253054 0.8290154475814303 0.37356689115713726
Ni 5.199554419192684 2.747138608044241 9.092181091318079 0.8651021660016586 0.19021072609256273 0.7828808580068968
P 0.14262882175841377 5.621450510149687 12.369577318262426 0.09974414736987339 -0.8130257570213932 -0.4153622299263685
P 4.014880982078754 5.9468038464219735 12.781823658202859 -0.45286871151225877 0.47255744819043777 0.36708102632247747
P 2.2125293713047984 8.389998824594157 1.4847034160907637 0.8680267958476212 0.5728500118646134 -0.07009804236866637
P 6.193160252485469 7.701187218131005 6.064248664003516 0.5269550491047118 -0.6119585478303009 -2.4299200300449444
P 4.635273826879976 1.120951056526267 12.461703303000416 0.021008483930867045 0.2688618002375628 0.8852704134194173
P 3.9379833975524887 6.040107093544864 8.253095244272524 0.5449774538240614 0.7342702960880451 -0.5062113887994573
P 4.755642345280586 1.0780502035915736 3.7094813835846363 -0.27356486214018694 -0.4540550185108761 0.23937330386014258
P 0.06280572663231966 5.6454029585188366 3.6800534435236965 -0.21739088605178045 -0.4715025245633621 1.3552619006548918
Ni 1.4079189428620478 1.0588936742385369 3.0225021801417906 0.17013272439576504 0.21225073661173768 -2.3703745663811433
Ni 1.804188538246165 6.401637947225483 4.793806097073894 0.35749698217846815 0.08404370591548108 -0.7279821490864882
Ni 5.910698720244072 5.7001488265329465 9.186081566092033 0.11476736025158298 -0.4918026695732949 0.565683061802529
Ni 8.663782458087532 2.637891192418728 10.437359459655195 -0.030512566766560355 -1.2733146722571231 -0.9564624601832109
Ni 2.469943537816764 5.099799303657553 6.859536911747401 -0.05752586213061061 1.207218294848682 0.7896821971994464
Ni 0.6882867700425217 0.01719653678909336 9.10310764266139 0.15160741189806795 0.16366794260702783 0.2649778918021243
Ni 1.645307885255794 0.9019404377584147 11.463980218476818 -0.9073762441795211 0.6669022510560321 -1.2566690932806421
Ni 4.124200788934699 7.079753749392324 1.448375686879285 -0.413663759178023 0.41202905178807747 -0.27399629325065067
Ni 5.744226036962158 7.879640650049395 8.092181302597398 -1.306415311465834 0.8210357718100634 1.0419621818189282
Ni 5.435513634785401 2.77327184223015 5.077491945999968 -1.0866728944627415 -0.9097946238130267 -0.5217765902275658
Ni 0.7415232809021269 7.4711550345298985 6.8213813039675175 0.25452507189991647 -0.09751628648061915 0.3563027047600509
Ni 5.083049782716376 4.376303248913725 7.132852716914109 0.0320508577879577 0.23164559619858172 -0.32035971100653865
Ni 8.194750627215571 7.335502917604357 9.0717061366808 -0.626416889347476 -0.3882908276308732 0.4837371189563411
Ni 4.622361041151689 0.3652255211037854 10.417335140427356 -0.0014225913791394854 -0.8452427080735702 -0.46714656158751156
Ni 7.904814700432081 7.342479622437229 4.731254644638465 0.23828958387766055 -0.7406139789178858 0.05772023752960381
Ni 7.127939162148546 6.045654071576707 7.0564618710008675 -0.3300517414833219 0.25680126952860294 -0.1810365157924624
Ni 2.4251514639870373 5.126348787418445 2.4471312513269172 -0.19766255438491767 0.07834254176564573 0.9200191297545123
Ni 2.4918147383109956 5.220448338076086 11.461251973979918 -1.6084075757087783 -1.2005010307295068 -0.378399022438458
Ni 1.0627213605476227 3.3162422660844735 3.888937434044509 -0.036714838922530316 0.7147257982972142 -0.05759785301912661
Ni 3.683844934217566 2.761444924958341 2.667139964184349 -0.10775750459265312 -0.189603431525867 -0.6791317032426885
Ni 1.0803576740615897 3.47944829509315 7.9970628453714285 0.4926223372611129 -0.7196697725660509 0.7543709234926621
Ni 3.7509606537317235 2.316446982589764 7.093597667322041 -0.7154439074101614 1.659163466105407 -1.253727494153815
Ni 4.043538860425975 6.6455330514542945 5.828386271681502 0.6903414559155788 0.9986822880843702 0.2769615465265617
Ni 0.6226233995889036 7.5907001026843455 11.156733738716309 0.5869080326195764 -1.3457426483105468 0.5828420900803188
P 0.21862694524656337 5.759183874950145 8.058249723113216 -0.31000433591414356 -1.024566354939984 -0.5682600785010858
P 8.59179842832683 1.6278435009141026 8.021008054617534 0.4779693632346284 1.4122393464812002 0.17384359758844897
P 1.7049582591316639 3.0444493914279764 10.223879530892338 1.2015739520787112 0.6572480157957197 0.5829516190749895
P 3.971355754781586 6.211701456379835 3.5395474945976972 -0.26354398756907516 0.11087291029318323 1.378400029334252
P 6.8772935756819615 3.878070605466303 10.22660777538924 -0.11205253242358122 0.6377683098045532 -0.6036754818859023
P 6.369668170086003 7.783269824536953 10.227773274199194 0.022401764733967874 -0.5014659036946719 0.9876034045623894
P 2.533141081983796 8.437514618468883 5.830161666607844 -0.6274934102411065 0.08310525326161171 0.1947178699342969
P 7.035694636770721 4.060976098056255 1.6855483604721158 -0.3361977064800597 -0.5378279872634737 -1.4183385174004024
Ni 5.3491780435915794 2.9134122154424675 0.4441518698629046 -0.11256546750425775 0.7039027395397813 -0.23609926109456114
Ni 1.4860652761132636 1.0271320218865492 6.956416285653627 -0.11311028426413423 0.46980071138090707 -0.1909092948214841
Ni 7.122998460671569 0.7690645245199362 9.344969458205446 -0.6875790626790932 -0.38003013028397775 0.16938324782425024
Ni 2.6893704061595995 1.4323600320366114 9.047932856606971 0.06986072954687969 0.2185712795131268 1.3557272703270846
Ni 6.333707826368966 2.163601948436651 2.7021040235925673 0.242177348967841 -0.29442139387422195 0.1534454935480712
Ni 4.1160296287997005 6.706757934592058 10.721787318693197 0.7841736086763914 1.0895466164661105 -1.1447258327414156
Ni 8.261260070174862 7.234499053344275 0.2093979682568789 -1.2001415905075588 -0.9564359778206497 0.39732594124994797
Ni 7.815538215501965 3.9062579408157165 7.925969227745038 -1.1211840408657334 -0.4672180382553953 0.961355526609454
Ni 3.1477154816390547 8.219951824309668 12.6072142006204 -0.05614646528458073 0.38877933723151753 -0.1486069345088473
Ni -0.0071848296203642 5.01026040051712 10.157461481861468 0.2014467040176982 -0.2656723467659876 -0.05938528393685256
Ni 8.764822517962829 2.5773902215852833 5.904340960431393 -0.16643779204268108 -0.08989630804151616 0.585054010129973
Ni 3.591518968705506 2.849309780895037 11.509274506467666 -0.3050202524359908 -0.40249642970729393 -0.6280438834279377
Ni 0.9515193817004493 3.4248200628284917 12.515990391591664 0.822724472366396 0.976293378866209 0.07890407069607056
Ni 3.1014484364892785 8.273982828923264 7.97999118345483 0.376399475509926 -0.7284282354849714 0.1303194490535691
Ni 5.5020411755523 7.9913946120286115 3.251438541492234 0.2956493527440521 0.3168239299391382 1.5178003576431667
Ni 3.0211756108441263 8.365838251437516 3.7476505647202263 0.7093514213591784 -0.359732042156574 -1.1510317203547855
Ni 3.381095759647635 4.239900072972453 9.311316584958426 -0.1911340092377805 -0.3074034079561867 0.03672769443833675
Ni 7.170288031951197 5.953626719890178 11.459106478887993 0.9283944983024012 1.6503594946605322 -0.8063393461401532
Ni 0.46013766332302475 -0.010999847464124336 0.4118590468576228 0.6862246055337279 1.661513197284506 -0.14455153349255104
Ni 4.7023623996827215 0.7538650808003823 1.4285223919333416 -0.33305324731380703 -1.3931067394168073 0.29494795580165334
Ni 6.003115174794173 5.713468812932414 0.31945707055360895 0.513812855295799 0.3080742087709662 0.10627757761301697
Ni 7.840657972461828 8.914509484688352 11.557668044011379 -0.17822218627211886 0.47640510407130215 0.014652202695536057
Ni -0.049891131123272064 5.144618524198691 5.928511487382218 0.6497000282451326 -0.8512261793505147 -0.8222670731140033
Ni 8.20233360860331 8.82892495251026 2.649790500920968 -1.5093316580505232 1.0501424036368754 -0.02621548205310324
P 8.379438753854906 1.6180435380943867 4.014728960494848 0.8939430014927506 0.2550583186955672 -2.114918498026525
P 1.6474524754573383 3.033527364536566 1.7757930781092597 0.9186986111708759 0.15238079972898275 -1.0359666263571257
P 4.684255543170947 0.8365964936090773 8.2049007826125 1.0333687837229624 -0.29482891372528575 0.09803873464299244
P 8.701027746144733 1.782805978557348 12.45276298604208 -1.3832653278463531 -1.6690179903019837 0.9016917922002342
P 6.4347659840518725 7.936820673186777 1.3414167390258003 0.20347041931594637 0.37976119289330723 -0.9215306813030323
P 1.9175622540062947 3.3784082352178517 5.867562595810476 -0.255057804474935 -1.6525675580554442 0.4460648012165479
P 6.869665349775202 4.051194233044146 5.811633131178804 0.9639623681046818 0.6018227449478797 2.1650850915785873
P 2.5198663401033494 8.27776527071333 10.266167773039504 -0.22005454892687265 0.5025925610999474 0.19420390641235585
