# total energy = -381162.15029150416 ev
CRYSTAL
PRIMVEC
9.27100626221152 0.00000000000000 0.00000000000000
0.00000000000000 9.27100626221152 0.00000000000000
0.00000000000000 0.00000000000000 13.56905479242057
PRIMCOORD
 96 1
Ni 6.980492984904854 8.095971198849119 12.307295242483761 0.34966283084603 -1.3878259506338422 -0.35581265249750976
Ni 2.679571154528122 2.2871109133967242 8.596851223829876 2.610319683584356 -1.482374412735389 1.0155955188999413
Ni 1.2217146757964026 3.7915634700819165 7.870296362091572 -1.1042934357579821 1.3783771465161165 -0.28898016825399264
Ni 8.216485010492015 0.6439956230229312 1.4434623142608556 -1.0215211403557567 1.198300423533762 -0.12094340715530784
Ni 2.6323631901550453 2.2906895218507715 6.319325603906311 -2.5973366410611267 -3.0548042847979775 0.4601619027395623
Ni 0.06755504202617772 6.489936225503322 13.034121744708344 -0.48955809651349236 -0.6306707795278235 1.02177927911315
Ni 2.774033438306063 1.3587957758003912 3.2204119982121937 0.3388228028077326 1.5152202556208165 -1.5495696796349636
Ni 7.962292558178382 1.7892022459535881 4.064013315215639 0.737633299023007 -0.9477957856471484 1.9319742236883888
Ni 8.20023293634708 4.094150575582402 4.285473552483005 -0.9936059020027275 0.13941421226598572 0.12367777536733537
Ni 1.5147155607230938 7.9412751867656235 11.910265322318685 0.04493054196410327 -1.8477505405516177 0.6858479389205995
Ni 0.6779200894867886 1.2239860723540232 8.070086549098603 -0.3471938004802472 0.5073529586030682 -0.01871994500700647
Ni 5.769152565222645 5.858358188395807 8.999227733361401 0.3579831777862673 -0.4144178637352282 0.6260530782501541
Ni 3.719249620492365 7.243502164264596 8.709773008366504 0.5802704726984007 1.2744009633427666 -2.1176973463232436
Ni 4.345960379262122 1.7857163475631175 -0.025108666518382408 -1.2103653251180961 0.5587763073803667 0.8929302439575202
Ni 1.0907709820011682 6.905175329255428 2.4181408275510847 -0.5281418703239614 -0.6648322559008808 0.1245241825280307
Ni 4.846835768739701 7.6035416961633455 10.550346827648383 1.1147812226631832 -0.5149595673057326 1.281886473086534
Ni 4.565998444154227 9.291680701812355 12.12158956833525 0.45073521010902373 -0.8891334959192494 1.1437994642724043
Ni 0.8167459928872841 3.0397404805158774 2.28508334430631 0.26476834689447953 0.11019696727208118 0.15475135684368832
Ni 2.886796688633976 5.903674867471926 6.895047681910348 -0.7670498045119113 -0.9072168357835215 -0.7763973071650823
Ni 0.8881707529671385 8.21552082583082 0.6781565001489083 0.7003767286643937 1.1840451991663286 -0.8368578264439847
Ni 5.801795778607877 1.5661047489634636 3.4466217720365764 -1.6343320088840239 1.1326205648374494 -0.3064505571246142
Ni 0.7460471526052325 0.6833204506901108 5.666274061873242 1.9963063101075553 2.1102480891340494 -0.585777775669875
Ni 4.219012489207028 4.8875725706751485 10.70000033937396 0.8155585507455761 1.165530685301909 -0.3554827799619168
Ni 5.509267715005425 7.166654792566161 4.408436764005587 -2.3745649503134074 -0.6829050542421916 0.6238794676376029
P 7.52143766386013 2.3814990291238045 9.32740930611341 -0.1962931848412168 -0.004621815042727524 0.18719379364310987
Ni 6.6125545555894 8.847441890173567 3.1273144065700964 2.5233287221150933 -2.017685290003964 0.9377671977665527
P 7.201625028547159 6.50938679684164 2.699196947886599 -2.758629398567759 -1.8640585336830218 0.6777116829667102
Ni 1.6543647294881472 4.861391248721187 12.239558488732973 1.1274439057325165 -0.29332584681719803 -0.7573248639146635
P 6.196054594972655 6.055839894819786 11.785592537223753 -0.5726543509140396 0.42069572632414 -0.7649512701116696
P 5.650131385603329 8.69424778112001 7.841339300834135 -0.06380346760920624 0.2042803168117514 0.6079445415749014
P 3.0088216743131655 4.460679811931495 8.840564657657474 0.27049136542118574 0.6585106845582273 1.0463070890511852
Ni 2.243676248611205 9.01481136794795 10.018413566872727 0.3557864272452647 0.2857287511962305 -1.2094363855459236
Ni 8.365349559576556 5.108667530292024 8.273840091323523 -1.8612511461412138 -0.3479440483827105 1.660433333956766
Ni 3.406316071896759 6.8459428696365 12.417558102397019 -0.20035501361541624 -0.5418239957967442 0.20836451418345406
Ni 8.227730741203825 6.3128507330661385 11.072389778841716 0.08573009247896848 1.2097690862949941 -0.1414081027675629
Ni 5.069859097678965 6.361273199272065 6.870473952458801 -0.7156729927018319 0.459947215625595 -0.5755869511798023
Ni 6.117260311939117 8.921647025060077 5.617154415989221 0.26036173318635164 0.5032155393959269 -0.22027926334316902
Ni 3.2993379295360103 2.8481922181607846 10.888433543592889 -0.10779555691944015 -1.1074839176708215 1.4614492325469477
Ni 7.138174261035507 1.1140782919842622 6.926283556530492 1.2174199179720324 1.1186522755828154 1.6882647543467375
Ni 2.196959647575083 0.8235249527359867 12.309412740335844 0.2496024377873185 0.44793553587669954 -0.2498148109084407
Ni 6.024337015216544 3.5803792162613526 1.1505902963225356 -0.2973794480612814 -3.041367185456465 0.706867221484744
Ni 1.3868127570131636 4.936736717389685 0.9022571200269289 -0.5915146781536523 0.9493448753018231 0.13231231111388178
Ni 9.214657180993125 9.12730575909149 10.949589737031026 -1.2758562077320543 0.527889130883207 -2.4996306071672048
Ni 8.994971414342611 0.8288492916871764 12.893044840964215 1.3798650439155526 -0.6841924055950475 1.8333847587482488
Ni 2.2322450977722412 4.184524345556627 5.371731408589276 -0.7682952468832381 1.502653217589083 -0.3514595177351367
Ni 9.09736040855633 5.3424174135870715 6.284507412429578 0.4201969323108505 0.5974040470548937 -2.6791067204510823
Ni 8.438071333445844 4.279904458963974 12.456026289076753 0.020429471498945462 1.160306203678176 1.5172519413388643
Ni 3.367007004940387 6.312424266773688 1.3820085215186373 -2.1727716615895676 -0.5421106737992276 -1.119783303863465
Ni 0.9218161621396312 7.2787412594299665 5.257750875126606 0.17483218675396342 0.41427645306135746 -0.013904011675601862
Ni 2.211209184346768 8.47113174211717 7.228520217990659 -0.4779256544808866 1.239632963733962 0.19460731249836163
Ni 1.1710949810837166 2.139377427087813 10.310555029510065 -0.5880588583945678 -0.5213713843693473 0.30758132829494766
Ni 6.783743687983128 5.437927321083425 0.48842535503991147 0.5793543886420345 2.597606864003378 -1.2142865145493733
Ni 3.9050405878993666 0.1897441245178975 4.771205680176023 1.339534976837938 0.3994584142119185 1.0975882558236647
Ni 4.116688392037813 2.790341138489143 4.727024699378714 -0.714873122508356 0.6813500510502459 -1.9996592857401883
Ni 4.1399308049764025 3.8539388008560835 7.067496744068078 0.550235102678575 0.21611176222904074 -0.23706136789751428
Ni 7.626839735140082 6.636909489290907 4.648717144178952 3.646033570500727 0.7425993847790308 1.7447079249361308
P 1.3758080724666513 2.4795306503494356 4.2651885905724995 -0.7872833579499667 0.21887826923058432 1.7674547317143432
Ni 8.814576172635752 8.682260369899588 7.128028071677711 0.45378736667178615 -1.24013715706389 1.2372552075304046
P 3.1252747851714164 8.776453794493158 0.8403110368471203 0.9366271706248386 -0.7171063827142488 -0.12922595887907423
Ni 7.93740917711449 7.496869497012399 1.2190112503425163 0.789887371231717 2.0933389720835365 -2.2983361124566546
P 0.344402125475326 7.312024172253875 9.79583988174181 0.8407155096271779 0.25200281969869504 -0.4442146353816866
P 6.906417644107352 0.8248386543368635 12.730337752287088 -1.4327354095520228 1.8469337010772773 1.3838304563212038
P 2.157965794834871 2.8624046709070385 12.970075778588532 -1.3332990232305553 -1.3515955075468982 -1.7149170668269431
Ni 0.21772865720841822 9.440665773979548 3.195919853616594 1.2371647046991274 -0.8211095624707923 0.3364471034867044
Ni 0.8172568253375898 5.2246849038514664 3.8332440604645712 -0.03013512882248359 0.09333464429910378 0.3397951940233309
Ni 7.229855242906157 7.691783134675313 9.147184650923531 0.6640321285970886 1.340396296396969 2.015427861428355
Ni 2.3872655950782535 8.451245433480043 3.4469063919317557 0.06626966976151168 -1.2668146663550766 -0.38883950104549164
Ni 6.777995664041393 0.6639737146229985 10.554309255765636 0.2439267275587799 -0.10183496846063107 -0.6239049215588998
Ni 5.039218421666981 5.276435661339784 2.802199682721194 1.5875497584231626 -0.018860584349928808 -0.055024435864995565
Ni 7.1192057820277865 4.471563973395359 10.397492037427515 -0.6497126266506229 -1.9217952262728577 -0.054929047937711854
Ni 7.136134639636827 7.140733058790214 7.031429748034971 0.9487062132765597 -1.1778285288326553 -1.3997797805616086
Ni 5.916932406563343 2.710851529978782 12.228920936038223 0.7494282347754061 0.2558165370178304 -1.2001652446566429
Ni 8.555748217143302 5.096541053976238 1.7022105390986293 0.6579105890803831 -0.9344088228172811 1.474468270514435
Ni 2.507009913193465 6.313240115333159 10.292318032903962 -2.410201211459778 0.050260438817448926 -0.2510936776208643
Ni 4.529943500429384 0.6987205193507781 10.00284940139953 -0.7364313082951058 0.4319183345128368 -1.7098463371722552
Ni 8.482637061006995 2.357783794860975 11.434670112977102 -1.3952312419589776 0.21498356216186848 -1.9544600634957305
Ni 0.3497932156722906 4.615542702129427 10.352497062272004 0.6078530103023596 -0.6277420359168028 -1.0548621777100478
Ni 1.052138698508904 6.476289304144883 7.889021013632087 -1.6271285491570493 0.7688516336073404 1.8527719050256093
Ni 5.129369687488623 7.196451806999599 0.2374759007501804 1.4727633720081863 1.3074774341817612 0.04415946812603363
Ni 1.5929257703561013 1.0895842931873911 1.1275407203161838 0.1423735520046258 0.67112091712307 -0.38777892099146116
Ni 4.575037675352921 7.705735999243554 2.5347812127377605 -0.2655116528184073 2.146233506089723 -0.8139117591707724
Ni 5.619092056317967 0.3369287672504365 1.321597716991653 -0.16080604767820045 0.15663880367438832 -2.0724703561646436
Ni 2.8654826450177735 4.47767356658504 2.8127426711510957 -1.1466050520419995 -1.845523193882996 0.9476181224187035
Ni 3.2928018700538777 3.7931858961945024 0.7151635762266793 2.5375600352231262 0.5085788605903693 0.8614825669712003
Ni 4.704136438882986 1.463725025756102 6.723304143336434 0.3269458488644886 -1.4610931347591096 1.4216421278523388
Ni 6.126892887544699 2.760516311036632 5.506309336876703 2.5791543137251454 0.963044998496735 1.0193272180282313
Ni 3.1512706869982243 6.199466325312265 4.140624276251954 -0.03749953960735477 1.3523023038059356 1.1011494908123616
Ni 4.9347898060545825 4.8797292992965895 12.924049867526053 -1.5995807214457678 -0.6592043681911421 0.42012776963581194
P 6.150107487464218 4.302145603215939 7.549224724115233 1.5007814544876668 -0.044119616027033695 -0.6310510456853776
Ni 6.055014775253957 5.127821429426898 5.1822802478722805 -0.06409760181085734 -2.0516333648146348 0.6054734543265895
P 8.392476524178996 8.903142096370237 5.02270768644467 -1.783520269817638 -1.4883373151870432 -0.6998961894835495
Ni 5.212706763637401 3.0704645955850793 9.491078725250459 0.9904722414697522 -0.2640430386926807 -1.1366623390069908
P 4.403913440003697 2.904671188891496 2.4676007193684306 0.02852150447846056 0.2393797316180458 0.019196884643425005
P 7.976486468911921 2.923491331797494 2.3176217953197007 -1.651103571915408 0.46438262568912925 -1.3173872370963053
P 3.5463824359479057 7.66255165162969 5.810920303065061 0.18243930967726 -0.4256556414325766 -0.9981199878229972
Ni 8.69229159877855 3.0953572476553286 6.530162194988464 -0.5656907751120129 -1.1782108518727388 -0.2609667137602022
