# total energy = -340874.6403390123 ev
CRYSTAL
PRIMVEC
9.17914890485406 0.00000000000000 0.00000000000000

0.00000000000000 9.17914890485406 0.00000000000000

0.00000000000000 0.00000000000000 13.43461226484250

PRIMCOORD
 96 1
Ni 8.191784304142642 3.3093492665992583 9.862926330035597 -0.40540049072796636 0.272389353774847 0.25763045029811754
Ni 6.367988447411727 4.191529701363327 1.23489748105831 -0.8847348526309214 -0.4179675287596995 1.4452134874143756
Ni 7.539357958905295 5.760650080111066 0.08640516162736463 -0.12795351992455384 1.6212872598849237 -0.3709538790143224
Ni 2.9771650578144992 7.7468067173273445 7.0096696812946995 1.2435153295075034 0.09561392725158373 0.022582770396522397
Ni 1.6115922993326428 4.237994551590425 0.9631634733117914 0.9738567444002583 0.36760398870548305 0.42468402154792667
Ni 2.3282726847892086 1.506527764425617 10.969038520367665 -0.9485133805394632 -0.5448514697691584 -0.42651464699876224
Ni 2.8358337067780255 3.8005163291835715 12.398964453873651 0.4904605537231037 0.016828641521564564 -0.546795995090039
Ni 5.837268433498184 6.937527080766282 10.229636988374724 0.4155699750618004 1.2284026422357812 -0.09665008182558193
Ni 8.342395774416492 7.439543896999039 5.551248916781212 -1.8071957590577068 1.0894077768954011 -0.7875661792977081
Ni 6.205847966492829 2.373213796348251 3.037525303196433 -0.4095757051515785 -0.03411879606057995 0.8454568809669053
Ni 5.520440940325818 5.323226932595829 12.040502178468952 -0.6472189136944918 0.8523078424504676 1.4492413776268462
Ni 7.218987314372269 4.632367492158786 7.040139865081514 -0.14464126499287994 -0.7357301684630233 0.5450224481293839
Ni 0.07277137220770662 4.8567976754959155 5.277088860058988 -4.0919381919903275 -0.4983528119869869 -1.6382007478108107
Ni 6.311683549882486 1.779304523453407 7.771143394017804 -0.13652660630554553 0.11185867124522027 0.21713506128723248
Ni 4.519519039236632 5.973046399629997 0.5637245606295754 -0.07918714915412814 -0.8020222068220381 0.5750153949470485
Ni 1.994307721175517 8.702668177925652 0.5438085619061984 0.42690931133401966 -0.5997064699358253 -1.4720383209167036
Ni 8.776376741205699 7.853303199416398 12.326592374630163 0.3381085503495274 0.2037861507841523 -0.5985672141250594
Ni 1.6602417869271944 6.2064537903006105 3.018703458986504 0.21572532542389944 0.6742340088307549 -0.7482889789646403
Ni 1.7811311740253535 0.6119205982831515 5.951855417165698 1.100039031357002 -1.1500241050258777 -1.273286390122349
Ni 0.1512338165491155 6.123097941839078 7.152748742225136 0.7939296596218907 0.016715770092784115 1.5667549331649986
Ni 0.9260475859365899 4.088328533622659 8.005618319670917 0.529380627827069 -1.4662795640560555 0.7953676776199979
Ni 0.5184860446558042 8.458383496160785 7.218081332405178 -1.5283791616002775 0.4166632081259792 0.6950257487651256
Ni 7.202529100927546 9.187777002432153 9.691782940167126 -0.843372744744367 -0.1735504918280624 -0.1624852351528363
Ni 0.21853808784902684 1.5449608596253126 4.492923374075037 0.35882598540253685 0.825073946435179 0.5531360783754538
P 7.891167187402725 0.5957506101045548 6.437422281187476 0.025603302390401067 -0.6092586324006346 -0.446656926274592
P 1.7871251580629466 6.934222587269293 8.498681794356559 -0.9569232018697131 -0.366956070708839 0.7774116073622095
P 5.239962875620324 3.761468231027491 8.356946560781564 -0.017211478782280035 -1.4519410359461962 -0.7958147924597455
P 8.51503720133693 7.142892172455508 3.444137720511695 0.19237559495436546 2.0258606267259047 0.6877047896236801
P 5.953182722053654 0.02489935849980764 2.4337869979777693 -0.31223965300256545 0.08043079175324212 -0.5164189254600784
P 5.439930627931135 8.384977844784627 8.501583323229886 -0.33160828733716435 -0.6679391769609787 0.2868502663951834
P 0.12634639094249142 0.41654976359259405 10.234420242711614 0.9526790818813786 0.039971398186615034 1.0234229853641599
P 2.4430120423235286 6.515956322887986 0.837444936133728 -0.033479105594052025 0.1987187635635739 0.9448235903927019
Ni 8.998512137392142 7.451394177845184 9.559532520843348 -0.5568369242658088 0.8045966524174337 -0.39062538930132085
Ni 5.32232737603276 4.375378868727719 5.172768754103646 2.030556232429361 0.5655473075556131 0.989473882112225
Ni 4.146955755748395 7.316625918059674 2.478874057999595 0.10036481167300779 -1.0921478015343837 0.433430400281989
Ni 1.5595557059036782 8.064019734741027 11.092179552618079 0.13541151886449582 1.0457170208756699 0.47418058561615756
Ni 4.427800986397998 0.4239619260893111 9.955557708160203 0.11548649780579466 0.26730628282498475 -0.7693090328597332
Ni 1.128686470490801 0.3042135071624732 2.7527651656677583 -0.3735427227874212 -0.30937313008804784 -0.8768053133711997
Ni 4.456320601106729 8.476677539326056 0.1475401271513707 1.1063868279519011 -1.942867216451809 0.593579531102481
Ni 8.337374780130789 5.405931061506567 2.4051985396545184 -0.7187125508591042 -1.5807031678149743 0.9221032659770506
Ni 6.419492650221732 6.981586994059461 1.833354104170954 0.6684757661907391 0.2605301404434158 0.4546252891920493
Ni 5.811162934871975 8.337264630347557 6.423827044191949 -0.28499727234684463 1.8531184897317505 -0.2636044084933654
Ni 3.6053584507405976 0.4255792920731149 2.0981505114035173 0.9461307392398995 1.2147459706842951 -0.09240827583009247
Ni 3.5263718770139723 4.093771768744086 4.040862238283001 -1.8583666255045672 0.7786015139052527 -1.141343289422428
Ni 0.9423405747064633 3.9503292135289816 3.2513774356837586 -0.23255139584230275 -1.408818236614793 0.8313775200557036
Ni 7.051348523440327 3.323870679688802 12.452097955560644 -0.0990617765908681 1.0012932433446562 -0.4816432125417898
Ni 2.1729614904307537 0.06332969995492252 8.718417761098243 -0.3673731036415996 0.22807716212103302 1.6868491049461336
Ni 3.3072931373122434 2.4159243747968264 8.901746470736859 0.5920587235825804 1.6463727420986418 0.43596319400617173
Ni 5.924809973722568 4.5836721088212204 10.094351024608018 1.6680569119402948 -0.9673099444206761 -1.4012846472419092
Ni 9.196038236174624 7.4067467990414295 1.3035666917554494 -0.03203131740393193 0.7663424940322414 0.5912246577170592
Ni 4.129102311716054 3.087443349127884 1.913451354878512 0.5106763665493463 0.17438841434832547 -1.1978715635264596
Ni 4.7586542186353595 5.9156491834170275 8.13624311177715 1.0863198819986968 1.939185139614531 -0.5055781260908325
Ni 7.230158338221811 8.85825474674219 0.2984407406062065 -0.8219338581443005 -0.4016772762401082 1.7842854301184368
Ni 1.6198535330751138 1.9945004832961746 13.091612910373367 -1.9323598891625817 -1.026156325134923 1.986288520860237
Ni 3.3869130722924585 4.866692797689676 9.836178291007196 2.0522020928339106 0.7494369765261545 -0.22077728602551008
Ni 0.8012185082581322 5.853561422268057 12.992639658479126 -1.410789501408551 0.7155084420995096 -0.40857400335994143
P 1.8900601304941353 5.140350754983329 5.779758313757402 4.8341714516791905 -0.003011790243130297 1.1395347754587795
P 0.08695315679894852 0.5412540048500543 0.4766227016232624 -0.1529559555061624 -0.32188411807086503 1.2483541456570435
P 8.227858358151433 5.411943403841365 9.123485327703662 -0.34618541382039086 -0.5631764933305913 -0.894923363128149
P 5.29390873195866 5.140213067754288 3.0237281249316466 -0.5811680448120055 0.41992105294164456 -0.808002335664873
P 2.0585801196919413 2.528965589839638 2.0735118407240276 0.038870451812952414 -1.4611813235975415 -0.46466313304402557
P 1.8443663287496679 3.67788290385089 10.262109144471797 -1.7766947622553726 -1.9865746846420882 0.6718207714035721
P 7.853624469617495 3.611545196898848 4.089549360386823 0.7988278682544565 -0.763384439845182 -1.0632452595674204
P 6.49507375981674 1.8967976255685504 10.701367203792723 0.8271118028008143 1.6391152892052805 -1.164471390799459
Ni 4.456146197283276 2.6289724138665513 11.110881149981312 1.3392650110060034 0.5682338532488407 -1.0280653692321777
Ni 8.393248257675703 1.7850231330329176 2.4635448798330097 -0.19277642993720992 0.5194916508481311 -1.7378129975885106
Ni 2.8044410185566355 1.7952946003193901 3.887989943708295 0.7854522182784989 -1.68228282573169 -0.44270719759822463
Ni 1.4809362981211625 7.211111604871113 5.227071679322628 0.037843810320650956 0.25521618442967015 -0.4546990798527782
Ni 7.174973296822104 6.965752962719724 7.808679686399012 0.20965083709504542 0.36311407125492945 1.9296820852201024
Ni 3.853773749376701 1.4137541094976673 13.100251407123412 0.2179616709535859 1.3389253682783975 0.8722084380291365
Ni 5.906038614829953 0.2645806972403986 11.799418265821862 -0.5951245069920976 -1.3285550807876667 1.4435641247364106
Ni 0.2365907194060466 3.7345182507298302 11.973100608193851 1.0185232340696972 -0.6050901028452418 0.09103222141817226
Ni 2.8469404765873474 6.0492241538841816 12.138789747962571 1.9830229627350882 1.5176435203503282 -0.7340525236502842
Ni 6.695564723597908 2.482776114070622 5.444699195630262 -2.0012119749392894 -1.2649426461433442 -0.06033402100336707
Ni 4.642069852231888 -0.0518218013516604 4.399217117649049 -0.886045601022545 1.081615534544492 -0.23687907668337915
Ni 8.639414664904132 2.6595573370108996 6.38056755265693 1.9477862510199808 0.9202893526967635 1.2592131998587348
Ni 8.184707180569925 1.3301687823210664 12.195443453138715 0.9647010460429193 -0.24731029931903212 -1.1205363799794055
Ni 3.6530808443262717 4.232055642444449 7.103416325974541 -1.711979324354858 -0.2401808873631025 -1.3067840076591624
Ni 6.060900030906875 7.315065462797207 4.321216384482358 1.020773720666771 -1.0011158372265274 -2.174179597680688
Ni 4.022422246654946 0.7867604312939477 7.371692548442404 0.5990228136052393 -0.2548135496746128 -0.7274671571232827
Ni 3.8916101999172183 6.411084550101617 5.224962310973717 -0.3410501494763546 -0.13999091070506212 -0.17222046016272918
Ni 3.391401675959201 7.330155983100121 9.81757123887457 1.3757091127656502 0.01595703754988865 0.11732817900022374
Ni 6.193759027783013 1.7435333813485077 0.7485173444703288 -0.5485754555879649 -0.37146038633709577 -0.16205534670426927
Ni 1.1432813167691664 5.800404972709558 10.45793159327361 0.49987773327194557 -1.2959691764318455 -0.7590858124698281
Ni 2.2092558440060097 2.8948556322936794 5.637673354620643 -1.08001579415754 1.6228486908347728 2.156376765171312
Ni 8.670394291438399 1.4755573170399536 8.467553465614927 1.2060111619144587 -0.3671985257369482 -0.8858098308626551
Ni 8.111934890447358 5.661818187105304 11.282964484666705 -1.1412702700926474 -0.08861024224024096 -0.8197407071477238
Ni 7.495435732841157 0.20353293362811867 4.127394990075944 -0.5664132551003342 -0.6075210808842376 0.07017903211824687
P 4.462121823023664 1.9287686001519133 5.514370769354822 0.11282463470291537 0.5202388134268008 -0.14617235692542568
P 1.7575499412649003 1.8512782276475352 7.627352949070655 -1.786247181830498 1.2072792299936048 -0.5026259854410441
P 2.694786909348237 8.249438536516488 3.675186069991404 -0.6798644676436549 0.4672419495147953 1.2587385742151613
P 4.917783938812557 3.4742710295447883 13.078809833902259 -0.22691785170560919 -0.09279445552491761 1.5220213377030496
P 6.655213186340239 7.298570532758073 12.267385948227593 -0.8554235052613137 0.2724806279370726 -0.5872047379243887
P 3.456472660404064 8.865937694122687 11.762647514434121 -0.22021524287445302 -0.291758245219762 -0.339695435220673
P 8.710158363185492 4.156446995403633 0.745505665813768 -0.4020811965467463 -1.8100126596812118 -1.7234341031590188
P 6.104620315701751 6.278372419603122 6.105332617633324 -0.39964096253636977 -1.8409651421986684 0.07101566908692931
