# total energy = -381163.28586241754 ev
CRYSTAL
PRIMVEC
9.30279820464700 0.00000000000000 0.00000000000000

0.00000000000000 9.30279820464700 0.00000000000000

0.00000000000000 0.00000000000000 13.61558551375533

PRIMCOORD
 96 1
Ni 7.668064040672772 0.9228859625340455 2.049608328712983 1.4024205606185653 2.393584428838704 1.4954667271429727
Ni 3.0514573732083092 2.6096860891544824 13.421236365161382 0.5537320600882399 -0.17536414799803346 -0.025864783581903843
Ni 5.080593033777398 5.248313183714361 6.18453935896179 0.6291425158087551 1.440260257174158 -0.5209132137860061
Ni 0.44361602894996693 9.109867532720584 10.872317084559967 -0.7937769360941103 -1.2107761874032696 -0.6228757089634369
Ni 6.355653169706174 3.2588725633461153 3.226363004525898 -0.5805373532065421 0.2587421953050576 1.3536942990574559
Ni 7.608581948560234 6.453927930587757 12.206604415928792 -0.22532556751782487 0.4296290242580279 0.02514333203484702
Ni 6.894945687982042 6.397804148649231 4.667450181107231 -2.203305568512367 -1.5914544927942076 0.6462413802725709
Ni 6.064429069990349 1.9642021286726998 6.836793896021536 -0.8385295577194527 -0.7946984194671153 -0.807692260623622
Ni 7.465123496500891 3.263635596058286 13.349632726908302 -1.2039051713150493 -0.18113061816816547 -0.43112643473916074
Ni 1.396936096011095 1.8842538803750544 10.580140378301708 -1.4064700480975907 0.45747201461222503 -1.2914756594368664
Ni 0.2608755809327886 6.465295950068759 10.491121901694754 -1.155741981346261 0.06654940578545958 1.1313491543241934
Ni 1.992268671041096 3.6497854492799493 11.784969969001457 -1.6259011045078513 2.0562520945335683 0.8652546324191227
Ni 1.633394622335223 8.99163826955852 5.6931804390310985 0.7167238025638495 -0.0046524111703468264 0.011690034743418577
Ni 6.086476701880671 8.376639578994283 11.985663887392109 0.6419692352597782 1.312147843074237 -1.5848729829219481
Ni 4.129967987373918 9.194727658502655 9.916462004971363 0.4072912799927759 -0.9505054712688276 1.5925585244916638
Ni 2.098636866414063 0.5405149059680151 12.550615383845145 -0.9722073817222934 -0.17391533136664888 -2.095707986536346
Ni 3.0789192336894184 8.881362898913851 3.4052167434275584 -1.097347600567768 -0.46641585406907415 -0.412218027870432
Ni 8.960948338079124 3.053122574097916 6.907377017304842 0.21493419698117178 0.13295765800736456 -0.00027896469299951957
Ni 5.838975754014851 5.020617893356765 0.4142936088156664 0.1875997708322769 0.27264697831160783 -0.556119843594126
Ni 6.273137349087124 4.864284368497336 10.850600632287913 2.3241229916127715 -1.722687969021614 -0.21180850686799652
Ni 8.911820260436597 0.7922076947324763 6.3104973869232115 -1.5498594429612405 -1.1368104345490808 -0.20274871065857336
Ni 8.124738407548664 3.3955399726713087 1.9889512931794553 1.3720668880273725 -0.4133662825422623 -2.496991369772145
Ni 4.169281612845857 4.149038723819133 11.532727384859479 1.222187771674321 -0.8407579328293391 -0.3268718010934435
Ni 2.6913925663243936 0.5905621000792176 1.0021346404020912 -0.557877192604865 -0.8886755824462244 2.8463808923521303
P 5.061252516182471 2.897691420670285 9.505271809657222 0.32136424101165295 0.3815923325647751 0.39993561095865315
Ni 7.479245144268616 2.526063235541783 8.510911517765992 -0.8192064319108084 0.4984818813656835 0.7218477540539762
P 3.535370333406928 7.87326516482328 1.5220457087706618 0.7364814448067509 0.45565733000098946 0.5214683149585276
Ni 1.8321116960943582 4.322545214277521 4.666851080898903 0.36616597070737583 0.080296580168223 -0.35609187430082545
P 9.336474395681062 5.62006230522032 5.243184551030337 0.577367954339625 -0.4918129539859401 -0.1752888146754078
P 1.595941556516475 2.751042108805718 8.222506165924754 1.3077196320995546 -0.043909556898756634 -0.7667543847586795
P 0.8799144767839311 4.12308391665711 0.23493007656903095 0.2185892772352558 0.22425573149241376 0.13955022362321773
Ni 5.893732024608281 5.187007743141695 8.607309904237331 0.2722759681254343 -0.7087166159886569 -1.3113487442117093
Ni 6.05618679072671 1.7400605072527007 11.69592451427953 -0.7165137434355725 0.22966816075723673 -0.6688701734156803
Ni 8.850886931794571 3.7318640383804986 4.006045411673088 -0.36244738420520806 0.844888667168261 2.7204192060466243
Ni 3.779661815870993 3.7002252214779747 6.928862760179899 -1.0714959296119868 -1.1564032690793438 1.027813144012056
Ni 7.301357035826962 8.671259200077182 3.830786274021393 -0.6136369639739885 -0.22670882101859666 -0.4913601827192376
Ni 3.832036570108338 1.5884900151054422 5.9489897160282466 -0.05207538053900063 -0.8146632926248164 -0.3531842137357272
Ni 2.5845499282398627 1.7427118047584989 3.8095861270531004 -1.4792368955476718 0.7576287683083275 0.6888106210933491
Ni 3.3636871914086677 1.306447777278119 8.455931980014178 -0.9141464730238191 1.6756984876459529 -1.0640078487650577
Ni 8.209040365434777 5.527434342886172 0.7082173805882719 0.36427518144256615 0.04763637093104054 0.3348712743591523
Ni 7.6056980810977874 7.732364982287075 9.305980753245077 -0.20398952504421 -2.2097775493899556 1.8646951388257562
Ni 3.9596337511242217 5.699684955578657 4.102117269925293 0.016448375364010382 -0.9449120363414502 0.6805111000887183
Ni 1.5229052873304363 2.015302399547609 6.047975210697349 0.83557304619429 0.985984638012044 -0.219597406784796
Ni 3.57407927699158 1.8967010244549067 10.964059420499193 1.4290479333981065 0.1345244882738522 0.1889377729174101
Ni 5.97109409498799 8.963701966365846 1.7784271078611662 -2.351378742004931 1.7853267268987576 0.912020427819752
Ni 0.4090496214331457 8.938305327099782 3.6754453577369417 -0.2082454721070865 1.2156563983137065 -0.7512611742190868
Ni 1.2369186630383464 6.3516622692500775 12.779792609966506 -2.199674656627999 -1.08996904871551 0.269342082308091
Ni 2.3319045329329673 6.740798320715113 6.096460464979697 0.3199689033260231 -0.9253256295690901 1.1444296416572353
Ni 4.580400176613352 3.860745005557085 2.0170941184936324 -1.5516980388318762 1.5863066300446809 0.6074069239038765
Ni 7.0292501865476815 0.2090422495545222 8.219701372247567 1.291403154327718 1.054752648715377 -0.9762717815996541
Ni 9.029965798414269 4.460682465728736 12.021541059184603 -0.12642654175706614 0.7233621338159736 -0.4292227899585447
Ni 1.4422035123732482 6.296403647550285 8.687696314333303 0.9554229631751029 -0.5573377751616272 -0.9822064019165342
Ni 8.103025676395918 5.899732329489824 7.086626125132807 0.8396215052320507 -1.1209264163289727 1.098153127188199
Ni 2.979397897840197 5.814565211364975 1.943597360793429 -0.22715053654170558 0.7385588961610701 1.2269970201375062
Ni 7.126929568340244 3.95243338526637 6.038471471988847 -0.9054499736910858 0.6118353919888753 -1.1531233127764913
Ni 5.00110992539305 8.974288550792508 7.628090846803776 -3.2523958767356436 0.9643683452938487 -0.39014999232679903
P 5.989792719502566 5.711164608638849 2.587859863862891 0.23596427817859358 -0.5611232103459884 0.02887451694250511
Ni 0.3209456098957345 0.47111510062413964 0.8189764967427713 0.21559908425868032 0.3664120252799109 -0.19229203410162368
P 2.5136346970584627 8.171689630396955 11.032722444220404 0.003741726430619362 0.37270402893620974 -0.3925886836752787
Ni 2.949042867098375 7.629894659387545 13.091372162568074 2.017055626839765 0.15473387334219157 0.213349111882239
P 7.902466648580123 0.8531791648473936 10.09218535225653 -0.1121468919096004 -1.2892801944474441 -0.04010895220574383
P 7.985717390262184 5.315218908843132 9.280614813213289 -1.0825928108560967 1.6850763293164273 0.6723545324198549
P 0.3576870116471368 2.0267541442130037 3.0682991591890003 0.649526735892062 -1.2794284984643451 -0.6514933727001296
Ni 0.11677430551326808 3.868531447705692 9.353457584195397 0.8733744333127796 0.18620031938158899 0.35662229288299874
Ni 6.244019590514674 7.252024296622586 7.17880383203088 0.4686306023322058 -1.094258163009167 -0.5176941926280761
Ni 3.3305692295818563 5.109878242718635 13.54324628553873 -0.11731635192568182 -0.3130814321775705 -1.3496764361473144
Ni 4.44165824327485 0.5295487673721034 13.147454081914404 1.4830339006962587 0.1586895155558299 -0.301209620440649
Ni 4.124702603555386 8.166014923454721 5.3185604739802645 -0.054544410904783486 -0.43677052039881553 2.3018423258377
Ni 2.8820906279782728 6.007709908962802 10.778805356390555 -0.5605048600356992 1.5002294386389388 1.2669234240187988
Ni 1.491573462770689 4.557952524397595 7.045588691142185 0.0067576304388077164 0.7610115687376313 -0.3005190221315276
Ni 0.6617712996858219 0.9230087594711562 8.497514557983186 -0.4839227526045859 0.9584586646776333 0.21407673407688294
Ni 0.30628533010841086 8.120645176311642 8.313200076499406 -0.3056326892090091 -0.7270269842620705 -1.520748384527897
Ni 0.2628180052107207 2.1666310189399525 12.851452065009182 0.2082930375155703 0.7320028402101071 -0.18490962559462348
Ni 7.2397911169028495 1.5778383110909202 4.600991920575051 1.53487813906106 1.1058049873065021 0.690567712993772
Ni 4.812132881418374 7.095188420656794 9.814332164488368 1.1113462288397054 -0.23888145182538859 -1.0016213161080363
Ni 3.5861077951494646 5.634993296437183 8.413166086105742 1.0615745567332169 1.0549061435741058 -1.5183091789587853
Ni 0.7558467774301517 5.128874556777721 2.2688194670520243 -0.26717129990901733 -0.32658743708380533 -0.2613292393059435
Ni 5.502419118349011 7.479691678585382 0.3152895085500319 -0.9409144851462828 -1.681279581278156 0.059638794708555355
Ni 2.2321971411184265 3.20125103088677 1.9332228801672322 -0.8579668405084578 0.039409097925241804 0.2276336468257112
Ni 5.024915786155638 7.579073472460615 3.341673049592104 1.0914376628412366 -0.37710318644516994 -1.234220791579455
Ni 1.2435515582019747 7.849543029245086 1.6329443668991508 0.41602223210787065 -1.263227206114134 0.061016391782372344
Ni 8.548025031448033 7.678362238353187 5.6042977832788266 1.6698201744883048 1.0849875363405186 0.49936402686032066
Ni 4.363905455367972 1.5296033020819262 2.287568326677237 0.5951173079032461 0.03475462987236595 -0.7008487832048058
Ni 7.958283438175873 2.807137982349447 10.75535951392086 -0.1007939287906264 0.326324927451038 1.7430377363225593
Ni 8.459192610806397 6.745021791127858 3.132183335440989 1.161394294536032 -0.31336476774594413 -1.5013234430340658
Ni 1.5788616189001756 6.72989544114741 3.860168232064596 -0.11092716056988636 0.3696107347228667 0.2257886231971724
Ni 2.4719395552304375 4.17275155659906 9.614604806837551 0.22047749539690417 -1.957624063046009 -0.857141002173053
Ni 5.046926206852896 6.28242154175655 11.875309442962179 -0.9041291979971332 0.7811566762269385 2.0046089164359797
P 8.830727767952238 8.256921868109666 12.701829578818815 0.13849838531993566 -0.11117141537020854 0.06765883679955444
Ni 7.844100892259501 8.119761410476377 0.9909405832486635 1.1959856593576565 -1.7828625816289811 -0.013486978742841289
P 5.1487453338738085 3.1847850779560236 5.027419169169007 -0.012587863967339612 0.03566402906051277 1.0618211255263843
Ni 5.168197485047927 0.6639295488835242 4.257035839168469 0.015100860197180443 -0.14500636164178254 -0.2372302893752108
P 2.5722702345287978 8.531614895306882 7.61450224937669 0.144171524445313 -0.24173691899631275 -0.3142731384928265
P 5.0786673545363445 2.567897919343797 0.4570557816047969 1.776231963686341 -0.47747956808240344 -1.2071846133972695
P 6.681967424481193 9.001545749711765 5.911737590652042 -0.3477890108620849 0.7550810621858093 0.22453006819972302
Ni 7.512986393579247 0.8701065365721312 13.32026379278267 -0.2930566523162114 -0.820973036892928 -0.4601809289029559
