# total energy = -340876.50783098047 ev
CRYSTAL
PRIMVEC
9.18189310475710 0.00000000000000 0.00000000000000
0.00000000000000 9.18189310475710 0.00000000000000
0.00000000000000 0.00000000000000 13.43862867878765
PRIMCOORD
 96 1
Ni 5.513781787264223 0.46024054602328995 4.6454116102716805 1.7054073275642951 1.1676317908053118 1.7610945938242704
Ni 1.1224680451643727 6.36609099716854 3.659620632104676 -1.0912682271429077 0.06162060102527452 0.23710250554809492
Ni 1.385299729877662 5.675190282830159 12.741324405113293 -0.5770684208213352 0.4252761466059708 -0.2095932443842326
Ni 9.00905296350205 7.639500179974896 6.368740891464025 0.2974509247291651 -0.6530617456285139 -0.2658029588065809
Ni 4.189367189310888 8.641217151404266 11.339783743046254 1.4186282807266795 0.7681985734043738 -0.17979518718619358
Ni 4.525351014883942 5.420227480345666 0.8938921665411567 -1.1597891548324413 0.033498388867761665 -0.33733104875355446
Ni 2.4903405422879445 2.182958313147446 12.329028031138872 1.1153437800348727 -0.6629355530988001 0.16080759034009726
Ni 4.127453685379998 3.6388851633330423 2.603936166873705 2.6109105230908196 2.375719118522508 4.103522554393816
Ni 3.838297513677259 6.3779631847086025 12.039089562159711 -2.4073354598762093 0.31692034630768645 0.26046946240880947
Ni 8.953116871859311 2.907446391771633 4.7070276208721005 0.04003156200058912 2.0749972363515554 -0.8551239717430241
Ni 2.182838948539541 6.269506665587786 8.681878245992365 0.6004469476462756 -1.4847025466479333 0.2790899057234742
Ni 3.733229113042354 4.903185908366975 6.874973539102298 0.023425063792159657 -0.3491853769889793 0.935074738536054
Ni 8.789247628991957 4.551914231089201 0.6654604436367177 0.8463770787883295 0.8503802864104516 -0.804825223488472
Ni 5.728436079848582 5.637177246158962 3.0708877584291154 0.2649462672332405 -0.9296288849301344 -0.4217946158152736
Ni 7.040299030186091 3.0117251496157844 1.0339435791850624 0.6034754500599543 0.6122159152567457 0.623311510949275
Ni 7.464658575073221 3.9422181776976957 12.221021424770928 -0.06174375686670011 -0.233477764311314 0.0979456607085539
Ni 6.736690559033965 0.8025102954864654 10.689891198848189 1.1528536040548727 -0.224782036309529 0.9096537273597882
Ni 1.151106369168591 1.4735469026909167 3.1219684650980057 1.2388356646436471 0.35789241784467396 1.7535792592838313
Ni 0.06404829403380081 7.396134108242993 9.02406627660859 0.4824677653256142 0.2925308617197284 -0.6025591088932719
Ni 2.9995866871811656 4.32104471561563 10.88229225576194 -0.35303688952458556 0.5262024872094034 -0.7437142151097643
Ni 2.220530618958687 7.017142296252575 6.114817479257595 -1.7451933492129814 -0.4125173042784056 0.3929519805519684
Ni 6.693664208830769 2.5915433660053204 6.2902458071165865 -0.16851138674225818 0.6834534705464939 -0.2194940484377123
Ni 8.221476098653758 5.37314273347371 7.55812657219837 -0.4150254154122401 1.2589452909093286 -1.4182708973872606
Ni 7.236341625830229 5.348994355105293 9.664080940407894 0.9599074813090177 0.575208484794461 0.06270432100775652
P 4.917234204528071 1.560618793210956 11.375583943524756 -0.9546603739774655 1.0110986594708522 0.2272065865906216
P 0.8824653008075081 6.30011909656889 1.5350141666261008 -0.014714423392039174 -0.22290847343589998 -1.0069249877091369
P 6.623973641600241 5.332512857321524 0.5840372536384467 1.5892186614851533 -1.1084542520038911 -0.060863668254591954
P 0.4232246629227431 6.021944468793387 10.626152334605647 0.20520565683949823 1.2602203009670103 1.9655240346193763
P 3.0109171430391988 4.241593796215662 12.955536130459112 -0.7236115308226183 0.5597754380688424 1.8085023936842726
P 0.2816205921867844 5.328105548721966 5.358733588921027 -1.304829969256585 0.27620127132176947 0.191042992185871
P 7.472527457302017 7.705380261645388 7.911051908390271 -0.6349539802842097 -0.020650843481132178 0.638009736391398
P 8.50349793956096 2.4008262682523163 10.543370224455845 0.11485426353843445 0.023179266329940725 0.08222053666381324
Ni 6.579753645317999 7.49901721836395 5.8801117689238245 0.006219755657466707 -0.7839630353274821 -1.3228963398399927
Ni 1.569947596413356 0.34221924905213874 6.51796317875218 -1.1424102972343615 -1.2015762660715565 0.4513337629249711
Ni 6.804342746037197 0.29770726857517515 6.877178111591368 0.6266611441477982 1.128266658744128 0.49839986317483836
Ni 5.840546992349867 7.206867749570677 13.364944799111528 0.22876930309205118 1.17460256569619 -0.9144256948271349
Ni 4.515700845429491 4.78492312761214 9.273567689186795 0.5897555293707004 0.09898875726108758 -0.7479819892471827
Ni 3.3965933730722813 2.1967127887352365 9.854358225490234 0.8499583683816846 -0.5985618148084206 -0.19900184202163146
Ni 8.401174924907863 0.6887448058817632 8.994433553601596 -0.31913689434303105 -0.781477549901467 -0.2152275598518745
Ni 1.3743916410937533 1.1141767958614521 10.55004913336276 -1.5643440097306607 0.4854723564798929 0.5166025022257942
Ni 5.699669209343544 6.414598937442437 7.80812564337261 -0.09322048731874268 -0.21923822367316434 1.2493831011421903
Ni 4.773381488217045 7.69263579427833 3.8649360214044273 -0.05254177865245789 -1.4713292106648208 0.4032531053676604
Ni 1.5818932390967442 4.050812425212249 2.1761572850647513 -0.38930075695262634 0.6789015895097533 0.7466984945490689
Ni 6.302028930295366 8.712110546606757 1.7607693677455991 0.18793709956703764 0.4534608365703029 0.5025874188936247
Ni 7.9173626233912655 6.77652161050248 2.193775501191489 -0.08098435026386698 -0.5201408543963558 -2.5111810310089657
Ni 4.352703882389131 7.884271081322908 6.516753923455176 -0.06712199045947795 0.9011554600807901 -0.5895891789961653
Ni 0.9213754084165738 3.667339849478945 11.673934862793326 -1.9050030944161835 -0.5288882615716827 0.6606261882393333
Ni 1.2307868358914529 1.7816636832646755 8.308942810569174 0.1573988217688644 1.227880451183724 -0.08375111437572673
Ni 7.138894196315394 7.679836235553777 10.234886168165458 -1.2192831964330162 -0.13114143073423223 -0.32883329569518854
Ni 3.923973756474105 0.5934946033416673 0.16313377324480477 0.46872573314917343 -1.1938992091422729 -0.1600804823660856
Ni 0.4452107055095019 4.363116148955589 9.529922466637316 0.8667121908012557 -1.4343027540391429 -2.3074190485945296
Ni 7.685822829734845 6.182315410459842 4.296302268775564 1.0583650486569838 -0.22751177653586627 2.1575694999278325
Ni 5.943218918933762 4.978587612991099 5.633204241094318 -0.5074432043240293 1.4602634397689624 1.73352542595675
Ni 7.996033081893394 3.055228958250599 8.378460758212887 0.05107522140926042 -0.8228892800790344 -0.10494034685883218
Ni 6.926526195067057 1.6822054192012923 3.235363006228911 0.8427348540500519 0.5681834596268796 -0.7021325350132359
Ni 8.783362035632962 8.895876951422538 2.4495398829275263 0.6478593754919681 1.4509146515642108 0.6098538427824722
P 6.676328795005836 3.8139287698788635 4.131370680897856 0.33938458884847356 -1.3688566086201908 -0.8703883541012624
P 4.360453400010022 7.576659304859516 1.719955853735099 -0.6628221674493875 -0.2528440846530678 -0.5420098865553051
P 2.799008236436648 2.5665227078099067 4.126774225304232 -0.6913840382474803 -1.0637106292396132 -1.1767188407082445
P 3.9238635737591157 6.170222857489803 5.183924120644557 0.9673245997086954 -0.756314420372278 -1.491945858473908
P 2.566219705343687 3.7211090143935666 8.507525117793808 0.056706451553108786 0.5183004587535074 0.03591959671474459
P -0.2728169932591652 1.9372692225078585 1.6744127466836969 -1.0456342313538767 0.8793427350810727 -0.6562853947721343
P 1.9018454796389024 8.346974211026202 8.271865408786091 -0.28356902454075034 0.5443699021470496 -0.38825328952471844
P 4.660067747743797 1.0653291255496724 6.694681562565835 -0.1024350639384752 0.17294216882010213 0.060637154066082666
Ni 8.815269113515187 0.6034376751801309 5.032900345966332 -1.5759571684895568 -1.464357664442994 -1.0285569641566157
Ni 5.663547642612991 5.501285231005891 11.408978488059333 1.8677673499931768 -1.0016639964205136 0.35251649824474124
Ni 4.191947301220212 0.427727463208626 2.742676405209242 -0.1796712600138196 2.1825256556525376 -1.5456842285376282
Ni 4.689376349930865 3.0060691035796836 4.980839931323332 0.11830159865708657 -0.8056122381661416 0.3769597188887701
Ni 3.2562297760692402 5.826847608119571 2.9646954941013224 0.7724048981762375 0.7429444268232753 0.022437760178225873
Ni 2.5006609899252457 7.494022268617782 0.25396013977809334 1.8092253878932258 -0.15124180102853307 1.466796098681158
Ni 1.0027177977571862 4.22708640540878 6.963695415779297 0.14364290563535262 -1.0015842922225136 1.1711279768840284
Ni 8.005885252991991 6.229115518651411 12.139381542099843 0.022186049178735987 0.7330037706707957 0.6693072609530989
Ni 1.4314754693509593 0.8195528069273853 0.8896106498745433 0.6331218121714773 0.7316377435612045 -1.0061099480070093
Ni 9.294279285036849 8.20162484616991 11.274539048365531 -2.0254914163119437 0.7479593635393634 1.1034632265472029
Ni 2.1401798740529756 8.079670944462944 10.510391619670353 1.393863929297806 -1.9481762873695483 -2.297739102302604
Ni 2.1870534373878696 8.425791579814984 2.515173889867877 -0.6508811930374274 -1.0726213014656818 0.8652870283189549
Ni 2.2818472998500527 4.463272236880568 4.872685496479444 0.1302466868341047 0.949748795608461 -0.26333547110269484
Ni 8.302910306923527 4.450812408193898 2.886133381935599 0.07048987849044634 -0.9742807193115544 0.4415476300724847
Ni 3.930805084803421 9.023688900809752 8.544548346408687 -0.28465454429544523 -0.19035805030370442 1.0146084723963236
Ni 6.427279131559086 3.3438433982713085 10.304108458857282 -1.5092637809270653 -1.8716250331763702 -0.33183197331219627
Ni 8.638471765422457 1.941547984606597 12.817494634174462 0.7045707121410835 -0.670794901242219 -0.0972910578436905
Ni 4.959149545688461 3.380267967468081 13.026223851260289 1.00928706018341 -0.7690521796539206 -1.020891734301874
Ni 9.424294888723841 8.126617962941165 0.23950416757153953 -1.4620346727367723 -1.1032886486425517 -0.19214008190479168
Ni 2.5136900959726924 2.4789825407511645 6.387729046013792 1.536948134216211 0.22449947207210372 -0.25993133051715234
Ni 3.178330596572034 2.580846460758474 1.2371278511390686 -3.5653459255416724 -2.098306086280825 -3.8200599735239438
Ni 6.323826744077352 1.1261958936881664 13.146418502284599 -0.7037513015635816 0.15831130628080475 -0.28487154540225773
Ni 5.641896739117657 1.4181709065160402 8.740537687073912 0.2047621415441764 0.9924175381215811 -0.7484046786068981
Ni 3.2419335687994204 0.397822956171326 4.996347230268738 -0.6382239092847332 0.4941197477422459 -0.8702579991709851
P 5.220034669103611 2.040767519454171 1.4608061080810246 0.3326141028938594 -1.4706573814087769 0.8648283435149816
P 8.894371120984356 2.0293636084528117 6.559125604693478 0.5588020184119796 -0.056774071566250604 2.8641965803773126
P 7.217987021891648 8.408098072166338 3.864761565439028 -0.5050039987549174 -0.17354920627648174 0.14710489604202406
P 1.1771553993705686 8.338930872832007 4.589089879126482 1.0323717099170158 1.078478017356775 -0.5469536037138258
P 6.210614004426178 4.206675057457073 7.858358861325375 -0.3496882847673268 0.03868713215755273 -0.2835376570821827
P 2.038251680795256 9.090174987412684 12.383293018270942 -0.450739838094714 1.0602406684131416 -0.009652435488099506
P 4.890367985856591 6.979110895795546 9.98890601152044 -0.2688993383437176 0.11605676848696785 -0.14953176031596183
P 7.4966941994562655 8.639867413145652 12.603887995571789 0.3520035631640647 -1.0219476863702144 -0.2804484766338976
