# total energy = -381164.12086087465 ev
CRYSTAL
PRIMVEC
9.31356643078317 0.00000000000000 0.00000000000000
0.00000000000000 9.31356643078317 0.00000000000000
0.00000000000000 0.00000000000000 13.63134590118205
PRIMCOORD
 96 1
Ni 1.9911380669657943 2.0481743481687493 7.479819317526655 0.027390219087494765 0.14776772643700356 -3.6632666465495625
Ni 4.607495852604737 4.686381760800202 13.007520686266465 -0.10028870701943374 -0.5770311398254966 -0.3615708951375257
Ni 6.028466692437335 8.80087328466601 0.33941896048659154 -0.4562121740631949 1.1353387350995607 -1.0185767130154522
Ni 4.09613448430816 5.018177567112297 2.966834743622639 -2.576602750947885 -0.0035882315718905947 1.6735544447197566
Ni 3.900363316625908 6.858221644862622 12.877232273239642 1.777537826981958 0.21880396434922314 -0.469692725048133
Ni 7.7106458181318 7.5062223471775775 6.320636998748435 0.9800168504643832 1.1210611421346242 -1.0672340690118394
Ni 1.6677710383298385 4.550189477973486 3.6200491804603603 -1.8091104595819167 -0.597580681842074 -1.7702353797832737
Ni 3.9926980148372233 4.811528153766255 10.343056466978028 -1.556366647952139 -0.5037572708320098 0.7637940165787749
Ni 5.494771391690613 8.267038280421893 2.5089993733178164 0.48482083893882305 0.1846856825092755 -0.21861061739149448
Ni 8.696142229452548 1.09242546822655 6.262117997759799 1.102120339366063 -0.28018005346385944 0.3146158665442259
Ni 0.8153291692843236 1.9033204485035702 12.373063772345589 1.2052989663387823 0.05702681100700501 -0.8439211610486692
Ni 6.963334556302293 3.0798753628611277 6.07435929133145 0.20908416595829796 -1.7379672637781876 -0.27608145791445354
Ni 3.1969934615102393 8.584900991260502 0.6740116308165255 0.7041588214146453 1.209407332080201 1.378558409288987
Ni 3.2673574563646355 7.259757437074084 2.5573908021019953 0.6671254228104316 -1.3518148226465558 -0.5102667898157535
Ni 2.6738783722995323 -0.0630276985278832 8.202675947815568 0.05949969802752979 -0.4568498076471939 1.2205456080852075
Ni -0.031286132563188455 0.9394873928454719 3.4174604821052537 -0.2603367934856871 3.359473581652453 3.109717134785773
Ni 7.815181288448907 6.667265591057236 8.65948961987611 0.7020358615343715 -1.2701118490491095 0.09314823931991055
Ni 7.277397332011771 2.4496635725477467 1.1604843553739361 -0.8439520142866046 2.78413705592056 1.0918426115891389
Ni 3.2505650959778087 7.936797839714124 5.9937978725239 -0.8568144720715695 -0.7861027073783042 3.3537361649480433
Ni 4.394783307471771 2.1016155927054174 9.690319816101397 -0.522128574250346 0.4390675439631084 -0.8905221487366599
Ni 0.7535913997157169 5.8300784125705585 8.092698560596617 0.37403380349122684 -0.12560867384146107 -1.3241353544534162
Ni 5.829016665990359 1.487907442217581 11.426325767985338 1.7245931564641266 -2.0701568775401187 -0.4828377470705234
Ni 8.254306635026001 2.617168065923831 10.382328051452289 0.8410973184466289 -1.0014963604943978 1.843546015551967
Ni 7.593145863256476 8.918131086812515 8.2896171596708 0.8892018872633396 0.12941673473364163 1.2275189540792473
P 3.9405047882106135 0.03492773706194015 10.216093928545845 0.02637180512530942 2.414951067439938 -0.00041369049865090044
Ni 3.926785904766467 2.4994818397186487 12.183928520789577 -1.8553028989775788 0.6922304454081756 0.370633005339794
P 1.817635636768236 7.911725718715045 3.854508903354414 -0.6153863425649272 0.3494016067648434 0.5130420385680454
Ni 9.027118441913261 9.179693288201115 13.463625595916895 0.246204210739047 0.7429068887171205 -0.8814158155600175
P 7.284810930940176 4.312730786668696 9.772748604990788 -1.4293958036558287 2.391681555389036 0.3653797273606546
P 3.5906779171681267 0.7902877830546723 6.2970960280808015 0.22452261200055526 1.1224400247600217 -0.14851668878788615
P 2.6419887206275994 1.4822168530903757 0.33887970498664854 -1.8477040035843986 -0.6466177897753832 -0.8089927246026003
Ni 1.942614385537415 6.587569402576881 10.069639026800525 0.4200640062774121 1.7423322256151024 -0.4235841036155286
Ni 2.666883883863311 5.998653966093335 4.970111181798723 -0.27975067923592467 0.7337378206233428 -0.13709147767008
Ni 0.2192571883075773 6.476914919073893 2.8629642619531297 -0.33575881917042816 -0.5520682992325718 -1.6653816791009772
Ni 5.324556650465073 4.008559018574753 1.5064134988391145 2.3554958494970983 -1.0233083141631667 -0.6844487445802276
Ni 8.688859020455045 3.638596216774463 8.401039081052813 1.4696330539093208 0.1459468711781809 -2.1132164277337546
Ni 0.47413690573747036 8.80451488916476 2.1283706751697755 1.1370816859325965 -2.9673147864257414 -1.6432437095513572
Ni 8.04531020292373 7.538829143469469 1.041633933357132 0.7583805588726874 -1.0324002491621058 2.130543863268608
Ni 7.609249019722824 7.968845822016437 3.5925546008164604 0.6029591725451681 -0.49135709739544414 0.1757654972015102
Ni 0.7664776503153918 8.28926045007412 6.997638284409204 -0.5570590675789439 0.10812980033040734 0.3443599305758779
Ni 4.884220540243894 6.72483274555029 4.665641379577005 0.4246225721823719 0.6622421265762015 -0.20158502936777542
Ni 1.6669048766459922 0.025990438655285095 10.757026801814256 0.15280477464027878 0.4556575871113056 -1.3959498652925573
Ni 4.146511565468641 7.349866192893579 10.425853141743893 -0.05953543636147166 -0.6862837409064374 0.9647115875658805
Ni 0.3258714466659159 6.830374081048638 4.986550558015466 0.1619036516177534 0.1979677443301623 2.4889469022011137
Ni 4.52568548453048 2.930131840787139 7.018916058419046 -1.8712828193456028 -1.9744925566665734 -0.43281282130264814
Ni 6.9282130970572995 3.613142239549173 3.5378113196840753 -0.30273042796054955 -0.7344924394011803 0.2663423762498187
Ni 8.559297996971324 0.3828360134068749 11.027854139150062 -0.6040994567971983 -0.9732589629152593 0.0266944785720508
Ni 7.633454979038055 0.5108630924892033 1.9621644929628106 -1.2044376467797515 -1.983235078745894 0.0928348218445498
Ni 1.6061431688458487 5.559537933082734 12.388889384530446 1.3060479008240862 -0.7098838968238806 -0.17421537910557092
Ni 0.4540084258328613 5.026569090522464 10.308705239682002 -1.1537424344177292 -1.9498688445806223 -0.1796352645695616
Ni 4.0748809255712 0.19219475814895123 12.43268736232029 0.15387692465853497 -0.5459007369692792 -1.12491599710434
Ni 7.832541776391805 1.9917807030538093 12.75656756847001 -0.1977754258136981 0.049000598268418835 -1.1564883725939823
Ni 0.9250783741241962 4.892472360156667 0.9009171199281307 0.33750022734156715 -1.9723348868936226 1.0206014567549648
Ni 6.152616533788639 6.479373700628037 0.39659401383029175 -0.9592757612622898 -1.4345297824482843 0.5517798214578755
Ni 9.412755976121224 7.315648149598403 12.09514787955198 -1.3391318278622486 -1.052649229219129 -1.7219788587697311
Ni 2.143228607796012 8.024075271319756 12.459868074773377 -0.8261736072572611 0.23506207807929838 -0.5972276693780295
P 0.9621845543888423 4.086979248445569 6.2063930667190546 0.4370921654042924 0.010676248766923548 0.5094046989257743
Ni 1.7644551720933712 0.4288683157983844 4.984847106703901 -0.3525283253192832 0.36384220767020564 1.0301014258256003
P 2.0561001932542675 3.5320676432278595 11.543555629432365 -0.3324724351096726 0.9106361458777156 -0.990609795488881
Ni 3.8177799225327336 5.316323457685287 7.134892313816119 0.4805296677626369 0.9619710487062658 -0.6548964848444077
P 6.78420673194298 0.40142682348349445 6.588370369295277 -1.272470579089273 0.4965026461521255 -1.1728449595751351
P 3.2176136977256773 5.480828982650635 0.6858761831719214 -1.8229900457774864 -0.14131014373711795 2.5053644243271886
P 6.871428282149655 4.420777471553653 13.33393697657222 -0.8682561382496079 -0.44868938332358854 1.0916929733851521
Ni 0.3742898847929246 1.6918838619801404 1.0402341043132386 1.121986225052055 0.9823138740286761 0.8969077405480295
Ni 2.9566941324250924 3.772907159169599 5.365066007926251 0.1599490989945439 -0.48401017011206965 1.22991959310094
Ni 6.737899679339929 0.7119346108626051 4.3235904051995 0.8367058742471525 0.02127253622553111 1.0772814259455123
Ni 1.367110484803746 7.070580274468855 0.9052171935779354 0.2669260166674306 0.24850457673744944 -1.3045288930763985
Ni 6.091128367802044 5.927535572353007 2.8850746688074436 0.15805599573688908 0.7351704393048113 -1.9305050953420304
Ni 3.1468771602115617 3.2004115404131595 1.587438733258015 -1.028039915310881 0.7165422826806628 -0.4042751188742715
Ni 6.0846647526559225 3.9868304679466515 7.9374237113824515 0.9981960924765712 3.082345170530724 1.585315469776005
Ni 5.84092871753487 6.494927356671299 6.833516478383367 -0.2295522040046627 -0.20947728763165857 1.1332247740803516
Ni 8.002132508662315 4.920124339074298 1.7587841414558012 -0.8087538691189169 0.18243339613998905 -0.5277924574043427
Ni 0.23949277422685555 1.105315444252822 8.74486242713393 -1.832415195746128 -2.1281771628086443 -0.6401416951327362
Ni 6.4123812168440955 8.284100734237015 10.301944521764755 0.01612261659347546 0.24112011134792025 0.8447477707150226
Ni 7.514492794223336 5.793867266045886 4.4784424184948834 0.4895431841151569 0.24529815398500981 -0.012920821826726134
Ni 8.373082548510862 5.054574984966829 6.319383392698481 0.2650154299082791 -0.3957912497729764 1.4590370235610293
Ni -0.3395279292145593 2.849811643351756 4.780785933486256 0.9281852105050724 1.3089352496742104 -0.33806766980926295
Ni 2.6823723449411223 3.989494147963641 8.448803706812015 -0.2613780902660079 1.028109592206552 0.3133562831055119
Ni 4.651874996943745 1.4478311655983265 0.7930213148203593 2.1629035105462364 0.2118900108382093 1.4313727248765413
Ni 5.787897269923892 3.7209281445723272 11.407951032651354 2.4741535459420225 -0.36276131590120103 -1.4850581302151393
Ni 6.513796642386058 6.059322538228549 11.698802537947051 0.28394286294040133 0.26925569324187176 -0.20260344332996075
Ni 5.709011361728427 6.048267334801391 9.48103745750779 0.6837643169186933 -0.8053075624415292 -1.6179008599111944
Ni 6.8243854577936585 1.908787512034944 8.609517678858074 -0.22404772924666577 -0.9959049824495494 -0.4877585814109084
Ni 2.391593485464072 2.335209153915625 3.640701082801874 -0.8086474254480396 2.285832323562689 1.8206693680641095
Ni 4.06760703014019 8.790926395651516 4.213285180439997 0.3613137848213971 2.8695686433225034 -1.1163110290441485
Ni 5.481005940414002 4.700836415997293 5.369291573044112 -0.2681976842910026 -1.327341777205856 -0.34821658531780675
Ni 4.750058614912645 2.275294980666342 4.765396196213271 -0.1732329605876436 -0.442072135117387 -0.3293837688820198
Ni 8.687657570377452 4.379369354925904 12.323022910935505 0.6189632612829082 -0.3675101434400961 0.25958088915626903
P 9.279218059745004 3.254458166771871 2.487447780453081 -0.005418857022726151 0.4262457096080917 0.6874173402902485
Ni 2.601344316452274 0.608669511015139 2.6014197563408663 0.2607129458781833 -2.578341073795231 -2.0223395009465235
P 9.177132057415546 8.005476079033294 9.750379280987968 0.9497279696728547 0.11855845186289905 -0.18673767994229776
Ni 5.008221364531312 8.788812216057611 7.532954145725703 0.5294636744591785 0.39107301836170066 0.48206538768087304
P 7.430326093826356 7.870569068382606 12.641423945917406 -1.1472843374972113 0.23945737893351662 -1.4477658215225842
P 5.663495962277278 1.7994555549739564 2.8920812648801055 -0.13289389464896467 0.4230302879945876 -2.3023444622850993
P 3.5500893943917586 7.101082204733336 8.27695350331031 -0.31216920477594623 -0.3609985675738234 -0.10203062941120492
Ni 1.6981518922299101 2.3904758574849154 9.588152785743452 0.2923657968967739 0.9394744102656465 4.2734259363875955
