# total energy = -340864.4001084502 ev
CRYSTAL
PRIMVEC
9.36870984098369 0.00000000000000 0.00000000000000

0.00000000000000 9.36870984098369 0.00000000000000

0.00000000000000 0.00000000000000 13.71205385598389

PRIMCOORD
 96 1
Ni 4.225878408574078 6.1038363146729475 10.886507460154746 2.0003971923474775 -0.557095320133518 0.3960329334701373
Ni 1.4165864167312214 8.80548182938397 3.969296612764049 0.6991803943634475 0.1774469986689912 0.04643206621029422
Ni 7.314526593203446 7.792293324954096 6.87360606074886 -0.28144529332952817 -0.30020637598711525 -0.3465150292456677
Ni 1.7491006696783955 6.439564035127189 9.599164270693244 0.977237487947033 -0.0709912436068971 -1.0657675117686418
Ni 8.348832169822629 1.8905119774092827 7.200529067607934 -1.8886184824105732 0.19156698301014105 -0.2699745736857673
Ni 1.7344854821826896 6.4838311895612994 6.741792059473486 0.7805061871271332 -1.6595524740137098 0.23572028048858762
Ni 1.162675640123132 7.795450580201566 1.785748252323878 0.2405416131366309 0.19768749408558212 -0.9915449057086407
Ni 7.195497133502842 2.212926761048527 1.7583382176724762 0.89954029307487 -1.3480409574264205 2.115551246514518
Ni 6.105644475690044 0.7495220901684009 -0.01665381877715814 0.22545283712430852 -2.0553102994455896 -0.05287165118805088
Ni 1.612317504654482 2.8376323393906198 11.613287006960437 -0.26981002308344504 -0.7847821887946678 0.6331935459496773
Ni 6.260209452167066 7.606305695361307 4.341250323916783 -0.26832443967685404 0.7481370267678082 0.15747852596686426
Ni 5.346591596906655 5.777767734159776 0.26251968416565624 0.32626244964421874 -0.2190538755765002 -0.6275918834921838
Ni 2.1500252425573927 6.027584384527081 2.901169056415221 0.3529816108066179 -0.7782546720887952 0.4335748962796533
Ni 1.14902542975054 8.686002671606575 10.066718171745773 -0.12760384989461895 1.1655805647032378 0.9800227640016542
Ni 6.928741855576411 1.89494337720766 11.285376538074411 -1.233576987347869 1.2882926337231941 -0.6330274526854581
Ni 3.710964741938509 0.3739586150784266 12.66564608762079 -0.6860155748467153 1.0285047707624417 1.122588634522744
Ni 0.3536547469113152 3.8988729570675935 6.713833018420003 -0.40155694861216 2.7900585636113173 0.34900077178199895
Ni 4.272019304994816 2.2460076758224607 11.153494145216525 0.05677921377257318 0.49178647162337885 0.8953198272356194
Ni 4.034531876899529 0.6973121434529717 5.097524443334001 1.2274235661519637 -0.41982283680088345 -0.4038184909528271
Ni 3.101914277894701 6.468944309477531 13.28593806671338 -0.2794604016890155 0.5217519076372176 -0.22432849371187819
Ni 4.259943037890993 4.4153137234222655 4.214071023445336 0.35716582409129455 3.5859443185183144 -1.8137237899842116
Ni 0.32133644512593906 1.8127142101244484 4.460187970260042 -0.390119910419812 0.27117630730335235 0.4942166783314263
Ni 3.8421641558422683 8.08920648015532 3.2304913898881726 -1.0214195817808862 -1.1538334514696384 0.6920340131266534
Ni 2.7207389455547726 2.685184691358488 4.0914711483892106 -0.41819275739662815 -0.2686327149458922 -0.25163078107125697
P 1.62285730332927 4.894382705853624 12.08917718611148 -1.04839611036973 2.550371328055182 0.4537742540456636
P 0.16599761320843892 5.4314252653512805 1.9749886980054556 1.0059623666855515 0.34151834736202474 -0.1789194694494596
P 4.813980437207374 2.444970968672656 2.2145925176746397 0.6030039097401745 0.012233051731082158 -0.5424747420068656
P 7.971900863082414 3.506595703456889 9.762831885741308 -0.34837136572811617 -0.32684531873088224 0.632997113668155
P 9.148948104242992 6.238577100931435 6.821088820347624 -4.087082406559922 -0.006165762491079704 -0.09133741136341689
P 2.098862717612489 1.209078860421998 5.544030600650728 -1.7471543295940946 -0.6496581192636037 0.11609739191691618
P 2.2564631561078503 4.679801773544876 8.19106028393549 -0.4126689993649215 -0.1845661262122757 0.06484913526490121
P 1.5943014754530445 0.8368047393895508 12.209377734553726 -0.4725265949525024 -1.7512472687165452 -0.6922409869311369
Ni 1.5590282825547546 1.9418618765528493 0.5226953171060396 0.4248300602074877 -0.9352876258778084 -3.0274780861791992
Ni 2.6831329438831295 3.852713323226989 6.180119161561592 0.14619395419198047 0.5903080594400608 0.15845683071973357
Ni 0.2991176126484929 1.8419258476959939 9.76472342827681 -1.468860180299038 -0.4596996183911632 -0.25167011894962465
Ni 5.681775932184775 3.7960513655513295 10.221486449228344 0.10807709271560095 1.238305760282106 -2.4380148912379367
Ni 5.759255163331882 1.4979911373403163 7.090914224519146 0.16412328497689155 -0.010582403501536613 -1.8275419268142266
Ni 6.1831705503868175 4.328184721044019 2.0901142162769184 -1.187293273789981 0.432780682513132 -0.004401471501805323
Ni 4.019185930029039 3.3082226393324814 8.206293806286784 0.3561355830545673 0.6753370120869466 -0.10402606257467892
Ni 0.8180748144912079 4.487434052487614 4.399663293478947 2.421287808291243 -1.5981270197183766 0.6093540203279184
Ni 4.908548195272538 0.01801415545945076 10.512400819459376 2.735624453032153 1.2186987846844561 -0.7839918316828886
Ni 8.376020166048614 4.103354420068412 0.5704954120559376 0.13088817707284556 -0.12061122062686969 -0.07827903551756196
Ni 3.2394282022933996 3.9475434051702805 1.932495040361691 1.2212989413114643 -0.0013261750105912644 1.131020053119549
Ni 6.279958692706136 2.7021420563374803 3.903903954301692 -0.03784792408570901 0.8925322371881531 1.6257512091935484
Ni 1.2218109372211416 1.9991140629542967 7.305631939992918 0.8917817321753738 -1.1039525074787955 1.3147899086827743
Ni 5.121021167846329 6.28200107147156 6.2480619828677515 1.4357207174325919 -1.2450366512480364 -0.2549127942566384
Ni 7.467639419640831 9.092332990116997 1.996090780258871 1.7164751553426827 1.0832440712868505 0.8699492096813147
Ni 5.346938239174181 8.04982042359638 12.71978130422748 0.45029040926212127 -0.9072487174627215 -0.3872976104796685
Ni 7.47526554952641 6.31038826256899 2.676784706032431 0.8505715764856513 0.908383602398113 -0.4684917627614964
Ni 7.147210802507414 4.340129826208779 11.957885021979381 0.8043541973893243 -0.44176823072372307 -0.2399273765913997
Ni 3.2553081656300797 0.9428482302518232 7.426969849821049 1.536106355041206 -0.527429417637969 0.7864513489669746
Ni 6.175572526631036 2.9070263738654227 -0.05444157342150425 -0.16102330589532912 2.66697137064013 -1.1144618916505518
Ni 0.01573755894569658 7.956301961043729 12.000858357571722 -0.1563665238496081 -1.23131955877226 -1.134663563409407
Ni 1.7151859397204114 4.3313326075815555 0.3591279472542584 -0.9873576071001706 -0.1807002154989662 0.7620778052186166
Ni 8.647600329590615 0.6470836788884027 11.787156210254706 0.9198481513942868 0.5110826008488295 0.010157400148976054
Ni 5.381162136559959 7.310076455985202 8.796721148725487 -0.31650202782334524 0.13405911860165945 -0.5680196803555055
P 3.2519822736038133 8.068679636691801 9.079080013045571 -0.35726918243837824 0.19524006098635407 -0.8889020966347336
P 3.3550568202882722 8.614622470625946 0.802643612360325 0.024690303657828445 -0.9642166502073328 0.29766304073997124
P 5.4230121638313165 8.701142506858538 6.225807549292559 0.8160899977690138 -0.01330314486680935 -0.338303697079469
P 5.145838880459229 6.316721510483795 2.407823096916744 0.020849332645183447 -0.5944025412244085 0.9299746983053275
P 4.964797929711139 4.07889271843297 12.289853079137453 -0.9542721374001113 1.0065364940214665 -0.17256447376570927
P 7.896848127807992 6.177699223785861 12.53738376428107 0.2854135339486569 0.42237157136466613 0.003412625225974768
P 4.622746330052023 3.006297224317025 5.527754340883875 0.6725427371712611 -2.597587837839985 2.0404958601405765
P 6.90410214845224 8.535531821370338 11.115895638512828 0.24570567383607358 1.7514421583361708 0.10595104751153364
Ni -0.009990792272705579 8.918074985360503 5.818298647072547 -0.529234846277824 -0.02226138250136166 0.4579147585765985
Ni 2.591666228805837 1.3055390978936565 9.958982691869574 0.2930893053263598 -0.7381374923529351 -0.7937260282515168
Ni 9.166130318260379 9.097504518000093 0.26333007757487326 0.32373839767078444 1.5484378800233654 1.09681949597844
Ni 3.6002265905287376 7.680093654794755 6.907022375338401 0.14064217113581584 2.1728683350684324 0.5105614382380368
Ni 3.194036802667313 0.9364362851735789 2.4467238543011476 0.5924575016828958 -0.18776226455207018 -0.5883655910017093
Ni 1.0068271503852686 2.843347252449838 2.422041987982278 -0.6270756059773974 2.0270898711473153 0.9118579340999586
Ni 5.470577104161893 8.295973908379825 1.5911329777536551 -1.6198001338164365 -0.5728034748973941 -0.9833929660254678
Ni 3.3932062071360374 8.12233423847892 11.14832542794641 -3.4735588282353467 -1.795156568504986 1.388101830003048
Ni 8.368328455193502 4.0388789583085085 3.2367581199624533 -1.1350559137518195 -0.5688676301780977 -0.353915435474797
Ni 0.5303785961222116 6.36538258987655 13.460945568264522 -0.08531820175253048 -0.8286354385341923 1.3826253802695092
Ni 7.393757773108051 4.154104721776257 7.692325442483468 -0.5455091579578153 0.615569919330643 0.0718006268820699
Ni 7.074462769876544 0.3978385198270193 9.178136320039703 0.15308425355391053 -0.31830102870529703 -0.13357729386923445
Ni 9.027042450592912 7.5840737466899535 8.578274686698323 -1.2027744001447156 -2.022192176735382 0.8594303124278618
Ni 7.336037151209946 7.383161762173665 0.4740876393599046 0.6757558447919201 -0.30723911446418056 -1.1726649823538449
Ni 2.7909293203738934 4.4619230553396605 10.499841126923002 2.4251318646276814 -1.0965829544876018 -1.6897683354754576
Ni 1.451756553820247 8.725004611058257 7.668110137919268 4.572032571987759 -1.290043812086346 -1.2596153203931597
Ni 6.802329852448488 6.553881033731423 10.51907883589972 0.2837168629725243 -1.1728863543360317 0.26990335412819966
Ni 7.487838358256691 0.9045414490771808 5.100198273148921 -0.5078147287308351 -0.4338456334425367 -0.29274246350990224
Ni 6.636025882425235 5.190490152000597 4.5802095763425665 0.2059062824509486 -0.7433907703320746 0.7216600635232023
Ni 0.6711865589334043 4.181601885430036 9.686153679293485 0.34164741674072124 -1.9611415892809643 -2.2631636783205797
Ni 5.681513608306647 0.5378351523580016 3.4436042453503966 -0.3505195224193705 -0.0041065659692058306 -0.8667489575764621
Ni 3.8715256927727437 2.62283592675341 -0.017155044758581383 -0.4421505537638063 -0.11809359641133856 -0.0669785229030782
Ni 9.20265891828971 5.80926533695501 10.69320848933013 -1.8412428213400869 1.7289876859873965 2.3794207357438117
Ni 0.017498876413127796 6.511000448367418 4.548617349577009 -0.4746215298083181 1.8687569675999558 0.40767051770906565
P 9.244771269439195 0.2802405990041995 8.25164023610519 -3.198560318972427 2.1509100856297865 1.408126352754091
P 1.0335373424046645 0.7400746830718178 2.180175624864239 -0.8801279499865294 -1.461768049338947 0.4129806170680694
P 2.6611352129601054 6.902668735832468 4.874964180775194 0.41852880057980824 0.45320861135018076 -1.0842910244941262
P 4.93012433424857 1.4907210184321962 8.976555409634187 -0.19517681184858646 0.30542365852199654 1.6228700309910113
P 8.196534421149426 1.8472004313883545 13.645372370782452 0.03703005617010397 -0.19653743964153894 -1.1483863123121383
P 5.361272365371893 5.173336044113009 8.17109556306796 0.5409940436962812 -0.02554596678990439 0.3512893107058595
P 8.002826974571725 3.5228316777710287 5.478225718951313 -0.7492649697246645 -0.7722807138935474 -0.7798263874512893
P 8.398626863117293 8.39835517052923 3.7869674644001523 -0.268146519338093 0.1436354494361849 1.028455919802377
