# total energy = -340860.6713368729 ev
CRYSTAL
PRIMVEC
9.35438222250438 0.00000000000000 0.00000000000000
0.00000000000000 9.35438222250438 0.00000000000000
0.00000000000000 0.00000000000000 13.69108393808224
PRIMCOORD
 96 1
Ni 7.353666723638117 4.66959520739768 7.586215723005861 -0.3400134806817241 2.2184264833142047 0.5849791910279796
Ni 7.384695208503414 4.509962679744288 13.193371632768834 -0.40752705015266594 1.2353397356752467 -0.3566729436152761
Ni 8.947513088960308 2.856126663098265 12.860540852785642 -1.9104756874949806 -1.0537900276917918 0.47797424833063495
Ni 0.015528274005545304 1.1006739955352305 6.648869235986788 0.5474801656412571 1.1323248879739014 -1.0128889186020555
Ni 4.071485381108185 5.417029032452548 3.0299741095340824 -1.6792247556316562 -0.9033725223367668 -0.28198419655213375
Ni 1.786144394678814 0.41184163152562697 13.439701507597404 2.077750887837293 0.6783385179174317 0.6890463912532391
Ni 3.0714177632414126 5.085491028052225 12.825190643468197 -1.1162197548819228 -0.40720411959560837 -0.7474837094545256
Ni 8.552926550344697 5.902165988160735 5.107554273274802 0.10918806639159259 -2.777229015946817 0.27554589712595773
Ni 7.1876077355980925 7.130564714582541 13.420602666008778 -0.3020259456943573 0.05035145586935845 0.5434682162683866
Ni 0.5220138001567778 4.531430986276051 9.22743454930328 -0.62343338123912 -0.09603687372161525 -0.5212364014533797
Ni 6.036055256739873 5.894682482615894 11.275976840653632 0.201852166986233 0.07655356818602299 1.2168889851692268
Ni 7.280552874465019 0.6545831654454449 13.63685352573805 1.4166493026234377 -0.8511454467112503 -0.30908285254113865
Ni 8.63026858015063 0.5393970480992506 2.558151245628361 -0.32886697714660135 1.904957843000545 -0.9928217155385354
Ni 8.688153495539977 5.724788197984139 11.317487845910867 -1.2263848404748041 -2.3630065560518467 -0.8044048481216018
Ni 5.769464726086841 3.1151588531510086 7.7293424437419125 -0.12104856527460443 -2.3294024948441563 1.1208315426223212
Ni 5.534520069506553 1.7431142377959776 12.24393554254207 0.33117891310922964 -1.1531469669255754 0.707163155458608
Ni 2.712368521581867 7.956135691907481 8.759254281721512 0.2082477860999317 0.3718177696765145 -0.4073537577995952
Ni 7.775259362888671 9.188949686600743 7.724112408804261 0.16779507740152394 -0.48242508501313697 -0.7312417936743665
Ni 0.34258085226992946 3.0304736335292004 2.3912438151471904 0.481839387712996 -1.0394574131192034 -0.4127906125444504
Ni 4.351050439499587 8.716244704478923 12.643523869176214 1.0500976664418689 1.2831745957703384 0.1447482228843894
Ni 4.148724512712876 7.890505348279224 3.730259043341872 -0.5803494055654521 1.2547577351905421 -0.5347426634699307
Ni 2.168083808923642 8.497567318076735 11.41236653552294 -0.06067983437856001 -1.1840804232796383 0.41454641889329247
Ni 1.0063724712883013 6.821252721650396 9.87046318218749 -1.3222846743979226 0.7899897011375362 0.5429719933582585
Ni 3.7067673839984225 1.9958322200452618 0.2529088116406777 1.3799288072739524 -0.26234173973085784 -0.36734173618303184
P 7.242153136638053 5.071281721898957 9.657498516830596 -0.11042013902648079 0.012984585185126025 0.7089703838706758
P 6.135361375319915 0.902272231968596 8.550546795581438 -1.0991594569655263 -0.26178509589643945 0.6154830160437916
P 2.904058516112972 1.2663120363883573 11.79849671287288 0.7999840933460867 0.0036674215492582003 -0.4433080644070172
P 9.389835038570071 1.2777056735803778 0.7512625735792473 0.4566114663841426 1.1803515523648251 -0.9444386962494573
P 6.1231913244276175 2.7106660240704157 3.987226721302433 1.091276968893656 -0.27119327658421677 -0.9780833808870962
P 8.596237338685466 4.598997686964035 1.2768909069141834 0.07016540527149207 -1.070472373443479 -0.24713957806912273
P 2.794565475610016 3.7846051960467015 2.1612607227431333 -0.08393006315575223 -0.8994809005918445 -0.9271202595756678
P 0.8576565073484465 4.084132505478967 11.41681641500754 0.8642231058308149 0.362633274963769 0.06722149215181972
Ni 4.3020241237989465 2.0060097875862457 2.62247197578627 3.048196806783789 0.16430351930849768 1.1651321643119095
Ni -0.12207187788564128 0.29752921345179284 12.184311647551743 2.138926430905349 -1.145898255782962 0.3702357699013753
Ni 3.502056089819294 8.880067995237427 1.6406164041010614 0.24001890786394145 0.42559367784638963 -0.5476735125989859
Ni 2.7845001606522044 5.500208196583457 10.2660403498496 -0.9160837992558482 -1.816245013744169 0.2538552995264015
Ni 1.374579652858346 0.5207808926182652 9.887865138893828 -0.5363840557280956 0.6388630855306288 -1.6304018205916824
Ni 2.7495896072855204 5.4531650098522 7.755505714564871 -1.5301820191369713 0.737997110120329 0.9036399170655404
Ni 6.510107269859764 4.608426903950535 5.436661073811245 -0.5056280054921615 -0.7112697214278138 -1.3841855256677775
Ni 3.832565112207202 3.524366290724852 11.340789611301116 1.08104783496648 -0.7421792665224767 -0.07943860304330191
Ni 0.5610533777078277 8.501935814438536 1.1186559239212905 1.0501912545969396 0.29213979692889686 -0.9589492311608065
Ni 0.2513709512512129 3.4964808781883874 5.075955171111711 -0.673494302451253 -1.166736532684552 -0.6157020740331332
Ni 8.191332916799906 7.869747974774222 2.3158877206252195 -4.1233681283648345 -2.598948465632937 -0.15267467682031768
Ni 5.238678386555121 3.9409636900242253 1.03098759190167 -3.2019310352168726 -1.453012157523188 -0.3334445692149548
Ni 4.4669792947711064 1.3314653065381301 10.1341809821495 -1.3703928427590593 0.9030267089615738 -1.4155049046063493
Ni 2.0633615032055217 6.438873651454808 5.344958196864762 0.9400547082491487 0.39742338605976074 0.5249560163968121
Ni 1.5956517610348835 3.1626416958330257 7.116323603530708 1.529865773448133 -0.8395477145713219 0.8357334830315541
Ni 6.075661709835946 0.2603259010738084 3.354219437780958 -0.6771280425490983 1.2641204073523649 -0.10384505691212437
Ni 6.526150034871518 1.640880197671517 5.955854527815811 1.1059895925134824 -0.7170619026295586 -0.49010008505989144
Ni 7.015973535927162 6.988892600236768 6.327361935331131 0.0472717885027702 -0.20209693600718745 0.9971339697606441
Ni 9.086930797260697 2.4460679767686964 10.395530252606566 0.9765026666635376 -0.6305959604258301 1.4731937746773853
Ni 7.594504640834965 2.332468362598008 8.848642884578252 1.2567696234142485 0.08788827647255186 -1.8017540192168453
Ni 4.648678809399849 4.725908586622609 7.067009172866592 0.6170439327730083 1.6913917300114936 -1.3769612400051965
Ni 4.678640894725007 6.399903296330049 5.3386870192181854 -0.19823668172083278 -2.0939082143234455 1.4535376910093547
Ni 2.265060686402852 1.5844171483356908 2.094804387190365 -3.0088990376254308 -0.5655370231429679 -1.0920076764120934
Ni 7.828130329562973 9.00395742953227 4.698300999229497 0.37553712750963064 -1.3370903719521876 1.6172241455591438
P 0.2214677985322209 8.466623022648818 8.634815745207314 0.8062398444478116 -0.016859494759499993 -0.6818835549562128
P 0.2177728176694556 7.558013196921935 4.914373190263888 1.2501235788526406 2.846584266612188 0.4895460123286343
P 2.7354644905696333 6.800036983430771 2.010603724552585 -0.8942723598077114 1.3406117548418848 0.5158442839035309
P 7.59179187007496 1.143938011966343 11.479288719295877 -2.9021409208315694 1.1018709423594184 -1.6586114502566793
P 3.3810945770688687 0.9204384416786978 4.582720126965812 1.233150955554044 -0.5974616397657065 -0.2667972043990502
P 3.9695039092958626 3.568490910293621 9.026407946166794 0.8988887755338003 1.4375986511815952 -0.10446932075968461
P 5.4150646122470265 3.916268121726249 12.648206672770897 0.008860278604107322 0.5987477055669816 -0.26369362577306193
P 2.4342627467717093 1.4389565093078416 8.045456007776126 -1.50003609168121 -1.6913966151075 0.8030447345492815
Ni 5.67399390409853 8.206973443388623 8.12783537225193 -0.895670782817135 -0.8639827076852347 1.4839978072714248
Ni 4.361424449061123 1.3091551056325725 7.284628578672378 0.2353922077252075 -1.4305528000784071 -0.08069330138600941
Ni 5.404269655498593 8.507604569888754 5.9373712045582465 -0.23901052120408517 2.541769959539416 -1.881413480021702
Ni 2.2610102390267066 2.7214142089091937 9.972147184654407 -1.7536754185420635 -0.15564172986844163 -0.7842851945535912
Ni 6.291495364131093 3.2191889346062315 10.528977058920365 -0.1038270591899954 1.1414903565232533 0.32540241563676864
Ni 0.7202874086909568 7.158216267570729 2.898566558481252 2.571685773262242 -1.1012263667968842 0.4480394084444155
Ni 2.24466813379316 -0.19045708699259245 6.1641363895780215 0.23095448366882806 -0.30116745434880393 1.017918510606163
Ni 1.5852777514733476 9.445680698698448 3.840033650740953 -1.378940218108438 -0.5532695186295247 -0.28389401198033687
Ni 4.690399352812338 6.293253987934132 9.414960908436875 0.5668014916776883 0.4165714197431213 -0.9764203913623763
Ni 5.917497820145728 7.769628024966178 1.9438602094745334 -0.7553787959318861 -0.5293029805115981 -0.6391464210990024
Ni 1.7698584157368535 2.7668671507121725 12.979406983983509 1.1526427735956473 1.046782743136023 -0.5076679187403257
Ni 0.6410006028815584 6.374384542422139 7.409203689162768 -1.471963244704394 0.4491020453809749 -0.005020336032726838
Ni 6.7488965774137135 2.3573323097707424 1.494683368785694 0.6965028475312843 -0.44819624573725386 1.4417484116839108
Ni 2.6487400156868555 7.453300245585745 13.520137031507936 -2.988436913116337 -0.18515696571873919 0.1605653924223041
Ni 5.827770588663083 8.903874897251953 10.582468221116697 0.10862268080642583 -0.3614212569335388 -0.5720326581696406
Ni 2.5827822686910125 2.9358914778243403 4.137937974908181 -1.4262770555211888 0.15431632618879873 -0.20046120017597735
Ni 4.5301681447153594 2.7631160435578206 5.392425137097496 -0.20366068094988152 0.30968551912214404 0.39916248023805445
Ni 6.544896216261344 5.391210938322846 1.6999811827118996 1.0780018490513048 2.5801429028906595 0.5150510985782742
Ni 4.201464518040144 6.1209275640003025 0.653862878036754 3.1403148050669722 0.14783946021520344 1.1052005209532836
Ni 7.8712820934109144 7.264163997321817 9.275093254365602 -0.7033070149373113 -1.423889786235935 -1.6500409349788487
Ni 8.036864007972454 4.403687546625613 3.2559862668084083 -1.0424992852693207 -0.3257130048986519 2.0188060338719684
Ni 7.747074610130414 8.026929654361679 11.289804488024112 0.5546728267349543 0.2596999312326366 1.822781786421422
Ni 1.2168647735008198 5.034696734166615 3.570785540181308 0.8654459224943224 -0.8456965077815372 -0.5070102305516687
Ni 9.387402899267999 6.313047860100236 0.40122908522484924 0.46126207778227657 0.3157507514796175 0.4315941184041986
P 0.31928282863245283 7.220151630336219 12.204697652094083 1.5864459838360228 3.3853576485080663 0.005206226791287808
P 3.725345186513491 6.9140949623160814 11.548538273293257 0.9330656785258253 -0.40897483834278603 0.09943921453494486
P -0.4548586922737599 1.40842380668489 4.338485633689799 1.4240293971375928 2.2388433564076604 2.707137915556686
P 3.6763001620489884 7.602961002100636 6.871294923228748 -0.12899944469056493 -0.5459645003276791 0.37792825344962655
P 5.436140034737686 0.3831498712667062 0.8641465775322098 -1.1255590300049776 0.5341582517213704 0.8705511049313717
P 9.133468847367677 3.9491768373596883 7.083164190461517 -0.711466153709336 0.7552620678483638 -0.01466222999786507
P 2.8137980848602573 4.2704624391635795 5.780648825123605 0.4989225684475278 1.7951280292598957 -0.48209392692596337
P 5.90443910296998 6.160515308332512 3.64330725697817 2.31517863793529 0.6558405939252318 -0.18036957163242484
