# total energy = -381164.6083956745 ev
CRYSTAL
PRIMVEC
9.24225717695652 0.00000000000000 0.00000000000000
0.00000000000000 9.24225717695652 0.00000000000000
0.00000000000000 0.00000000000000 13.52697760015380
PRIMCOORD
 96 1
Ni 0.35886206017346317 3.752291734812787 13.077787494256993 -1.221531883257877 -0.4080135028707812 0.3248411438166599
Ni 5.279445348529097 3.886285979963112 9.312769171254663 0.31801306515123295 -0.1553203419732809 -0.653307543090733
Ni 0.8337283118219092 1.518937247049277 2.300871025194339 1.2365952053489027 -0.17422643484916445 0.2541471197352075
Ni 8.676603349730266 0.37246666279874097 0.7988785325290184 0.8855745749233974 -0.5738221459698956 0.1696863808869658
Ni 3.511244424303364 4.17844297288951 2.3632303830973784 -0.1302993944489111 -1.7937902842850784 0.2915638698207688
Ni 6.9552052160577995 5.4910837965700185 5.144891022591346 -1.0039846741338903 0.3910881878703522 1.4790175804480141
Ni 7.443482907155661 7.530665119495502 7.560336462069003 -0.5872327629488467 -0.033825433189877234 0.3943763717033208
Ni 7.211705580636153 1.2282497730205826 3.513673289500322 1.280388548384769 -0.19523080501497345 1.665331799699648
Ni 5.121541383955135 7.482808711619355 4.812465514964992 1.1317250496063735 -1.059663455753433 0.8658102478122767
Ni 8.100487246030067 0.14629384105638435 10.951022110540224 1.0262848802929874 1.2214046136513932 1.8531223463864925
Ni 7.823884972002 6.457389515510694 3.243660744868874 0.7124472866756828 0.2578456516327172 0.3634292885025031
Ni 1.4332245536071393 6.739814411586264 0.0989688629702871 0.10484084516649042 0.730357077076568 -1.2371503065214242
Ni 1.606405969362884 3.8840678382307297 3.9961533126451707 0.37585902962542367 0.4632032606690474 0.2130323519727686
Ni 3.873494695973041 9.088724841349672 8.01634388786359 0.14755406776430072 -0.5624532420113216 -0.3380126482016114
Ni 8.55010457518395 4.988120158752342 9.476229580868242 -0.6022117528561821 1.944499866959225 1.2430257914655949
Ni 0.19389885953619485 9.035452470743625 5.885587697479977 -1.5894696011536948 0.9639389710659141 -1.6444930085774259
Ni 8.432737150769274 7.452226082484135 12.93495580275457 0.6858232563302512 -0.42902687189765465 0.026137063406684022
Ni 0.7400617318177374 7.048200808187926 10.745600928930026 -2.0063438968492155 0.7031298659294988 1.0474142060724347
Ni 4.265976391003645 1.061630359889802 0.5384197091840849 -0.5587354268401022 0.36460891063290113 0.6063491720633235
Ni 6.976083475113848 4.385672864237322 2.0414103656289773 -0.7279602947096172 -0.8230546020123052 -1.0818965561200204
Ni 3.9478948665800293 2.2922184239866046 11.64202039568911 -0.3231226184636565 2.356747462516012 1.3788463728430511
Ni 1.044772482723697 7.700436142337709 7.395347383111523 0.7634291770401885 -0.9496711482929903 2.46191920865936
Ni 3.6747307122371544 7.43685620873017 10.37585426243062 0.04500561817641281 -0.21952541589627997 -2.6165780057892416
Ni 7.173507331553086 3.497482703305376 10.900512250616716 0.42596828757698896 -0.20622458502231578 -1.7220876164334535
P 6.431428014984603 5.521093405757707 7.70508777039566 -0.22092769556044534 -0.8922375887658698 0.05695584855975352
Ni 5.65031864618341 8.74737131325048 9.519462087458095 0.1831641036584265 0.6897634719249217 -0.12488028031586879
P 2.9326698801831075 8.65407072663215 0.14251468207983808 -0.22368186126681477 -0.6855921141560516 0.196559551128726
Ni 7.117129562521704 3.1360734770425602 4.864477241686468 -1.12687517771324 -0.9454787074781974 1.2672445548036433
P 5.296719127270023 6.109141263526679 2.682711185263839 0.917463453212194 0.4044108731211874 -1.2575178144341828
P 9.036145640034993 1.980162851269294 7.11425706897827 1.0267718472317349 -0.5269280525215183 -0.6066872721290326
P 9.117172509067474 1.9900797932644863 11.928548853969588 -0.7405998378504987 -1.373583581782215 0.9135574332895685
Ni 0.7338879039959402 3.339643434531942 10.623628087743493 -0.6047172928868554 4.855245241630355 1.4539567808246443
Ni 1.8684701727866293 5.713249175582538 2.0648256242914376 -0.5783192625093008 -0.0009441090808241805 -0.7050970169581986
Ni 3.137201032423188 8.191477268343831 6.028338057118881 -1.7500326795831538 2.3029484144176853 -1.276053411344525
Ni 8.82871241902838 6.427694143068426 6.142546478016356 0.48121023876942925 0.032825274060137015 -1.029017448732802
Ni 4.238194165805557 9.132246630590455 3.4541540772404535 -1.4971235460201056 1.0159176781260502 -1.2720473755089254
Ni 3.683279800164044 5.570169791586665 7.819364583996549 -1.0869983961229601 -1.6114142237455862 2.70625371317952
Ni 4.923285724366252 7.213609485623113 7.060473601548052 2.3272062585237854 0.09503697170219116 1.1567364840490466
Ni 5.873787183463704 4.819439722261889 12.471278227694548 0.042035736914811474 0.4200755762416378 -0.7938856937578327
Ni 8.022981676997743 5.2720885117833625 11.941845689429499 1.7459315129305866 1.306315038442544 0.32353425207977826
Ni 6.91617516382509 9.117227962610784 12.960034667716315 -1.823865506403904 0.3944936140074754 0.015153824922302933
Ni 1.5737068633246822 5.876957277689566 9.16466292355778 1.243456194134794 -0.9722644602124738 -1.4499965106253154
Ni 9.30473487705483 2.07735442817651 4.608790195743322 -0.8757159369617629 -0.08374520083845578 0.8546002380290703
Ni 6.536105820238609 0.876080031298861 1.3850945749173318 -1.7211285949542936 -0.188383700186153 -0.4354764841777403
Ni 0.7602394277766413 1.4543523536080805 9.865225096476118 1.309605022047725 -3.4810384244418437 -1.1541635811155477
Ni 8.969176244231486 8.935312613783784 3.2727304164974655 0.10190927334199223 -1.2660207096988711 0.9936838064285145
Ni 6.428304132044831 8.165367891702248 3.100707979796891 -1.869943017488257 2.39863998898474 1.7338419287559044
Ni 2.21025808697508 1.2635182265654603 4.444924051037861 0.6587711373084655 -1.000938945329031 0.16466964439866477
Ni 3.8045197303531713 3.1318035542077247 4.630595453198361 -0.8990091031617485 -1.7080393658705035 0.9684034345951709
Ni 5.662010101564508 2.4870174793758575 6.979515125218986 0.6418363092263398 0.5352404290419557 0.22249298316503616
Ni 4.840096167144701 7.95015269011786 1.3380792124480463 -1.1951096845106064 0.2680493316385964 -0.8322635222050828
Ni 2.635974938962544 3.345669386238247 -0.04928248816492458 0.4924953247649453 0.11454727382097693 0.5854849270198045
Ni 5.5146885215054535 0.858929174578937 5.166088139521423 0.17685718760379218 1.2647590693776283 -1.5494727490457831
Ni 8.50783973292485 0.1807249460972879 8.650934828757995 1.9584043928554598 -2.002513724469848 -2.688093497330725
Ni 7.18936704493962 1.6959357150361627 9.1573042383606 -2.432769583678597 1.9819749810865477 0.8937985054950865
Ni 1.5775701268419147 8.173011238421749 1.869671666225003 -0.0709328795651359 0.9714280803541077 -0.2720193720299379
P 2.032039641035384 8.335739661263643 3.9586158849532103 -0.6368324282538452 0.46993080920086805 0.8476405188817854
Ni 1.8123327024429214 5.158944798917431 12.066957201167355 0.8578480555424065 0.08682306843283112 -1.6326466507618012
P 7.604372120811122 7.774540560713714 9.851237864402005 0.5674761491472098 -2.160809089911053 -0.7896454304242401
Ni 0.7805714694310902 3.724842230874557 8.32858707840243 2.395162571959101 -0.9066501646467741 -0.961003542586674
P 7.027146946244731 8.68099342190894 5.431095077643463 1.5574441972870339 -1.0938251892368065 0.12505511533083624
P 8.019746886971353 2.3709439709717377 1.831904106328308 0.5894513678667203 1.2170226825336137 -0.2179760691312891
P 3.073568091475472 1.9589795977250435 2.449736062208843 0.2571604526402345 0.34144018582592167 -0.20256667655475435
Ni 6.034149588457723 7.655768313201861 11.494793086653683 0.31474493592292246 -0.8327450898271918 1.419825129248258
Ni 5.367976930422803 4.3102930143651985 3.7704287403778998 1.4176931705069198 1.7917693972003077 0.4717619488723359
Ni 0.9889492491254103 6.395300031518427 4.0804131232525975 -0.4425745286751023 0.07275167794142955 0.8585535662498632
Ni 4.960439598383656 4.453289218046107 6.24176673038298 1.015493188994122 1.0294342245552464 -0.12160520910902281
Ni 6.391325860914575 6.399080114720695 0.5124138458233466 0.39696444414547116 -0.2924696694644898 0.03495209059515271
Ni 8.789580701966269 5.6990160994664185 1.2494431930477732 0.21271893449740786 0.46264867371715807 -1.1685792423202455
Ni 3.303783476525095 6.066063102632373 5.674472361197609 -0.7799356593356439 -2.0417101921636513 -2.022064392908266
Ni 3.399949162881084 6.714841832582527 3.364795313325713 -0.18187340987146097 -0.030451631621637876 -0.26706845578256583
Ni 1.426329829722318 1.0950873310199012 13.457435390914322 0.9593269262151993 0.6303815304221788 -0.5035603243298553
Ni 3.784593423790604 6.941683793747486 12.517093945176903 0.16944752540328237 0.31613281740938454 0.29014487798605515
Ni 6.3193101926698985 6.040582199481632 9.990930885353109 -0.09297571829778827 -1.5074989757171586 -1.1093106864669153
Ni 8.528154214290584 4.469564833007462 3.7730526172021635 1.8311725815882784 -0.904214815732404 -0.7916226087552688
Ni 2.0952751649227146 8.674052486738027 11.625760492565027 -0.7507472106971458 1.0396011377859191 0.3762408384448746
Ni 3.8054624405894337 1.135060093488873 9.79612905728669 -0.5905052630525315 0.3821911424910386 0.09424198660472156
Ni 6.168458070353468 0.400884755293445 7.351276603791974 0.768289076235651 -1.610602269367252 0.4380848683348649
Ni 3.5859126203696814 2.738111123481529 7.903908131900577 -0.3318558845715962 -0.2916980814057879 -0.11021522210452632
Ni -0.020252558242371817 4.1249765148818796 6.006343333390867 -0.42505734572694537 0.34698271291070565 -0.3161487582489846
Ni 6.132163726257363 1.4987983685706898 11.403959258486909 0.146954743617405 -0.0722629112304691 -0.40761806720457544
Ni 4.090059267111295 5.432968483181604 0.5723313993693223 0.04061983040389133 0.05830927726385441 0.7209391261967777
Ni 7.114782029188266 2.9017268030163748 13.11161785257871 1.8810077599428507 -1.0315137327920947 1.1345571197385298
Ni 2.8544896263738515 3.7748151156536855 9.884527550676452 0.9389779302452023 0.6092560612974732 0.7579961789500752
Ni 1.74564981661318 0.6809722845185179 7.542804824351687 -0.5030162789009273 1.5628106038052698 0.07204128213796625
Ni 5.2621530852737335 2.1725774042962365 2.865040587214216 -1.3157350462048631 0.4604503805142587 -0.4931347581211572
Ni 4.431782485499219 0.04906621934601731 11.845858378637821 -0.22060167967959426 -0.8330909032023845 0.6740429758658714
Ni 0.7684012651260863 3.7532344450490496 1.8484884126807524 -0.568446226369963 -0.2930790209137146 -0.44667132445229524
P 1.9481753990368982 8.586814820854876 9.373965853199646 0.014156236895724006 -0.005369234731713334 -0.3156772179292047
Ni 5.057187546944395 3.246019368910974 0.3809159343476737 -0.720721610869333 -0.33418633247698576 1.212376442010854
P 3.964281388628003 4.752294723571236 11.77033712223026 -1.8227951561578608 -0.8755441872705889 -0.7618397210658815
Ni 1.9708281714788523 3.049492011421906 6.201077692979593 0.5488490209643258 -0.7925723742630478 0.49067421239580655
P 3.7487519502981943 1.1651528829915256 6.165988539224749 -1.8672194479095068 1.2268478961541516 1.5382324002452734
P 1.5699545068940688 5.647684602876206 6.859218829491844 -0.6622025315875176 -0.9972542973885922 0.5824091163079582
P 7.607172524748254 7.8131454691143825 1.5636642266313214 2.7240524319238375 0.43158769064629543 -2.992397954646614
Ni 7.814476354153813 3.5460969762734202 7.926592328017073 -2.6698996000305177 0.245652452000635 -0.9131972217366725
