# total energy = -340867.00198900135 ev
CRYSTAL
PRIMVEC
9.26196853632845 0.00000000000000 0.00000000000000
0.00000000000000 9.26196853632845 0.00000000000000
0.00000000000000 0.00000000000000 13.55582716704607
PRIMCOORD
 96 1
Ni 0.35525391771752884 5.324965048818794 11.925386523325304 -0.22587501226339166 -0.0785788261461679 0.5521834846541974
Ni 4.46537101058127 7.748016424498237 3.0164694048306413 0.38225130630501264 2.1014353759384266 0.3877395831130935
Ni 7.226317522540399 4.0129886811774895 2.5613195992270814 -0.9792905138213198 0.842663120271852 1.2010242502228285
Ni 4.871758404214946 5.356455741855111 12.917497102647069 -0.7692473263838623 0.11500081641862775 -0.03942221055136436
Ni 0.5029767587508939 1.3489686699904373 10.699194508302346 0.5319602156287871 0.2652709975625108 1.484160300991218
Ni 0.30358232142920205 8.034174204512963 11.223601609861307 1.0223019843858394 0.5341646794792736 -0.19857992399286445
Ni 0.7324651842530571 2.455357121947289 12.852604972464611 -0.45188886409749274 0.0191482907936767 -0.5714060803292353
Ni 8.788783829348528 2.3269028802647345 3.323360101422365 0.18164766701390006 0.4606483554576776 -0.742455917222631
Ni 3.8667792458035763 6.9359270229028525 8.964522272821968 -0.38540347878074915 0.602455236325556 2.1555159598329134
Ni 3.082994420066716 2.2358947773897775 10.89710888305133 -0.2229349557984612 -0.18804791411328906 1.0196738027343728
Ni 6.257747162460136 7.307933989315702 12.240532412476814 -2.0560674893265882 -0.29196599035519394 1.6192131509647147
Ni 7.471324376331489 5.7134212713588495 0.7939766959183792 0.6332567950874449 -0.8041857901322602 -1.9428980696897442
Ni 0.45758662952645834 7.647218420876402 8.227641908165849 0.003170427308181637 -0.6173938599132593 0.21722813522167103
Ni 9.066327978620967 3.1728355149056213 5.584797535652011 1.93316824399649 -0.6622981766251174 0.15726512440447754
Ni 5.122526202437974 0.8555076577176353 11.346823765515564 -1.383792918215049 -1.0678213089738773 -0.08236143311705171
Ni 4.8732866290240615 2.768106013640622 13.06822452627484 -3.848608731695914 -0.2509008448837679 -1.9190588011783016
Ni 3.6700365100749126 7.712117034436836 11.537906512269375 1.2425488518291763 -0.40383828844716907 0.18171965790241607
Ni 2.6662243596995947 8.161322508631363 7.399922934659055 -0.26555818978562656 -0.4361166888649005 0.44908944697548464
Ni 1.2449475013166489 3.6020721849277075 10.417761258439922 -0.6715896292293724 0.37266829060226786 -0.789375207481989
Ni 1.6775462659187892 5.243663488973855 8.65410739720074 -0.9735865214580072 1.1835772583909745 -0.6257481454152255
Ni 3.931733431175251 0.9352272733359268 1.4117305474086719 -1.7201780581155666 -1.839539208385419 -1.0141739559620664
Ni 6.398195653402111 9.352272733359268 8.722049493623448 0.3757988658114496 0.31393092466205935 -0.2651175027037821
Ni 2.499490402040834 3.476896680108346 6.672259154897182 -0.841559345684712 0.5702866220128113 -0.31551600976099214
Ni 8.6311821726703 6.093069361817276 4.752402194229325 -0.8389134234214326 0.241021638096843 -0.11301206812337312
P 6.296934551353271 3.9343638302406374 0.5067750920491861 -0.14789551026411948 0.3542365662596415 1.2922955842350003
P 4.792976099812912 3.4942813950581013 10.628433068656031 0.6001821240206631 0.5858685356114685 0.9322683794355107
P 0.04202155126640357 4.750584069804904 3.003076598321666 -0.18433781225155352 0.2610633872390665 -0.380332492015745
P 6.184799898238361 5.163362221731245 4.215672043527769 -0.4457403279975936 0.1397296866238755 -1.0573787734843145
P 1.8917941221882286 7.385252902688402 9.99857475048069 1.25013823414066 -1.1638360712083053 0.05292255903064434
P 2.288271209484005 8.44861951077652 2.38715383801175 0.9410939481469406 -0.06344068495314881 0.875088330680093
P 4.924977675446323 8.787505677689996 -0.3134879967828319 0.4891685743845575 0.9540129702014536 -0.20600038482665164
P 8.697257056235326 5.7906475650461475 8.819760483130871 -0.8670024683481649 0.33843945132638487 2.8002840979940675
Ni 1.9946575447945056 2.560406369129028 4.02724655554811 -1.2545399627527813 -1.1441555620602424 0.8478089261388496
Ni 4.475772201251795 6.695384437948088 5.229743676454948 0.9571787695239451 -1.7954501884860046 -0.13539249270110232
Ni 6.725847052476455 1.944022362785815 12.662796672581916 4.621094619621733 -0.7420802790507671 0.6280009460051442
Ni 2.326856570422034 1.7807616433295894 8.46813540468735 1.5223170145665976 -1.2335841864367205 0.8324226734907664
Ni 6.022039325083301 4.265757064605178 8.976966653752438 0.3053136153066935 1.2053329049005113 0.5359955620404253
Ni 3.689792288970932 4.1730910693615435 8.79413909955841 -0.880451137653903 0.9600146963108434 0.5287396518089604
Ni 5.954102785841715 8.677380871748285 4.933602420550857 0.0030966366474527315 -0.07014046557082759 -1.4224371129498081
Ni 2.139718496069448 0.04558092577636144 12.418222352721651 0.07422594849411088 0.8861397033982481 -0.7730708138950105
Ni 8.911440078724985 5.184692535279081 6.914813439418855 1.2830861498215902 0.029024926477440337 -0.7317819824485526
Ni 7.074717621476151 0.4421487803638307 2.798600118862025 -0.637395756956483 0.24119081668485556 -0.700245345292852
Ni 3.148976683946341 9.261023819302268 9.871204159117328 -0.11286037303685724 0.00017920589034162686 -0.2858405941837464
Ni 7.302450903939967 9.344029581358585 11.039621866780891 1.382907173175986 -1.2294953610793278 -0.19834235406076164
Ni 6.890135850440631 2.09628912558495 10.191609920202755 0.1299443251023375 2.1566012224772924 -0.41860387679211775
Ni 5.371515702701303 5.908478328813215 10.56369005616707 -0.03220152443320906 -0.7969838730671822 0.10672520667339683
Ni 6.35031127604983 2.2596332027580366 4.215103358659407 -0.6880773424717505 0.746760715245572 -0.36694655762714223
Ni 3.4146284656132986 9.045627478933858 5.413194561131724 0.6330045698673227 0.2496060373317443 -0.19108233006423866
Ni 0.5586254443303368 7.171005046418961 2.991038817810107 -0.26451920699815085 -0.5992495849040648 -0.4605658230462004
Ni 7.8027083487274895 8.384748975724035 6.8523349782379475 -0.8666664251649849 -0.9326375898494712 -0.1813771869613328
Ni 0.4760411018425944 0.19097993890301704 3.800430207969763 2.6119315081561663 -0.07554852396027634 -2.1428393928065095
Ni 0.08877967324421088 0.914706455838496 7.379670714249286 0.21551423785435786 1.1848316996233657 -0.6304414371258369
Ni 8.990111239504538 3.5782411398740477 1.0567702340938638 -0.11284906018294757 0.007131725948774813 0.4020125480923399
Ni 3.8209232395615738 2.0516649611587803 5.256719159827971 1.4218532154218804 -1.2789191629280943 -0.043147481921751496
Ni 1.506690732259687 4.6917149977640715 4.741435097281 -0.058086362619770925 2.0162431582407985 -0.33764420911859916
Ni 0.8565477767846877 8.351350317168459 5.951835455943101 -0.1327411711211843 -0.7470044558252618 -1.1844635176506697
P 8.562495413976968 7.08848090672673 13.185332856495782 1.2435973476983486 0.6496969429213391 -1.6999213647490594
P 4.651823699261889 5.826463597390689 7.463309994953746 1.2699706954855547 -2.545102109236443 -1.0666524854767565
P 7.888946537804298 8.28000537350412 4.016076621488756 1.7695013298307267 -2.3249907389297055 1.5713104137461649
P 2.7398847954989574 1.938641159064021 13.252570117112588 0.6401218976383944 0.7237691394464051 0.5624110759194766
P 1.4056333935187284 1.2426968429614063 5.651044691831883 0.7498144144702312 -0.4134351881069847 -0.5039806996967257
P 2.0808772099342345 6.127338645415622 6.399747033132578 -0.9261951766582371 0.1953436764437539 -0.5966183179288047
P 4.974260610048159 0.7511650987355055 3.310631378057714 -1.1738314918581203 -0.17858496892817632 1.357909622690384
P 2.9034233740113855 4.067023005640395 2.9159807509580444 -0.19225680998831404 -0.4499389394599735 1.1516685826078359
Ni 4.934526765011159 3.4404323099659986 6.873970010550752 0.9147913056966697 0.30175135187673197 -0.82276869534077
Ni 1.7109078766002055 2.079228579534098 1.8270946409514066 -0.28810933561326507 -0.024242674597448572 -1.657581466330268
Ni 0.9839081799826576 8.857174205048578 0.8414044582216351 0.19560412919399214 -0.6924651871268009 1.5169068992946197
Ni 7.016367219673564 4.661317217015485 12.226285652468441 1.025644161385195 -0.30771425432838617 -1.9238639358764287
Ni 5.996587435535123 1.0187424436619488 6.583184024856543 -0.35486802919605337 1.1112788659368797 0.1889359731451972
Ni 5.262437499204625 7.820889592971692 6.98754119498623 -0.000988846275830555 1.96837821623872 1.3311842908803977
Ni 4.059224428129636 4.263080355697091 4.705214316911258 0.5781004616302753 1.1359018066918822 -0.2244745323714392
Ni 4.890671343973817 2.190140652801716 8.787497341918309 -0.08045547434359047 -2.1828938376252345 0.6432342180151309
Ni 2.5923786845294305 7.237005834235666 4.219101750478165 -2.1209042832963148 -0.6677951951839467 0.3334119162048064
Ni 8.165156963606963 0.7876257640904369 5.212689613782075 -1.2746966402063142 1.5025904826719478 1.3329874055274076
Ni 7.75807492233278 6.860506813080872 10.82726993547161 1.0099573467775573 -2.2466998763376016 -2.3967967651284137
Ni 3.55961532113992 3.9349936441013633 0.9858911674470915 0.12739070544254835 -1.6253765994629492 -1.036394972143796
Ni 0.8417591916167207 5.952092938668516 0.8615974020327467 -0.9040939738838236 0.20052136398995143 0.3503233472481644
Ni 6.723957610894276 6.647351869099164 8.456585729917855 -0.13002557196223413 0.02472938442587999 0.3613729201941067
Ni 6.5372178011889135 5.199252349824107 6.31002078670357 0.27354737863869016 0.4624275588452874 0.21802980518735995
Ni 5.253740510745477 6.3568502258391355 1.4813675840742178 2.639242023045661 0.036831567006052696 -1.379138193051857
Ni 3.0233658666055945 5.397226927368602 11.233470237340777 -1.0578243456621652 -0.46853624284618656 -0.6640172161987532
Ni 3.3170351031063348 7.654331612715193 0.45458945650688415 -0.5223244923112359 0.4149367123531757 0.2561952605134878
Ni 7.694083981689274 3.2711883588328727 8.036694386152721 2.107005670937352 -1.1726968640330449 -0.40091031616709666
Ni 5.649522950400746 2.274720949509849 1.795578014403177 1.3501526044527845 0.6743551077896516 0.029923527032309754
Ni 3.2423002789563213 5.927780271250771 2.024779318880597 -2.9385832228190036 0.565047227990743 2.0156129808559675
Ni 7.3847434944186965 6.731626520845473 2.6452839750272976 -0.9736117182689876 0.5153053806809256 2.3165325808600232
Ni 8.806353783669085 0.18666015677591746 12.89289268322031 -1.022641112892813 1.5487626103526357 -0.6734261682174789
Ni 7.017737991017497 8.38426735335995 0.4781426425043415 -0.35237303068834147 0.7542819633232816 2.131712943876045
P 7.105495142934881 2.9858085841755164 6.022325519911189 -2.181588231439933 -0.23107301152456333 0.9294455652747348
P 9.09848553339217 0.15011891229468716 9.259239964161447 -2.1234460758815623 -1.2949679888608407 0.5179641584600111
P 8.41578583230189 3.1767348036610006 11.321311673171877 1.0716633084277865 0.16904617619980564 0.24074987249269506
P 2.6803951715659373 5.5964518706660105 13.4355328960473 0.04632510831878473 0.0013832535007718113 -1.5066006322726053
P 0.849327146110831 3.034369085231226 8.04759294453385 -2.4651932514249415 2.3502759958590556 0.19936565311895343
P 4.101709077823044 0.3913394733465866 7.899807122114411 1.0473609842369962 0.14731521228061725 -0.9436025735014071
P 5.728638685670223 8.045640521565598 10.20109880697208 -0.7260810754090334 -0.9252119868093615 0.3813318798145368
P 8.235029254273426 1.2291280590501692 1.2450049255215971 1.3220057097049231 0.8723287656570846 -1.2340917222007584
