# total energy = -381162.09346774 ev
CRYSTAL
PRIMVEC
9.30015843950313 0.00000000000000 0.00000000000000
0.00000000000000 9.30015843950313 0.00000000000000
0.00000000000000 0.00000000000000 13.61172195064560
PRIMCOORD
 96 1
Ni 0.13072767375047037 1.9960929546518305 0.20714614367116468 -0.8056688024356898 -0.10858694247248395 0.18714314291083253
Ni 2.6695825110839304 4.949804598930413 11.061075265044895 2.878965511156371 -0.9308642999991323 1.1814334725750943
Ni 8.214355430756532 5.668120917890686 3.4675584050978996 -0.350554489422364 0.489299443535467 0.7266865702035163
Ni 2.40340268321695 2.977557249905602 0.7238889737542319 -0.44167695656149736 1.2613592996674599 2.3121154256289342
Ni 1.6467604123109087 5.38017871983368 6.162652180142626 1.1756965700913171 -1.2207914055474265 -0.4963080136428163
Ni 9.175638382714425 8.645761869220095 1.904429665408277 -0.3593018965976909 0.09785104411221858 2.821038814042916
Ni 4.095240962327455 2.748578054842085 10.298955200958543 1.6730327678883314 1.0221456613136333 0.11682655677345685
Ni 4.819946489971723 8.052002569044019 10.671412586665918 0.6021695867643372 1.7395783170190493 2.5805254830410593
Ni 6.893723666075386 1.3677463661267333 7.556111623663112 0.5439646962888309 0.740440429454499 0.028800726281776205
Ni 3.6626627039305832 1.0533080173554599 0.663854592536003 0.3711248573745479 -0.5259240367370362 0.13051948087951715
Ni 3.6180591451992306 0.6871607889873727 8.68178789204279 -1.0138798217604152 -0.3085362360090492 -0.061398714822455555
Ni 4.739853527545867 7.8759133736688245 8.390292103537233 1.0146028159693687 -0.28979160841169443 -2.0211917604953253
Ni 7.573621031507883 1.7792411658822422 5.237626824946627 2.6681772180227727 -0.6104097152859423 -0.12197467663329961
Ni 4.320806999331254 6.496188403779376 12.524675571700492 -0.5174633075641928 -0.4800468145889474 -0.6322142127555433
Ni 5.600731971567211 4.848758380078006 2.8465105807288418 -0.0542109388247647 -0.3592635871605877 -5.105398152604504
Ni 7.934243965904655 4.250990711717355 9.381320681484773 1.276089663899099 -0.07898171801154139 0.4124836228269929
Ni 4.155403685728856 6.2168395518999695 9.96304557694893 -1.0042569539586703 -1.0398911582225123 -1.0454686523102898
Ni 4.6978447129525565 2.800751942348942 1.9679692762524121 -1.1040620364734666 0.10467063813721328 -0.03650529401488552
Ni 2.3613659681490367 8.350063339223567 6.616222755630492 0.7573282063487732 0.9718073180703972 1.4351669018116509
Ni 0.38747621118595293 3.8907304834904157 1.8814257240984353 1.175194433643918 -0.25939654105960486 1.0844769152526872
Ni 8.923018185504308 5.616467839243077 7.345919678181164 0.2246750784180195 -0.17662835942243774 0.33174198470155125
Ni 6.178048592044158 3.1209284887301494 8.686483541918406 -1.6111049200352834 -0.6045401438790428 0.7465069473635532
Ni 2.305992826221081 6.280843240638328 0.4482406548229499 -0.16339746255446053 0.6655840464652408 -0.7511333903919709
Ni 1.1236358136704072 0.38958920712918965 3.68904911277808 0.22348157233055058 -2.211887653754423 1.7441654221690992
P 4.496096381101173 0.2742040043626876 6.372790184707009 -2.5106243871745475 -0.24137670744341655 2.8091402628331172
Ni 3.7122604476158005 3.324453150797897 4.223267870136394 0.4384286248275288 0.3490131130771731 -0.616321452784687
P 6.812189179128396 7.762144538397632 9.257862941399921 0.17028853324733897 0.5818121061539075 0.8588610701879531
Ni 8.819888731214906 2.0321496679965874 8.687422857896694 -0.3031497748861553 0.39209426053736346 1.345154894127877
P 0.7275318457215112 7.204758156945142 3.4620322510949455 0.003455562648768242 1.1045754857747752 0.5222291043839522
P 2.4922563946680216 4.547479755160958 2.5228780955601926 0.46665316689086084 -0.4580975640113658 -0.2578322818962785
P 2.8085175744466646 0.7778457015881952 10.710083574480938 -0.1842118281966505 -0.08198399517297493 0.8831094012123565
Ni 2.583174741239686 1.4985995920129154 5.771370344220879 -0.22032322920722702 -0.3915098487888032 -0.504107455082577
Ni 0.80947646964516 4.585647604417311 12.897922540839119 -0.023272597374695406 -1.0789086771362901 2.0533328640042448
Ni 8.662474253507051 6.430352583875448 9.723206587154262 -1.3899026306572126 -1.2445494271989728 -0.5842263720223551
Ni 3.047754844005737 8.724404006966617 12.777268798451827 -0.012621802529068585 -0.15241165296691817 -0.41406922214655784
Ni 1.8796921746097939 2.3619425779574903 3.1312674746020517 0.04960789283511456 1.2475763869507546 -0.6525989470594826
Ni 6.184326198829742 5.507535086236335 0.17760140109865416 -0.10496425811823214 1.1259580652156091 0.004859899195462598
Ni 2.5846627665518245 7.847454889574176 9.178955749144674 -0.35350585874120405 0.7563720130830909 -1.413412797964011
Ni 5.8876790526967255 4.934291935051369 10.48238687123332 -0.4097253433555653 -0.43043326532687803 -0.46534139005797276
Ni 5.559625272319384 4.700588259621811 7.235161304119592 -0.14543753564193018 -0.39243853125065964 -0.048910095437141574
Ni 5.678165088747621 2.6712844400346887 6.00652577434559 -0.6080838953662431 0.4262091999432014 -1.1291179510008296
Ni 6.548306490337029 8.680776964846356 6.851514898080756 -2.71390377352561 -1.9312327175366741 -0.1709539347454798
Ni 7.525632215191415 7.961409728009384 0.5402433998408351 -0.15532908372402926 -1.0844141803355516 -0.7958872975688939
Ni 6.339843444264621 2.159217729495017 3.298800524432449 -0.7085507798347539 0.45575554614175057 -0.24888510000531977
Ni 5.678034886532809 0.46287166370455207 9.495074636502844 2.3209497360911127 1.262258928663594 -0.02622448091416774
Ni 2.738580384776154 8.177666306654118 2.0327876588491667 -1.8985259713322722 0.6803712320767443 -0.5702076891457599
Ni 0.11608457466320714 3.5557852858862335 5.04183617443872 -0.10625083814013958 0.19288107383587427 -1.0967901854024014
Ni 0.24032445805275351 6.182800972884801 1.6135876780242402 -0.16895567336852838 0.7212306892952675 -1.4626314257805069
Ni 3.9540273602055085 6.047539472011408 4.116579245303522 -1.206747782970167 -1.6961984073715173 -0.8531460220810468
Ni 0.34489357683164856 7.216150850741203 5.706645893221952 1.3842716576236807 0.896078816888831 -1.4648227770048707
Ni 3.9938134369888125 4.774710520482712 0.8206041089324958 0.20179663115794927 -0.17996230889167716 0.05029694848233919
Ni 7.628919772170231 4.010172415264136 1.0062231764161165 -0.5653876420492971 -1.2677546616708424 0.5638298106438742
Ni 7.252095962187549 6.655267609805186 11.791072582705455 -0.13123450466867073 0.5050435937436011 -0.016967223981957876
Ni 4.707284373526435 7.031235805233387 1.3575812932131868 0.2457128729249252 -0.7198191536597216 -1.3724967764759395
Ni 1.4682159751706867 4.891976215237428 8.541967453619332 -1.3831154325320503 0.8683281291381238 0.15128679533385558
Ni 5.247381760883516 7.345357948625832 5.499666222382584 0.32112564263828564 0.4276711292007086 -0.561814065765426
P 3.925782779749479 4.275803533797265 6.05174407353402 -1.380154035910881 0.8681008436186664 -0.018997109927793087
Ni 0.0499381294753691 8.401242109802931 9.849482275173978 0.8166510124788064 2.6258164936683746 -0.7149803375101815
P 9.124738616881086 6.44681386389098 12.88545474875504 -0.08718456553730791 1.013495698948119 0.43815428812021956
Ni 0.38204584881246734 0.839435069257609 11.617250765899632 0.16661905481555175 -0.37310409258810584 -1.2380717898944291
P 4.852794648737181 4.266066268160959 12.381453135407158 -0.3394838334304992 1.0350515707420238 -1.430338627185072
P 1.5052957059175387 0.7511951682477942 1.350341120053813 0.953199473161223 0.5098078479014639 0.37033090071834285
P 8.958368086825798 2.8037093926568173 11.093307753337454 -0.6576033422526094 0.4485520864147759 -0.3734517057355117
Ni 6.593960966945079 7.53879193904564 2.8709430263383364 0.7816948081185957 -1.7104366624580865 0.6313840035447643
Ni 0.6578373901800428 4.7919716141035185 10.722184940331905 -3.0879090377717464 -0.8795836474472852 -1.2299697296125849
Ni 7.844636941639313 3.542086152856358 6.914835955207171 -0.14719102799792716 0.1346702698230971 0.108892903748677
Ni 7.406041480886481 0.617860660153621 12.575325163278226 -0.03227531509393796 0.4073229045616598 0.3766581284879513
Ni 1.9662952477762565 7.3795267298558125 11.128493971874612 -0.9257976841095023 -0.9692860943104403 2.521571373104354
Ni 8.604757471712478 1.6335262871910765 2.8797502761545566 0.3577337807796226 -0.2727976449568592 -1.1298699986755059
Ni 6.043428802086625 5.048358375384987 4.756724944538057 1.151198584949953 -0.31235175310039753 4.335059392928676
Ni 4.0418859547290875 2.600128929639865 7.573561510495396 -0.9064105378321423 -0.23794479894373213 -0.3908539603723591
Ni 5.59298493978589 8.428742677602893 12.981879718997435 -0.8722331206194849 0.10498971203952885 0.20893889862968534
Ni 2.095502345660885 2.224365337692082 12.398957893172827 0.8118021690269372 -0.3311506309744555 -2.9456154470754368
Ni 1.0060818140114633 2.9938790275481217 7.017372989419177 0.6319581308806793 -0.1038684539508921 1.0320436371536355
Ni 2.978747670155313 8.092235053420962 4.5868640651099835 -0.5329850573488757 0.46197375913732047 -1.608544872617591
Ni 8.599688885493006 8.983125107956504 7.049020497760903 1.7228247517097943 -1.0733689782649838 2.3359636930014416
Ni 5.679374109313733 0.4915096408524781 4.831616328482169 0.9376322148505852 -0.7841185870687399 -2.4774540710701656
Ni 5.603252314439646 2.6342233096042387 13.453621873593974 0.5421070742548019 -0.5782889234919976 0.3052076858564486
Ni 4.8275168187472275 1.1745727801365493 11.774874497167007 -0.4502266459037214 -1.70117786286398 0.6075264802008763
Ni 6.7748211434773165 6.357076637410825 7.601779120492644 -0.5579682096567745 1.395643646906048 3.2149351607860246
Ni 2.110363998465869 2.727755000630346 9.353280704509164 -1.735384847762992 -0.7555158357303827 0.04699693757482874
Ni 5.772012985152557 0.0656023859330874 1.7637117617184366 0.011783108677857125 1.5263644451630938 -1.0280018629840941
Ni 7.239494247825376 4.167028883479938 12.117045917693263 1.8631684177685846 -0.5343701106218604 0.5181883586556753
Ni 3.566415366709823 4.5470891485165215 8.593570311412657 1.359053763597156 -0.12565701058089326 0.46111681045366393
Ni 0.5669822846841445 8.563334567085821 13.453880417991957 0.6762304704354934 -0.7555873123982665 -2.1309063888143496
Ni 8.03580169345811 8.603399648615152 4.293926752083292 1.0326126222832281 0.6557122958774836 0.5843083902132001
Ni 7.552035364323673 6.589217886262637 5.699609393527178 -0.5319710142620645 0.31491977093788986 -2.79376223771515
Ni 1.331866355787793 0.6975555758084804 8.021442249195973 -0.3292189611693814 0.12649159066704665 -0.18550097932171924
P 0.26466390208023943 0.8240730679414189 5.778570526699988 2.1485456991626672 2.2606501678701063 -1.8953252050067877
Ni 6.686255736930471 2.2454580964916455 10.790447171510438 0.7616502307628947 0.22490544926127073 0.13374750089851162
P 7.9836371061094535 3.580486506067733 3.421115275074416 -0.6982090315891136 0.6953216827389895 0.1464430940883091
Ni 3.6735903898166007 6.392826445534954 6.927073103367871 -0.24765996934896703 -1.1259344110665255 -0.005511159626216315
P 4.5738085030276086 8.117670986100332 3.108345374684378 0.08798546417204847 0.46730982663825327 2.2119298198462682
P 7.210031346645033 1.589973646336422 0.9762961973415503 0.6198029835753841 0.23899689435733035 0.04564376598104398
P 0.9997670065930754 7.356043830398626 7.870120305125505 -1.4575285573363026 -0.7545228756894942 0.7702459428517057
Ni 3.8168035259517334 0.9929127899990373 3.277920739255685 0.08574937575267812 -0.6663659189365879 0.10849438275867768
