# total energy = -340852.4103793785 ev
CRYSTAL
PRIMVEC
9.40255466958413 0.00000000000000 0.00000000000000
0.00000000000000 9.40255466958413 0.00000000000000
0.00000000000000 0.00000000000000 13.76158918372308
PRIMCOORD
 96 1
Ni 9.120985622207725 6.491373199638637 2.9134793045454526 0.40983718634308125 0.4087537234709154 -0.648276922645361
Ni 1.3488340560919154 0.1843869149007995 9.386037052334398 0.2501372272448659 -0.8636392083028867 -0.15360464483375483
Ni 6.5056650825088225 1.6471489033434958 0.10196882325697161 2.5828204497228224 1.270988852337424 -0.8861343040816093
Ni 4.721445739374816 8.513204498044011 3.2678822700188985 0.1354022628931152 -0.06958896394273176 -1.3044985540590952
Ni 2.193446723501849 3.580633799480271 5.040690672987603 -2.7928641513809125 -1.5790676890940805 0.14011843742186192
Ni 8.653058093972401 0.3533338950245378 13.009931064905093 -0.4167632240389532 -0.04011203752953737 -1.6395791162155764
Ni 1.3857202774733242 5.480156668691315 7.004717886971239 1.3395077231444286 1.608660572259849 0.6205791996197764
Ni 5.343133241673402 0.77754612653068 11.798938458074314 -0.4617197341449855 1.03192048131221 -0.8991631122411095
Ni 9.128366627505814 4.08039837731984 6.844299023797013 -2.1772109283078436 -1.2252535550838384 -1.6193733306916627
Ni 4.619963968441974 0.7529565659503437 0.6650793511522853 -2.3444496189852657 -0.8286786330673018 0.042353268155230286
Ni 2.7176297354294925 8.600413191215708 4.2166743012534225 -0.5749184643578679 -1.8885076678643218 2.9078976208096887
Ni 5.595836296949145 1.3677143855677933 4.73522518302367 1.4471963221723592 -0.4097924491480749 -0.2635614710705719
Ni 1.9432259426193494 4.325654609415853 0.4837529677477001 1.6012221137039329 -0.36862780198430706 0.29763810103930677
Ni 1.7338216509075601 0.9988803794172672 3.7903135860394923 -2.090882283012928 2.8439388585695404 -0.5000908777240162
Ni 2.5250560163082514 5.82429956667269 4.660692073600196 -4.6892887600994655 1.5475786173468635 2.803236238643856
Ni 5.478896726385653 3.622249505785169 12.195726258812384 1.7749307283764142 -0.3420073711833013 -1.0297910936740329
Ni 1.151408618838427 2.9964436846068847 2.3258600780386733 0.09695064378513625 0.4437371815246358 0.1958329573753466
Ni 8.448157625875623 8.133764410395084 9.27401783855115 1.1938326175703955 1.19757665799386 -0.36813774972176594
Ni 1.6847027060958144 7.7933543265580925 13.492411867026254 -0.899118375046103 -0.41495265319277563 0.8508304865739929
Ni 5.6680949284342645 1.0204686445948645 8.155241725429347 -0.21805834443245026 4.784118500886858 1.0108754877164525
Ni 7.818854054415951 4.531485930410096 8.642126684087613 -3.388420089483474 -2.2078191401120044 1.6437389040202208
Ni 8.277510663894695 6.495331675091498 7.848661092499358 -0.1083581142911295 -0.8520080518218617 -1.7933107735454985
Ni 8.007967633473884 0.7498142322298067 10.095405256041577 0.10967657599223692 1.4820507108473833 0.9112149011993209
Ni 8.909700819591963 2.4083985223803555 3.9075615603912355 1.314921292054316 -0.3760451774943007 3.781235544457578
P 6.917976500759179 2.660537424384906 3.345964843773619 -1.350015564654288 -0.27997359388000814 -0.7079797378226323
P 0.8661426367495075 7.492228115505075 4.904478686424756 -0.7852619566445637 -0.021777500886407654 -0.6373990993905926
P 3.8920558077325356 2.4257086252514166 5.070732774934006 -0.6017576960378991 -0.5002132622344932 -0.21473853603059792
P 3.2686570405113353 9.021252726415577 7.886381320466677 -0.9622050190939427 0.21389264309053485 1.1415939719806534
P 7.2938718253541195 5.699875562711389 1.4765498943906183 -0.24188475742808666 -1.6381698945728755 1.5742144747668372
P 0.152445496941385 8.36540574354634 11.076468734899164 0.40798367807411023 0.6755203317423463 0.7252683496997508
P 7.030835362661052 2.505677351442821 7.667503014820678 2.6050391519117073 1.3044877554258179 0.7745324860422015
P 3.5642733546157155 6.090720948992907 6.677976296639767 0.34611830802788135 -0.12974352194544106 0.47671672177445
Ni 5.820604362746384 5.116729131389707 3.541834158254071 2.3217336654449885 -1.4485019283576603 -1.6201086661957906
Ni 3.7094299912933058 2.0870474165551194 7.145071698800084 0.6443017400476969 0.9905712289414617 1.3056686631077967
Ni 9.232866618439532 4.135187062507061 11.133648489700786 -1.5373844504226812 0.36527636901357086 -0.6922985796419496
Ni 1.11040407857732 6.966230410555098 9.226993782886428 0.06869730536639783 -0.8426314957029681 -0.7217698496281892
Ni 1.3988180359194884 2.8628615925432412 7.9280515615877905 1.518760921784223 0.16788223779869152 -1.1719461019099493
Ni 6.860178998125604 5.75464544278957 11.277333626596016 -2.2511483990272585 -1.7551291202694548 -2.2076916133952045
Ni 4.291908841244077 4.51521951109074 5.257807880172034 2.1243711587989935 -1.4021127995701594 1.9322071656348017
Ni 5.711760391624492 7.0470641717623295 0.8781891896003514 -0.12928175181767412 1.7645118470359353 -1.6259576687773998
Ni 2.272202520160192 0.7041620092695331 6.284092004737432 -1.9864379019539082 -1.0205320369696103 -0.8242856462059289
Ni 2.2688176005330423 1.8374001914983318 0.6182790762851369 0.734854193615973 -0.45686729114869057 0.3245182132596024
Ni 8.90122911796957 8.786452134945646 2.8500252251127294 0.8920064465916702 -1.546003302439944 2.541172435164733
Ni 6.464585321811557 2.753566298804395 10.278158947222279 0.49789746961712317 0.4310467305411609 -3.213126646822376
Ni 8.199695122688338 7.36406189484487 0.6789537606017899 0.11296655959741836 3.3957785867310744 -1.526970968398841
Ni 4.412976133241788 6.511748535283172 4.38017626205471 3.130958817773369 3.8413412515002228 0.2060366373812258
Ni 5.356898581490476 8.478396241211492 8.312330203792639 0.4006015266774262 -4.501260129259887 0.27246982930379526
Ni 5.833504667547632 6.301714272418551 7.119998846917427 -0.04637575905106207 -0.596648914056424 -0.4727209703514956
Ni 6.373756645149715 0.4733528021932836 2.2738272815812235 0.3564232894983152 1.3973801699811805 0.37088008835359354
Ni 3.373072408454374 2.5913628307823005 2.582265859284336 1.888749865782115 1.2664295151015157 0.9685916393465769
Ni 0.16215645524949585 5.253564507317221 4.787395256777111 -0.5637328800546936 0.05514939147863405 0.7291460874876023
Ni 2.7063842802237406 7.0451554531947975 2.6991292691562174 0.04767082371340177 -0.5104722209583402 -3.11716819174718
Ni 2.0878466336893076 0.5356983204481156 12.60949601326877 -0.32323806099559815 -0.9902395566336557 -1.6550931526907753
Ni 4.952569932027481 5.821403579880572 12.448155699751597 -0.3064436151460787 0.3806263691070799 1.8892640864143724
Ni 0.9905215084491121 2.776254662860816 12.587793977181482 -0.471360342558543 -0.3493779526157596 0.07967385898255955
Ni 3.8573603815542543 9.036212190656672 10.055194291381948 -0.08700998763265659 1.317136040317448 0.2737818632469995
P 0.39086701215691266 4.870795915368263 9.050612202903837 1.8541682711525036 -0.28953784052967557 0.20078515917429937
P 4.4881495566280645 2.0345341495617046 10.075657070783517 -1.407022578166951 -0.3663572607825755 -0.04099521146543907
P 7.50188453899697 2.3167518234752857 11.964022868801296 1.503242771543966 -0.1951169051449285 1.118726066243544
P 3.5746819824692 5.558207273760668 10.956950043630874 -0.6577591511041833 0.20826809781490582 -2.051843681053228
P 3.351032820659823 0.47394610338348675 2.421062823063154 -0.589362664807656 0.16665530737012588 -0.9414353906467592
P 6.297567745875295 8.730883037733276 4.58017329796938 0.8043297719092921 -1.3549016891019956 -1.4859585305422214
P 0.3698626456149987 2.049954338974274 6.204191917194022 0.3029464006260976 -0.09620219565488593 -2.0286464170011578
P 9.027364386853485 3.0578141579580067 0.5832846488731241 1.236708076777683 0.45582779414058266 -0.005364863856339147
Ni 1.7377425161423417 5.108605324284549 12.010179068683833 0.11444134437073193 0.7940579576696388 0.045405424717992776
Ni 7.792874796277579 7.222233762467311 5.318648049448236 0.4713695985299237 1.048282467610001 -0.012688136990629761
Ni 2.534909893445064 3.28840240500304 10.120713171787232 -0.3034315677926323 0.3469060940364993 0.07380223069313095
Ni 6.992736211746581 8.23426831565786 11.211002365480216 -0.27277707613156893 -0.10107803568994851 0.7025701367712868
Ni 8.790617466597944 4.210510926765655 2.7639880902342076 -2.728340003555598 1.826742570841383 -1.7443006621953832
Ni 5.293215079727468 4.784988202820027 9.31376055599569 0.5947444979448596 1.534472933202841 3.156917703730976
Ni 3.429816824981726 2.509993123967437 12.01571153176332 -0.5448000477059327 -1.2168604459241368 1.4110813216173568
Ni 5.39080419308909 3.7453101393410893 7.46837289443274 0.36440270815936593 -0.48100609317842324 -2.318908023070735
Ni 4.50247904971633 8.535751823782634 6.121719290733979 -0.15760682401461243 -0.06496534912779134 -1.0704345782270082
Ni 3.795529183031658 6.6414003595575135 8.892257200446721 -0.7413272029348266 0.9194840831866488 0.1893928581769577
Ni 8.699328064764629 6.416961383168469 11.813938353299847 3.5571672463856223 1.4015304447041284 1.5001469062274615
Ni 0.3377801893377863 7.919705854195963 6.963514952809763 1.1238330484528065 0.8918827765296123 -0.45958289030764077
Ni 4.292614032833067 5.321798845467842 1.4520402555237006 -1.1901875646186404 -1.5938556460365323 1.0207140710734293
Ni 6.912466603810541 7.692192242478925 2.7055286477624336 -0.10067437249362662 -1.558016524850736 1.8799808613402331
Ni 8.722401933556364 0.3561020070751844 4.985685729046427 0.049330727914327945 -0.7351750672905016 1.6093593980990866
Ni 3.2679612514768657 4.40411892688408 8.269448913649367 -0.3951371611287453 0.24751341646877373 -1.3248056410475635
Ni 4.148454066934582 8.054030748066676 12.586018774888132 0.8031802316858814 1.5963470449998185 -0.6490284560994047
Ni 2.2775055609093924 7.656218068885943 11.121414826014995 -0.07706418927385437 -0.6525498389891019 0.18958132003867995
Ni 9.046855882373153 0.7644765757480754 7.707466692296436 -0.9685060216113061 -0.011253204316316105 0.2186828653903266
Ni 5.856616146557446 3.5094000464378157 1.4641921169851668 0.15671645098985915 -0.36218975966844713 1.3127384254703842
Ni 7.391263485070824 4.278660641925596 13.546976771415903 0.9154759904685201 0.34195106402406916 -1.0347114137937858
Ni 0.37797328914382944 2.336168098558795 9.729842398608511 -1.2842020085935884 -0.3670691992479355 1.507389703832804
Ni 8.603074114144828 1.3399110318525689 1.979328931209254 -0.7960942713733774 2.9727801804156866 -1.8332042673063265
Ni 0.04288223039872293 5.579221983112554 0.42873862125200257 0.32373325546446186 -1.1455231318317303 -0.3568940584871466
P 6.725402781637937 0.05450754880707714 6.502750290607667 1.1909218716815038 0.018445094079065007 1.2433150405712394
P 0.2181599504806826 9.238611579251167 1.0187282317532385 2.526335627262217 -1.4837648653250124 -1.8195316549152407
P 6.650408006787539 7.098120042805166 9.270866102276093 -1.1020501482497602 -2.3861236016852843 0.543163026323142
P 3.5470384721808137 6.970847064824349 0.44877922595563097 -1.3722882600095592 0.2775498149298639 0.5655776465729163
P 4.204709550626901 3.579289234183931 0.004145586287806025 -1.6340191056292956 -0.23348162096605599 1.988942670653633
P 7.1583434045048655 5.213913934906975 5.313239700088413 0.011347049581703038 -0.5441086780658629 0.6925847434238008
P 6.3215630650099754 8.958970205276026 13.222822764088297 0.35755843154402295 -1.8220518502339331 1.408070559815491
P 2.5482897285268242 4.898072726030376 2.9028553581934635 -0.4892832455855509 -2.7181080414149448 -2.6771043453090737
