# total energy = -340890.63187283656 ev
CRYSTAL
PRIMVEC
9.08656749306977 0.00000000000000 0.00000000000000

0.00000000000000 9.08656749306977 0.00000000000000

0.00000000000000 0.00000000000000 13.29911001042576

PRIMCOORD
 96 1
Ni 6.447737405795199 2.030402586088224 11.59383129182513 -0.5743134837840175 0.16482236792644517 -1.5229068256317966
Ni 4.654158027485044 0.6132097311846428 5.841221748860263 0.733524419060956 -1.9427216920128798 0.5711304580703455
Ni 2.8717369540189774 1.5669785589275242 4.800539903337493 -1.3219576300758071 1.1948700576959745 0.9002252349570367
Ni 3.474648878298242 4.522957079892382 4.955461335291304 -0.4864863995667041 -0.8511762999491858 0.3928483650945686
Ni 4.910399229930717 4.6429997226409565 2.7649252621527136 0.479252086601794 0.13159857287630886 -1.0002948839871288
Ni 7.296586365017533 6.1100442126146675 2.673852413788441 0.10649663560235853 -0.9889450061919485 -0.2053442392998915
Ni 5.273016877661193 4.181283970163228 11.922426105005345 -0.2897309303770881 1.0475237350671056 0.19641094136600368
Ni 5.513165769130579 7.655151403659684 12.206374977614763 -0.10213038821386282 0.2625032050093866 0.5341975895997381
Ni 1.7558246905029997 6.616211453119496 0.43666136001306716 -0.28825845959661966 -0.5529465880724671 -1.0689564510195848
Ni 2.5310179338733967 1.5282606949693327 0.3944251771333518 0.9170225090200335 -0.18472219217416574 0.6527149038120565
Ni 0.5591900876194116 8.828018272031317 4.831699560480283 -0.6742003273793421 1.1736949662802558 -0.6932133781467351
Ni 8.717689169900277 1.9115775433796407 1.3030492117517356 0.30974285472264074 1.0553910536303241 0.04210207137637265
Ni 6.964181554100243 0.6163064333759012 4.66816042794493 -0.40956259252545596 -0.8705014826403588 1.0457082791249217
Ni 0.7257895760761729 7.03084969957343 2.5976088435231524 -0.25854370614100636 1.6388252687686873 -0.714871322736143
Ni 7.7880787990702425 3.8221101315010806 3.92383607155852 -0.7824838796787943 -0.11980286579296141 0.5175057307663539
Ni 7.639413468814439 3.80224689502781 12.480350433777215 1.572532459078724 0.7444189544862727 1.5195093699144735
Ni 7.8898665277864275 8.748628932110472 7.034364383867969 -0.08689068844597293 0.7825602414426845 0.08333305300170164
Ni 6.661462559083307 0.42466073036519486 -0.10003583850939346 0.9379561738489073 -0.695502431291228 2.202587973620052
Ni 1.9151303912575222 6.625516098201212 9.174577229085118 0.05012622723242979 -0.15622048519004708 0.08163432514304005
Ni 0.058395734455225445 4.647334015320622 1.4652689746915177 -0.9619067711272338 0.476656815070792 -0.4313987145639409
Ni 6.463166397346715 1.8811466289473513 6.904711787370936 -0.03498242961245588 0.6860466851949669 0.046067226671707755
Ni 3.366182522497036 4.001433540375738 0.3573537991993853 0.8779437978510171 1.366973275554549 -0.20338814401478522
Ni 6.033008293666639 5.572646439740841 4.800419960646986 0.3254407250738718 0.1485807092566022 0.3414592119893151
Ni 5.163587345708951 2.9256202990722695 9.580239764199483 1.2354646912888851 -0.2581323296352006 -0.07631137026822986
P -0.02533153277227111 5.8520402160812495 12.50943562756829 1.9339349469591853 -0.7430824950630364 0.38204381827989686
P 3.9156926897985267 5.999079050761244 12.489274351682246 1.0729627439655005 0.6258592170717932 1.4652171842298118
P 2.2732320149590803 8.578237619051562 1.4655088600725308 1.5878996855634135 -1.2605046649766485 -0.10121841792255472
P 6.209614818869976 7.708289650181042 5.882355731106763 1.5223820634765781 1.151025035486566 -0.19825673632549082
P 4.683480380686895 1.2241332819956925 12.67961068032159 -0.7388558585761984 -0.5130965459550647 0.3677112037073087
P 3.962933754036649 6.446010957977303 8.212466023754812 -0.7112126429376332 -1.0981842375364506 0.23609951820487726
P 4.919113248127362 1.1989544035567934 3.6692913312581172 0.5960722156173476 -1.5575596398189755 0.4168460135607467
P 0.06884892166421486 5.366790253875354 3.670141833972618 1.2313185303309955 0.4470125098417978 0.9314348277906216
Ni 1.579318117541752 0.8743322376712306 2.8678333646370393 -0.9661820014638199 0.41212598237725795 -0.5773967506950315
Ni 1.6402889852158822 6.671530475831881 4.795326939584192 1.0232157544493603 -1.3329370119054464 0.19892445181647678
Ni 6.117404332259384 5.757112845799336 9.33234457396822 -0.6194684830541008 -0.33665047774676216 -0.06769611779539308
Ni 8.856013986383626 2.4891924638429916 10.426688052298195 -0.3717154397706953 -0.5570163872664665 -0.7155722054579096
Ni 2.2270813388164714 5.378702743818839 7.038447887285667 1.9564668095131144 -0.07780261010177568 0.07002836547299553
Ni 0.8408436932877722 -0.11572107126335514 9.179178666848186 -1.0906961566895217 0.41647474626425696 -0.504697523258092
Ni 1.6394075881720085 1.0245740873817968 11.56441352966492 -1.447730340298958 0.678508982057025 -0.49922493017929515
Ni 3.9646056824497697 7.078726823533935 1.3796226244159173 0.19446718737607155 -1.267667758383991 0.35469473684298264
Ni 5.466724322829166 8.134504183582344 8.21779893019862 0.771457960881936 -0.26358229700617836 -0.3036567964295609
Ni 5.325782574916584 3.1061976542567677 4.644541713139361 0.7529606734086968 -0.5716521349017704 0.7391517925500624
Ni 0.81228733772302 7.403135455084127 6.99809807581119 -0.46838763308346426 0.6115839380997015 0.19649707332190675
Ni 5.142779106219568 5.047615485183627 7.003098413885866 -0.4236951752720961 -1.1855588075973778 0.8711026065594676
Ni 8.159937485910197 7.15303677224318 9.33851526193208 1.3035135644380067 0.41052547065935746 -0.22531219778138617
Ni 4.656565967862637 0.6743795946862039 10.484565852408052 0.33807641156001134 -1.2289867968740253 0.15268033324727254
Ni 8.186879158436842 7.115663720269455 4.942853722936929 -0.8706012414430169 -0.8397001809887862 -0.3011222029331653
Ni 7.253670506891614 6.340343264954582 7.269839145034586 0.40376064113169813 -0.8665499541917786 -1.0214362939514345
Ni 2.342162715730459 5.0912582687065555 2.6481983078712474 0.30572370626091866 0.5609468326691243 -0.1018812483175342
Ni 2.3416447813850896 5.312043684913114 11.31197051241862 -0.6347328654123391 0.6531617615414881 -0.17530758372848518
Ni 1.0502709001660648 3.1783904327472237 3.3686513428766283 -0.34445146184841974 0.4800403868310442 2.0384646886431605
Ni 3.5973175390435106 2.5247663754591194 2.773489351986226 -1.2769396706042202 1.34049451253773 -1.1151900280658278
Ni 1.2257597775715 3.352452719061029 8.135517335854425 -1.1057707916344568 -0.3482662076088196 0.5800185045885947
Ni 4.1494264646393075 2.8272309465871013 6.973946888152312 -0.7733065840549005 0.454376663516353 -0.016114646173675473
Ni 4.222664198387965 6.949397708838572 6.022741381090634 -1.2899602512336041 1.4046887878274517 -0.23531121797562699
Ni 0.9075418244335868 7.6077558677746975 11.216216264497609 -0.25454204118078094 -0.6567291671777722 0.9717988334299651
P 0.26720505474606054 5.56805772317222 8.004588076628895 -0.16574487974071456 0.5268838295471442 1.2261526698593401
P 8.744249206593492 1.561635657259508 8.185668827650822 -0.3390081793456613 0.24340967871304534 -0.40460447718923226
P 1.7640662071915894 3.440165354777627 10.440200686771847 0.030305592962076838 -1.0232116406843024 -0.8699481812400501
P 3.851814120536361 6.285251406428762 3.9122652365516295 -0.020716663722061098 -0.04479581615845188 -1.8663673843218567
P 6.888217850112802 4.011973958632368 10.428230951453347 0.37556592386503707 0.03403574942847042 -0.4643504868996132
P 6.419668998903189 7.937770911449321 10.235726567817423 -1.0328275665075115 -0.25507503086611555 0.3646639322405526
P 2.400825595269085 8.563580985734367 5.892370037107308 1.5155910086966735 -0.9107045372218057 -0.5866810042104348
P 6.901756835632095 3.9314033649413838 1.3546472850881808 0.4303008535140718 0.3235388800654686 0.9771487848879687
Ni 5.254271288985824 2.569308729160846 1.040302027002833 -0.21654242200855608 0.3360529533720793 -1.157554866185284
Ni 1.3696819196118195 0.96545687947004 6.798956863300575 -1.0313414688802882 2.284733176961239 1.5577732984916786
Ni 6.833998302063393 0.9813129396922987 9.114039790678955 -0.02728608940946269 -0.1186648955337763 0.21236437937146654
Ni 2.6615555620412876 1.6045878616552776 9.153524560930993 0.44055724113475736 1.2024126459299227 0.3528265732859924
Ni 6.781105392863526 2.037744532598015 2.7671460192405766 -0.07772213457282744 -0.19808755773747821 -0.6837586604917385
Ni 4.121285365207597 6.929716203714554 10.323912613698825 0.0782569240303749 0.708302925490006 0.45096789494512013
Ni 8.0855184983914 7.349951775725455 0.5668109917503047 0.8002800273199508 -1.1852906415376554 -1.4797398033260194
Ni 7.841535075452792 3.9982168954939734 8.322290821391679 -1.0726552400274108 -0.970563418360967 -0.9538700168656863
Ni 3.2292025179981527 8.382740120093453 12.460707092236538 -0.2055427284639428 0.2862177750175071 0.1991126565678829
Ni -0.05519817136513211 4.882112745419604 10.200696941592305 0.7301429041832329 1.1489704669503824 0.7704398040300666
Ni 8.588287362665211 2.572707105391863 5.993337248781619 0.4223985679478596 -1.8135944634951995 0.35208249603111624
Ni 3.5174556976146087 2.724116579021375 11.53099313453743 -0.38508466198874974 -0.030411779522637943 -0.3209693195660795
Ni 1.0785846443795655 3.6469756302266876 12.575771204672348 -0.6203747969184541 -0.4030440746806478 0.2500708927833048
Ni 3.1212904428121666 8.648722122859049 7.9975523474425945 0.1047796529112518 -0.7290866950045766 -0.43107758377909633
Ni 5.658778012718943 7.6068744707308245 3.6094181209334715 -0.636820086958671 1.2338004162125848 -0.09555453476855802
Ni 3.169103960800434 8.377315439318275 3.8793773142774497 0.8321308532819605 -0.008631193312436747 -1.0564225802186322
Ni 3.415540756953947 4.167399695080356 9.136116514986119 -0.9799248049712092 1.8566342161944926 -0.4898206061462597
Ni 7.220668093867406 6.115968654600291 11.617849815599051 -0.5712651838759968 0.026867513814805344 -1.0921282611503578
Ni 0.5839055511177176 9.027441168133272 0.33207769448863617 -0.5531695027165505 -0.08470833608267347 -0.7673467669270398
Ni 4.614676891859993 0.24628414182014152 1.5500911732982592 -0.10756570029682119 0.6816693820628776 0.34240357818045547
Ni 6.06601979325831 5.799174566583769 0.48366617349716157 -0.8103613228153528 -0.8856069708232296 -0.25853239328709665
Ni 8.018314245437917 9.192516839226554 10.981353937977973 0.9263291311329401 -0.8801104664850327 0.23685053743828885
Ni 0.2430865787300482 4.708395748669378 5.968015711233558 -0.544340848681327 1.16961565400456 -1.0214208673324665
Ni 7.91731704809098 8.6519660274432 2.453912048355906 0.27536257747055803 1.2306400162067324 1.075173121353258
P 8.75488957709221 1.5826710609354562 3.935684955529767 -0.3488279936495605 -0.34537217389047614 -0.6768999856986923
P 1.7224224685104363 3.253890721794071 1.4217016096785295 0.2582349166513359 -0.5761474516689625 -0.39140623333140334
P 4.725423976094314 1.2067597650071775 8.235354178536387 0.5043259988512863 -0.243279066672452 -0.5118822139319894
P 8.479230379978937 1.585978571491847 12.443617984809602 0.7234675490455863 0.43270792029366767 0.6461452210143387
P 6.200346520058111 7.75840206973735 1.3990660614724155 -0.6841708083284928 0.5054225743495747 0.2771983451277162
P 2.1228129771829933 3.2612326683038617 6.1944193521022495 -0.3388965934684615 -0.6277348368279512 -1.075215030334787
P 6.887972512791311 4.057215978028716 6.150385846178429 0.331877481838151 -0.6770421677035113 -0.1619437608270695
P 2.703735408202735 8.781458700352891 10.261885886885539 -0.8897359053899386 -1.4158450615545874 0.5020531436567096
