# total energy = -340889.69189245236 ev
CRYSTAL
PRIMVEC
9.10741387282448 0.00000000000000 0.00000000000000

0.00000000000000 9.10741387282448 0.00000000000000

0.00000000000000 0.00000000000000 13.32962079438124

PRIMCOORD
 96 1
Ni 6.5758806807204495 1.9007537042323106 11.404343720082021 1.127438763526194 1.5841983254524263 -0.1772780771912947
Ni 5.1796230603784545 0.2859664203144242 5.816859701417585 -0.5709471384149457 0.21312953967226522 -0.10371187376836977
Ni 3.2138424211174974 1.639443785486942 4.8692569675660975 0.003265301014833086 -0.06168950658999697 -0.04858150845312924
Ni 3.897535980305245 4.440374276586402 4.7941180709180795 -1.6922077981548858 -0.23547139770257514 0.17289511763225063
Ni 3.6094502647833746 2.4637011703374525 2.5704045419745856 0.071816824831986 -0.276132365757047 -0.04596283988335956
Ni 4.90442433548201 4.440319632103185 2.5695639276744253 1.0066745622612276 0.47856045985140816 -0.0979070941611346
Ni 5.384239327785823 4.769771221420589 11.362768375767486 -0.23875829598396298 -0.5486093941496939 -0.191706851022115
Ni 5.931877231176238 8.125425183900981 12.304239998601988 -0.5918864596707742 0.5491161585827833 -0.11364430239073331
Ni 1.8136321831561153 6.667838238561381 0.49627937509720094 0.27948251317620254 0.0581239007259257 -1.492088297589043
Ni 2.7134082438130043 1.3563671475933285 0.34672653194518294 0.4580926789153595 0.5923392309374766 -1.1184501868743382
Ni 8.138703793322795 8.76904612206267 6.907729341368322 -0.9013981722192154 0.6766230778882218 -0.7564738287682778
Ni 8.581442503763638 2.7260037971946036 1.0652659673392473 -0.238946243625053 -0.3011034338800879 1.1539447802365224
Ni 7.221496142519573 0.6516782672120885 4.602198449186263 -0.3160705967128815 0.17673917396868918 0.02923961359140771
Ni 0.9327175766230817 7.637550130322608 2.5969562963698962 -1.6571508065507525 -0.8769703781941542 1.2080916985925712
Ni 7.799042793057617 4.041679019618745 3.5212057995770625 0.6416856425810885 -0.9076266696274304 0.5627190940781986
Ni 7.435247146038108 4.0668974486235525 12.647264366809196 1.348278270248207 -0.1466734649315603 -0.8397333482195667
Ni 8.452581704923256 7.166605759127744 9.16562026234011 -0.3170897820060152 1.2026694991357354 -0.8045346888312467
Ni 6.73281963652068 1.107607245160211 0.4521994919685385 0.7926798463751897 -1.273190487974433 -1.096435373166144
Ni 2.051763733603458 6.709823416500045 9.128190612818996 -0.37652288846166765 -0.09466647573664987 -0.5524981876811388
Ni 9.191111003019614 5.146044025441393 1.3489172830480296 -0.8599365626403189 -0.4733123240785913 -0.16286627264133888
Ni 6.554332539505075 1.9718461768980835 6.892186628858533 0.9933572763270312 0.13619133445331383 0.3839297224487001
Ni 3.339706880794794 4.512031408912087 0.577778889591718 -0.12153604643398423 0.3614865629538355 -1.2529247957468617
Ni 6.0724774864944795 5.479120365478883 4.67807049265078 0.027159591133927418 1.310978505356484 0.008726838350036584
Ni 5.4032100708761135 3.279042397009666 9.10566433535403 0.7472168289463841 -1.0203613157197007 0.4409868724730083
P 0.3304415652050256 5.4584738582365935 12.495133214790705 -0.07240586456623659 1.0035997799906458 -0.7571893667780637
P 4.267633957722488 6.198332838757907 12.599664468219949 -0.20096590772653775 1.191830242428386 -0.6312513346216418
P 2.2368172760190146 8.573591913008078 1.3798160060832805 2.154022148896207 0.9289231171123615 -1.9439185405344586
P 6.483158100114476 7.55316083340728 5.436525901552345 0.1325622223411588 1.1379180657909629 0.3139054707407626
P 4.8555266304163505 1.366011898881191 12.712406055252599 -1.0049467809368435 -0.8009729396219173 -0.13206908475482415
P 4.023782951365063 6.4368104709322935 7.8541590403134105 1.8930338378694493 0.6030388767431679 2.4717775895106784
P 4.987210727556295 0.883504755037536 3.5828019718010466 -0.3334782506663676 -0.4546785110274879 0.288394985174484
P 0.18775571211065456 5.772269803112227 3.6079147548049666 0.9211532433589554 0.08022690327255216 -1.3332635420069296
Ni 0.7749999369370045 0.3666745005436766 4.586642986297057 -0.4522789004470599 0.3761469931794877 -0.2268664296423835
Ni 2.182901385911229 6.658220809515126 4.636135405488398 -0.41326292419517857 -0.2071617521246045 -0.12133807149056522
Ni 6.072951072015697 5.810812378608198 9.153077531958951 -0.6957479716431308 0.959403802199722 -0.8649221887803686
Ni 9.06767822284549 2.2816348596711116 9.889538536365533 -0.16285264579458406 0.9624014513754651 1.531887431863852
Ni 2.614073680737731 5.276380225328643 6.955569675683725 -1.9095876284630726 -1.0483367178867042 -1.6482576178261805
Ni 0.6834203367716603 9.118707062756625 8.508817253343619 1.1547593057180177 -0.23175923895831052 1.7708910110894016
Ni 1.3339538020603452 0.878082200819601 11.50400888228076 0.9314849643022667 0.6461935577537711 -0.45832510664113973
Ni 4.17294417572069 6.595616446575783 1.442784665577407 -0.3120825585994109 1.1050524254111938 -0.05070652521593203
Ni 5.666669339294698 8.135161009327538 7.863449513201747 0.6126092940404224 -0.5290875220666824 0.5083410335479502
Ni 5.443337336385388 2.699437470937102 4.55649107119911 0.3570989754091011 0.5916108374118844 0.9798929232920093
Ni 1.1005854290667816 7.5306017692523834 6.730499067466716 -0.8112306127941835 -0.18934632120973843 0.06471389523861758
Ni 5.227154653363681 4.600628331035152 6.810716258088399 0.5611931443519754 0.5681140398415249 1.0090970556597911
Ni 0.7283699779248657 7.491612930476805 11.51505981827008 2.2779830027215993 -1.1330414544249519 -1.162976037200855
Ni 4.967411209803876 0.6771881334607215 10.429681948882688 -0.8540065703091293 -0.7756084927151997 -0.6319722719480665
Ni 8.553901684222092 7.497022734315322 4.682616002913076 -0.5585153404094961 -0.06090660567738542 0.24885090433327467
Ni 7.510401525289704 6.3506634431401405 6.896372396272982 -0.034835105401314195 -0.47220263595418027 -0.04004878839176974
Ni 2.1530381758329473 5.286453025068375 2.5294821992344994 0.7643514317441417 0.45372977396097347 0.6303735600023789
Ni 2.7084811329095735 5.240296651577453 11.455876199980143 -1.1551531987223267 0.5078522668369898 0.07330857888616407
Ni 1.5260291605693315 3.321574019780504 3.70512820119002 -1.1493178229874723 -0.2902479792228227 0.32193065503808427
Ni 1.286139879245164 1.2441455938926302 2.3101301361861855 0.06153086952494564 0.8145697044697454 0.9359985359019042
Ni 1.3098282627198852 3.2909275721094398 8.250981812989487 0.01536285560931548 1.333936142593922 -1.7722405831387609
Ni 3.729458657342545 2.803598963363241 7.232319393162156 0.4725813594498377 -0.0928193952255821 -0.5833701946696469
Ni 4.214182545722051 7.200886064932762 5.8552629334813515 0.5021058512715159 -0.8018805390378512 -1.0168810704805844
Ni 0.2906840606988555 0.3743256389354926 0.37590031079353925 -0.10927239857528279 -0.3348270513847782 -0.731028906332612
P 0.42529436991508907 5.777907292297484 7.782139432915717 -0.1843709794823341 -1.0271035195395408 0.771754151966116
P 8.794756351416435 1.8222569040905872 7.741564082644061 -0.9406812860895543 -0.41224965243931583 -0.3496780003546816
P 1.9580484448857023 3.509341571529189 10.279256615481966 -0.4621159411421396 -0.6175018462460333 0.7922751547376033
P 4.0835640160048445 6.244507427076568 3.6164456693765823 -0.7804146558545915 -0.35890877492433026 0.07787177277681427
P 7.319874427138542 4.22737918841904 10.091135696075144 -1.0606055079517283 -0.354209569676448 1.3068495707897752
P 6.462602667010882 8.00397781995042 10.07656656610801 -0.1469593716030953 -0.9615108212403956 0.13098176522791635
P 2.4946845923216903 8.688818913285731 5.659023665351204 0.7109033392273305 0.4308976065578063 -0.46378304443191737
P 6.906980711948244 4.310985247741587 1.5010484350665196 0.06753002453117403 0.07185564848972141 -0.19401647299189814
Ni 5.290414750101633 3.3514190150310466 0.3757245377058568 0.11611847496283872 -0.8823313853957513 -0.9492952530108103
Ni 1.6638425472434886 1.3233163426607013 6.759077221448003 0.010488558236149678 0.4841001587227147 0.08616126647911612
Ni 7.532423252026296 0.6017496028963957 9.232761938869265 -1.5338417273767455 0.20186682227425232 -1.324512792397493
Ni 3.0160749289400375 1.7119570147163656 9.261353753971356 -0.6270943750304748 -0.9474332601014072 0.37630820134770027
Ni 6.254543797160821 2.1663987519795893 2.3675141294954987 1.0707441390476269 0.701942787599933 0.7149374000873882
Ni 4.140949830796932 7.3346375450210965 10.237868883893146 0.969195334368847 -0.7088896512314113 -0.5869229450179118
Ni 8.346753555758989 7.411085177042169 -0.0776416139793721 0.0021702681784414235 -0.9589206919157163 1.1635560780740413
Ni 7.624198661589836 4.139447107508454 7.9609562183134 1.0876198317570431 -0.5822301675279328 -0.7993076361043525
Ni 3.351373477961699 8.428966180759492 12.19225796988606 -0.40792017182602647 -0.02893545208742759 0.9385081896976352
Ni 0.25428354894500454 5.221025363829468 10.097454419817842 0.8200947480530327 -1.6621881118643438 0.2089656381025627
Ni 8.945347439749582 2.6075072353377795 5.5774467378387955 -0.3956997185004346 0.12166871535710658 -0.030605126480366642
Ni 3.6385211298550044 2.8401288003940395 11.512313932988409 0.4193075877273617 -0.1516896871992291 0.37625677928447465
Ni 1.1442281563297052 3.3464554744721373 12.794743451823116 0.4172872148632233 0.22672861851293852 -1.6894526040072515
Ni 3.239661939437696 8.654465748169757 7.694097152297309 0.02148336668475655 0.16066206590116847 1.143912849921817
Ni 5.472517490423453 7.8560734187087915 3.1421916639815213 1.1892084885348229 0.054694563329402576 1.4053745010405667
Ni 2.9582974953515593 8.782315624070618 3.537548143024598 1.2432772453547685 -0.3868718357961595 -0.9448235903927019
Ni 3.4159541497107373 4.567859855932481 9.07224650164246 0.7669796133956082 0.16222323974070124 0.528442946504148
Ni 7.497377923456235 6.310417781250561 11.164917095382426 -0.5743353381608883 -0.6049294088976614 1.0263391305696905
Ni 8.184687125950198 9.145391785394432 2.5017300876911808 -0.7928551956107893 -0.6044110745003463 -0.7324471268363774
Ni 4.550792562340928 0.25581723744063817 1.5284280533825731 -0.12127096569805565 -0.3110086088089418 -1.1384014331852845
Ni 6.22963502022758 6.025920386793297 0.20528110861984575 0.46841205856349655 -0.18300932324811706 0.2807233275618391
Ni 8.180424856259243 8.965666080092566 11.358449640110543 -1.0331430408654014 0.7119268953958384 0.3908087089567205
Ni 0.4289300495318168 5.153247989812215 5.576753663643322 -0.15599191411900876 -1.1721181087114394 1.1071455604947966
Ni 7.323043807165148 6.188961309886132 2.7264136308187337 -0.23713413011697868 1.372839761637655 -1.289605696107663
P 8.513127792328081 2.019204729019787 3.2554669454669276 0.27004605035365103 -1.0374966898484068 1.065897609588603
P 1.898048802313052 3.269816586759804 1.460686198279411 -0.800180525627609 -0.4032844728262281 0.6535844509012034
P 4.925125487207516 1.1224705445953302 8.157967795139687 -0.005766213059815875 0.676671414627654 -0.002288281813544446
P 8.574320506117644 1.8632038368481216 12.263130953877575 -0.26515401236867236 0.06182628927817738 0.2964034573012573
P 6.715861631895562 8.017739122307322 1.1863973040285345 -0.7754876508666194 0.2746604091972109 0.6580052056767184
P 2.190424109767484 3.3268198901693693 5.7475058340595115 -0.8248811136980825 0.6713934540581663 1.1257122677533904
P 7.009530192119471 3.7662799316171696 5.645347972684675 0.04869592254380646 0.491486938105089 0.9958000814405689
P 2.321425150867212 8.645285474989242 10.04896108392799 0.2297524929409269 0.5137655469976314 0.7240900131209336
