# total energy = -340865.2681178534 ev
CRYSTAL
PRIMVEC
9.31178185054841 0.00000000000000 0.00000000000000

0.00000000000000 9.31178185054841 0.00000000000000

0.00000000000000 0.00000000000000 13.62873398761563

PRIMCOORD
 96 1
Ni 1.3873064666535964 0.8663709515746028 8.624466874640818 0.28940671426844994 0.8906118802369888 0.22257191603208765
Ni 8.517021020543897 4.334755377834638 7.0262252757859756 0.400863007868929 1.288163821454814 -2.285095959617297
Ni 1.2839643146982078 7.868222639079516 7.810218620450456 0.9003597036523721 2.1649102565636196 -0.7643753430035417
Ni 1.6176892546810129 4.794282486939564 11.809679091928196 0.7133263468465264 -0.5193792936399829 -0.36828687370512053
Ni 0.3142270005361131 6.765549399928205 2.963786431960076 -0.246388301725395 0.2157212116588414 0.5402430244628695
Ni 6.217169271003643 6.761554645631137 6.477641218844849 0.33632831852065304 -0.08537990822840134 1.350307899083726
Ni 0.7952680497994218 5.011219062367991 1.5488509781856619 1.0252831785013505 -0.9724043282244479 -1.3871667197832882
Ni 5.617434666675047 7.255321175599279 4.286849986327186 0.955277181625858 -0.1320063498376888 -0.13759078590400176
Ni 5.279184200845213 5.135456852184967 10.761016048287033 -0.19853338702564519 0.6217310538360324 0.05970050118442621
Ni 7.222757875420147 5.885194945957548 12.48074473668064 -1.0825735275823873 -0.4221609980157568 -0.3688432604292228
Ni 0.9767034579607814 6.6232281302862726 9.920422901655494 -0.7024397818410095 0.2589077743486444 1.6733148179051245
Ni 8.789120590041861 9.040091727138783 3.316048335530698 0.028969390649156563 -0.7814189287493897 -0.407683116114556
Ni 8.518306046401696 6.847325465748373 5.269236424585172 0.0023502453997314363 0.30950914144527986 -0.24967442867583453
Ni 8.933155227494192 8.845494115716571 9.32529762920813 -1.05507455083117 -0.3608715550776559 0.28443548630610366
Ni 7.100009970655692 8.56593580917443 12.15687166160762 1.1274117669430002 -0.826463370583538 -0.04150660388421884
Ni 3.0838851348655205 4.544782611332005 9.704503172775409 -1.3646649391363468 -1.1248175238532627 1.290619739194474
Ni 6.251427315430014 5.272675265522019 1.1367003513945424 0.9747807988764243 -0.7219017472203632 -0.06061992767490206
Ni 9.212247944957419 1.6046900075977797 4.5928835502525995 -1.1686887713149163 0.2985413295798665 -0.05112150126616357
Ni 5.01594944740974 5.160701092043595 3.2407625814705683 -0.5642486433488476 -0.29007057310469403 0.6235423960131584
Ni 8.318074807124644 2.587045716976557 2.369395859079236 0.40556529844060474 -0.7478539483097507 -1.029470991330453
Ni 6.518600952473086 0.665586592471803 9.221024299094918 0.4723468748415285 -1.178739470682699 0.07772907655136291
Ni 8.49447719734296 4.524045273757249 9.284302510809896 0.3922909499292018 -0.221332901418664 -1.042652008797101
Ni 5.143334619400164 3.239047351303855 0.2863167976116324 0.4054310868555856 1.4908744797866003 0.733580211999556
Ni 5.278783794237349 2.63872610473583 10.243301478455956 -0.7313973454156242 0.09751885758378044 1.0408974879998396
P 7.2539709672704324 3.521119838872123 0.7516833249442776 -0.3049642023870748 -0.830478148169886 -0.5705555594034819
P 1.377920190822723 3.4602673462582767 8.008134950827156 -0.21975604384984734 -0.3823474655632448 1.1270551549345298
P 8.71548302132108 4.320582846272544 11.239125748709512 0.4144502596350604 0.19494104168869653 1.543832005820238
P 3.913304143603164 3.586488545551419 11.963738793427666 -0.04222985520348856 0.5659602267233156 -0.9033655803582312
P 1.049465719213206 8.750998156260517 5.242523716771654 -1.637109314518845 0.2826477982780616 -1.0323801945574478
P 2.7107899823698856 0.14201863674063875 12.099889145417693 0.15942073729489964 -0.26345836983380433 -0.6089709259568867
P 3.1024435155509678 6.6709510108747905 9.467417764367973 0.49075597347633537 -1.1785687494327897 -0.528710855453554
P 7.3079699886426885 6.429189225758756 3.0531227332436224 0.24115867789533954 2.274613572028734 -1.0492988246896573
Ni 0.12325539686047043 6.2523398700246835 12.851445830132505 1.3798578448267012 0.7419743496005222 0.29582521620028407
Ni 4.486975071294246 5.727611666308869 13.247292458558272 -0.09399516070123813 -0.34544339344804376 -0.15372342979980622
Ni 5.411309069658965 7.585600756398132 9.193616932375662 -0.5816064179010049 0.174947372175589 0.21627656994167915
Ni 5.24381805441103 6.983603389146022 1.9073825042929178 -1.2810068986950582 2.7751405088489043 -0.17565596820683943
Ni 8.594401925459131 2.2740394910053525 8.029327634521088 0.22283982498149366 -0.7368136313351891 -0.01697442307080948
Ni 7.333372528788147 6.600907789843214 10.077766868517612 1.295246182222892 1.029101523806176 2.148694051815074
Ni 7.951861061215332 7.038095934941925 0.8596552947003707 0.03130498076086867 -0.7262055168020397 0.9569201165459197
Ni 1.173377596674943 1.930146085539101 6.505417332114604 1.186113394549267 -0.5003790983883963 0.8012632171688264
Ni 5.83811457829793 3.0631291737276074 2.7117909988895477 1.3627859769460788 -1.4461005180050193 0.10292897285575821
Ni 8.400996222078936 6.701158430314625 7.843662815166888 -0.42577416928831185 0.7150818960850522 -0.19914505246771508
Ni 4.1446926040410315 5.743348577176107 5.473053630948007 2.8481616384016366 1.1863219110156473 -1.849526144394802
Ni 3.4759297628728882 1.3676865428682294 5.13883702889787 0.16739501374962784 -0.19330119209242838 -0.04406870818444023
Ni 3.013646366420801 8.717959955220895 9.655140487450964 0.2025545923698963 0.9692220738417242 0.10934464657411491
Ni 0.6050981905176663 8.402700278107755 0.7722651557666775 -0.47823135864676347 -1.508769614899466 0.8803385233354387
Ni 2.5507297688213924 5.480048641269586 3.741972949632361 -1.1117969432238788 -3.049423480102039 0.9727984783390731
Ni 5.692180337403639 2.0097990651594286 5.6870113674495535 -0.43556235902332724 -0.49562358598128187 -0.6946871344787843
Ni 2.1651475172293284 2.8546849430985413 13.223251300879554 -1.0076322981888066 1.752884804319968 -0.7698224821610419
Ni 2.292653742380269 1.159987254765423 1.0517256886022466 -0.41843521242473747 -0.6389731287459318 -0.29180581062824584
Ni 8.889371230513271 0.17716409395141755 6.826074117830497 -0.054240763621435616 -0.7003412474407681 -0.048404873665948894
Ni 7.316453021660472 4.580996129889809 3.8601618061361074 -1.1344167375059238 -1.012741594390914 1.1003231382563243
Ni 2.787621492172004 7.8634643186930315 0.9584132565847882 1.199606029719063 -0.7134572159974357 -0.039658752042202663
Ni 3.8750979037876156 2.7857870712010895 7.081216933074472 -0.5574871562552979 -1.465678954357579 0.16171313287350214
Ni 2.5171049255423417 7.252546264688961 12.108189667516541 0.04155082685859296 -0.024555577852177064 -0.13104938524105816
Ni 1.8167099623528924 2.959042079245959 4.632652307016978 1.6815451762347167 1.3605884550741278 -1.745598040850568
P 4.026190871676256 3.6141631604019695 4.423627952395587 0.08568586950459436 -0.4160841956940576 0.9845522764408914
P 2.5144883149188546 7.285286488718078 3.0336201379061416 0.2746717220511205 3.414440939027268 -1.2620699525812393
P 7.594456260679046 2.770078095678586 5.746391667395878 1.7748255702571176 0.16730451091835055 0.6255419429416904
P 1.2562710762845004 2.661139562994671 2.2734640229038168 -0.008411363992146806 0.8470388807420444 1.073823035083267
P 7.021241610285298 1.1530220421448942 3.2834887600641984 0.31754306749334993 -1.3548554092450924 0.7246384294252359
P 9.108756804496778 7.792108136458922 11.326404146264267 -0.4322335517604104 0.6858487102515478 0.1576505327683543
P 4.614136760526791 1.2425268866750072 8.662695462732156 -2.075266430852542 0.4749686287350917 -0.6859890924841541
P 2.477688154121621 5.62846912784527 0.24149546816289688 -1.807360309660029 0.6546681708836853 -0.44407708136255775
Ni 6.8334229758520495 3.482587686701335 11.98730225671142 -0.19980119799447527 -0.49445810491827097 1.3195976144840627
Ni 6.815078766142902 8.807474111532587 1.5892333813560469 -0.45421339846561126 0.8532318969266337 0.975193460933811
Ni 5.096365993119484 8.490780420056396 13.513557265719307 -0.7875785205928824 0.4107676685771506 1.3964388891138337
Ni 3.476330169480753 8.185568155266184 4.963516667698945 -0.19585841129664333 -1.117397834350424 -1.0688878025651785
Ni 4.068987819809881 1.569789450242509 13.034847886563192 0.6397560296585434 -2.4241214210852964 -1.1068218586067904
Ni 1.4005943789657551 5.705077154889511 7.9454834220123916 -0.9428669808869632 -2.000212330030181 0.4961455199230229
Ni 3.598537990913671 2.967078146747986 2.303379052402094 -2.598357369016157 1.3157748983038628 0.27900145977472596
Ni 5.110473342210529 9.438049336448337 3.4377114177412884 0.21162904386733875 -0.13643224681952634 0.5902468671848222
Ni 2.9527380031174855 1.8285824838651579 10.547018271124701 0.915683478493636 -0.8270788926803498 0.4350954466892378
Ni 3.926433755628493 7.007190131883722 7.383311613392288 -1.630709067419456 0.783912898815837 0.22570403390316612
Ni 9.054115270195624 3.6733115969869967 13.207046938577088 0.5471752328063285 -0.4127111654567666 0.7318359756149396
Ni 2.3991619000722615 0.36832472679309863 3.149750159502937 -0.28487771604984485 -1.2126875454933694 1.3969106865439298
Ni 0.10562167608574352 4.19634505645557 3.622612671006071 1.8718260934435829 0.7427443949973274 1.2219350322335665
Ni 4.898639623086981 9.127156884895394 11.172208492753752 -1.9022291312154724 -0.48381888003687 -1.1648691404585099
Ni 7.015216887604171 9.102825199631434 5.258579090568868 0.7471996025552035 0.26522317504371096 -0.8875566383504327
Ni 0.9559102496965552 2.7970077680028775 10.29971132007882 -0.7846127530963392 0.9138957904655939 -0.6952201241641188
Ni 9.029681155334302 0.7173936204605397 11.579516993124182 0.6120559926401136 -0.2901772738858874 1.0467182084466748
Ni 5.196337280143547 9.062663485684453 6.662270568087548 -2.049571340079283 0.6377762802243532 0.5467733693822197
Ni 2.6442479912117305 4.769839060296665 6.454309618922393 -1.2135640345610519 -2.5464977040323884 -0.29867297006172433
Ni 6.167435045594224 3.0125382644129894 8.165369969844807 0.9270451833633583 0.39662454430754923 -1.0440537742406344
Ni 4.4664146575694765 4.7235222587264625 7.993660717541927 2.003849926782768 1.981872908291045 0.09974826113493143
Ni 7.833461758447919 2.19398610477716 10.2309540560832 0.29864777325074376 1.1404146069605716 0.45578845626221504
Ni 7.135310934618827 1.2848582457297195 0.054173151687769344 0.7730895829480879 0.9905686578383003 -0.020948577227209084
Ni 6.0903707412526495 4.392190446609267 5.966659998273003 -0.16784469969253674 -0.04508506526409655 0.2656522921613296
P 6.256111141563873 1.2422568450092382 11.670311519402883 1.9748720514931795 1.5523122753771073 0.5094124122352581
P 6.609120781195228 5.417808693200581 8.565782164778389 -1.2550513551715612 -0.968343785001829 -1.950304132345828
P 4.357550619138187 1.1265952060258284 1.7791769643454511 0.6112684637418118 -0.8971813059243903 -1.7824090390313303
P 5.416430549527001 7.120756620012027 11.91756446211561 0.8229692413873505 -0.5738658547236375 -1.4410943230396793
P 0.2763457418976452 0.9815362725998918 0.24407669401638704 -1.5102318012672893 1.808147581448015 -1.7125974175548313
P 2.7853401056853335 9.205580709347394 6.661929756881785 -0.13266455224697798 0.5026948910057666 1.9303616277856301
P 0.8669901850495562 5.485253927171827 5.527719375881265 -0.7986869718012181 -0.35209792265008394 -0.8967491034829782
P 7.0270242266453895 8.611023455576303 7.63209075710569 1.365713435005519 -1.0495798462651862 -0.29321040428525635
