# total energy = -381173.16557452496 ev
CRYSTAL
PRIMVEC
9.24214933453688 0.00000000000000 0.00000000000000

0.00000000000000 9.24214933453688 0.00000000000000

0.00000000000000 0.00000000000000 13.52681976187472

PRIMCOORD
 96 1
Ni 5.187988069037566 8.574856846946565 9.194084544635567 0.3692116995122351 -0.5477683863056373 0.2719188418963317
Ni 7.318127874039609 5.9708165961755215 0.6584273495862765 -1.027821885762804 -1.110791641887816 -0.6078532674126756
Ni 0.6378265988721198 8.015669847749912 12.405162098213614 0.22474989752001293 -1.2675047504435655 0.10974162490221745
Ni 3.0342068462128156 7.976936000175649 12.482928314783434 0.7351809808277726 -0.19146182489084446 0.26130224272274993
Ni 5.566269238499403 2.0307220053465103 7.914921178600059 -0.34037420645525257 0.8577855777355872 1.356465948265322
Ni 6.691926050514401 1.4050747107772688 2.9621975644208547 0.25710183148815724 0.18295712985394297 0.21560216958247386
Ni 2.043189664706491 5.45844108301171 12.023949319004569 1.1221212079680223 -0.49456660547167725 -0.30492486450870715
Ni 8.351067444617003 2.9809813085892944 0.3081508166156761 1.2937852814066493 -1.1904019946222917 1.9466287403767704
Ni 7.868654979373918 8.634237655981314 3.6122016191659996 0.13520660194254133 -0.11604751251558725 0.8757339346838918
Ni 7.261686068471483 0.5774041996150797 13.169900966593016 -1.9050298338890612 0.632977316173813 -1.1180344394931583
Ni 6.4765562461662665 8.254209720308182 1.3248953690340677 -0.1263740912525759 -0.06343271453334882 0.11701861817960493
Ni 9.430873954122838 1.5788548434279144 4.438312055532069 -0.8432814705821413 1.1147542260799899 -0.26329381923148204
Ni 4.467996914759885 6.576722659912354 10.574144454209184 -1.0700782233288537 0.04907541737041226 -0.6484594709698123
Ni 0.190490862738697 0.8833563089203484 13.00212823096534 0.09377404582936753 1.7236421054047668 -0.6278747048399251
Ni 2.4618590264612243 6.271740976280027 4.886252228227495 -1.0156399989846314 -0.6128134396314284 0.8478994289701268
Ni 4.745945311788844 0.054145131475498945 7.099118511310481 0.6375250834454956 -0.19885940290649623 -1.6648636018139777
Ni 2.3668127634085603 3.431720928297425 8.284162601864715 -1.9426090776944158 1.0444443248108335 -1.3959444659759184
Ni 2.7267759930249693 1.635684819265218 6.8227246437880815 0.9933889008959149 -0.7734726773191196 0.46415302617682647
Ni 7.858146655658352 6.270003452217998 3.1082327649746415 -0.9821048433416634 -0.6729638838690798 -0.30667192910680086
Ni 4.074863611427411 4.551453522632848 1.062544947321521 0.3285833844679116 0.49655689642882866 -0.8903375435296795
Ni 8.301085901385887 -0.07030410525236373 10.898314688147808 0.1235214522951292 0.6975132910736697 -0.9921079773009625
Ni 8.442823502530933 0.5252442818019409 1.5743455988009798 0.7849889054888352 0.7423289047264634 0.8918172133989997
Ni 5.050021264793092 6.857332795929953 13.176421302900255 0.7350069171437534 -0.20786623439079685 0.887861314075045
Ni 2.01283844651659 6.0202805790477365 8.784831084553145 1.5548322135854837 -1.1810953725093853 1.9839591013961124
P 4.31027039538447 6.640225467519788 8.221736504646783 0.16525637014007025 0.40341148532239557 -0.4873587748693284
Ni 0.7498959766580295 8.680781119685438 4.846077529582647 1.0822300282000394 -0.9609338656910031 0.3363350033888724
P 6.727092428471947 5.518293241659031 11.980974249132089 0.07041608782971744 -0.4073180194656533 -0.6266138358496305
Ni 8.144865852340848 8.078082081743945 6.729498159925915 0.9832613255436098 -0.09589006373110583 -0.4145960411843053
P 7.553017097637767 8.661039888853029 8.728058410041292 -0.4792896247079488 0.34260900932304217 0.8328476768433268
P 7.889403604476332 4.268828598075238 7.060513129611016 0.6162800580237903 -0.5370983081863008 1.1147259439452157
P 4.038301668930684 3.462377137413108 4.891217110813249 -1.017248995342964 0.8786107420110545 0.3084254214627979
Ni 2.9078019707002443 3.3289482284582945 10.442853254379623 -0.6149561970060441 0.3630374523807231 1.511062781809017
Ni 4.561361106646117 4.863865894275127 12.155700777867583 0.8122788515530398 2.2685059164691 -1.7902696727263296
Ni 2.849696578264218 1.1541318739038802 4.4776069015667845 0.1988231503519221 2.901010149661236 0.6916545183000475
Ni 4.4554368339072425 0.46316199253670765 2.6439931378335055 0.8643087235660858 0.2762781473062919 0.051827526194252675
Ni 0.3101711504452475 3.864253513951321 10.11738449846911 0.19170530836021824 -0.11849083184975724 -0.11631259325151583
Ni 4.859438904776661 0.23926445706073346 -0.2138901362506315 -2.606078391809499 0.4904052750051361 1.6672536993127092
Ni 0.8316372416272031 1.6167938661652914 9.15873886898226 0.5954780336767744 -0.020906411135363998 0.19643202441192623
Ni 2.669733447754545 8.924598259474656 8.415683931211005 0.2144641993232887 -1.001922906508855 -0.05816066750113209
Ni 8.92128957003739 7.42952349914402 1.237716023436716 0.461387033395915 1.800351225332048 -0.6814613798171296
Ni 0.9498896172721397 6.851251461712852 3.101523888822373 0.7009539413241024 0.37440198546392295 0.29672895896147605
Ni 4.152220400784742 1.261220657450284 10.913600278819025 -0.5293613445533593 -0.7171058684936166 0.19885528914143816
Ni 2.380703713755522 1.0814054013288694 12.836870284152974 1.2209515852743749 0.5058640327623676 0.7816107330452217
Ni 4.509642039352972 7.173414300830877 5.725009621649309 0.6625969388124588 -0.19933994208734057 0.6679060097301981
Ni 1.8275610801789046 9.4872510646461 10.778778577969808 -0.19558844546470833 -0.6180384354757936 -0.6109046526444898
Ni 1.955842111992496 3.317617353458045 5.554829306137814 0.583110513250357 1.2862213530164623 -1.4140733143661453
Ni 7.5720281986781535 2.895731723758706 11.632199565417231 0.6750729597922825 -0.2906467573231381 -1.3413368059333672
Ni 6.369643063455919 1.2706384075524488 10.143342923112831 1.1316432885258445 -1.0979021875196577 -0.14173488997936237
Ni 9.402500555875882 6.26014207895106 10.830883967102277 -0.43407934671989756 0.7324098458405387 -0.39484816913341675
Ni 1.7998623588283764 3.7624512397851317 0.5976491275824912 -0.4814812330426288 -0.588160931190071 -1.0050375408784369
Ni 0.7146334803481177 5.047821633267759 6.9975999711267605 -0.16604132793521084 -2.307100488912846 -1.5797901690824019
Ni 2.365925517079014 3.8022294502264646 3.1339203946448646 -0.49158823956964365 -1.2135437228460777 -0.17063846038759
Ni 7.135807995467079 6.3712049866818905 5.329878165645503 0.20066071778129313 -0.15040979204554097 0.7191077294149937
Ni 0.14484296329845855 5.17688824776897 1.5766995742190577 -1.2786263142780239 -2.534360554449222 1.2431052385532784
Ni 3.7324512232673426 7.701603131389 1.4804971182932036 -0.06864151242779791 0.769320859934275 -0.3415826249410569
Ni 7.184412458457546 4.496564398141428 9.546512649955318 -0.38163424154630404 -0.8764037070574068 -0.0431870769104353
P 2.203929124742657 7.271593652484751 10.604065912458212 -0.6703207898192778 0.09605564277469263 0.16435751247488467
Ni 1.362375981167846 7.137453098036446 7.040547314551442 0.14388947442851993 2.9865597506982824 -2.204552296435274
P 6.01965211289764 9.228812844717897 4.761047907904592 0.28215826023615276 -0.012037647890824428 0.07733106978199585
Ni 4.393024599913209 4.554327831054608 8.772859728608754 0.716696805980656 0.4087817484953734 0.3099022631186405
P 0.36492349112752975 2.7815172431281323 2.631304591106064 -0.3830576042563919 0.8097583991240314 -0.7855319224764987
P 1.6344001605172287 8.498183976634925 0.844679762671536 0.16636734381606186 0.4662713580714099 -0.20335471967368848
P 9.402592977368544 6.584033199981847 5.200358685830253 -0.553342537959305 -0.07487103827727751 -0.05493470436466669
Ni 7.104865279724147 3.9825530245575154 2.1679836336019798 -0.05933848985931715 0.009855295527524961 0.6565818429666305
Ni 0.5988367437631862 0.499665709493058 7.082209999228134 0.1796586616083293 -1.8256881614349398 0.1467698813001085
Ni 9.432722383976058 2.5534672099868954 6.607174617529257 -1.2463057477684472 2.153803348017181 0.6359587673996402
Ni 6.619365936626181 6.693062834874133 7.758064345470585 -1.973108017614221 -0.7279263561478883 -0.4825101885277755
Ni 7.532998602327375 7.52578972589981 12.306808994153537 -0.1654072938956377 -0.17199060354011023 0.9431767988178982
Ni 9.028322900688197 4.865899167113671 12.663361870690752 -0.344134187718317 0.2624121879574771 -0.30323102174605193
Ni 3.3362864949755844 5.825308198129903 2.831501559004029 0.7906293916040642 0.9578541983244149 0.38408193175584815
Ni 1.858744091802756 6.246768688963 0.7824412810837055 1.3959789187582796 0.8452655908917055 -0.6734577927863626
Ni 4.772839966153221 3.175547034939419 2.8642224642657608 0.6527395864024048 -0.56135023875513 0.5082387036421312
Ni 8.67603065496266 5.996676129822093 8.674709027617604 0.613136627298802 -0.11854585345740874 -1.3874873363475007
Ni 5.8414172643007305 4.244678862042896 6.7273207095588194 -0.5400651041241086 0.2272829483545118 -0.5102413358944567
Ni 1.5624777549283693 0.8507500063095162 2.4827259510742445 0.09619576789698273 -0.446850787452953 -0.7578128592946756
Ni 6.939569440099789 6.814403012588877 10.053119213547223 -0.26377178730916506 0.6848783759184786 1.4752673693769625
Ni 2.978541381183042 8.393442699002113 3.7357155503881323 -0.3277562605809259 -3.1744138036332106 -0.18669294274729137
Ni 3.4550111444480196 2.1318773290640722 1.2585986597034888 -0.13371999009468583 -0.4424696276661218 0.10606546160221088
Ni 6.246528393082081 3.7877747287742705 13.350416777628801 -0.7499650811154825 -0.518087828522069 0.725324399748667
Ni 5.368551939249535 3.2528391292518877 10.377086120201993 -0.06705462755665226 0.20850001132005383 0.9263013632187983
Ni 7.4802444143164255 1.0768120531436132 6.3519914825725765 -0.40332432492522796 -0.14739003138261067 -0.6677733408070756
Ni 5.362655448017757 1.966452099349989 5.548214699908059 -0.39893982270428713 -0.735287938719282 -0.5082746990863892
Ni 7.966825088878527 2.326212001682544 8.480058273494231 -0.6554641844224195 0.5698608473293024 0.26743612353462975
Ni 3.761942921575496 3.054003529940821 12.63505039484388 -0.9420755953339194 -2.630528811542379 0.6996380507261564
Ni 5.518838528465731 7.504477329692164 3.4210138983726384 -0.5229065900669511 0.2767985385861362 1.2066637078967928
Ni 5.403644380012951 8.534755161280918 11.582813216598852 1.8073160866856552 -0.7603227702007228 -2.6678074933881795
Ni 3.326776323380759 4.939559096764559 6.723126622221859 0.55907892622245 0.7854699588903118 -0.6734829895973434
Ni 0.5168126690264697 8.069486882926464 9.071978192746663 -0.6290805522225682 0.9023155418271621 0.7037081070304719
P 5.6128958815469225 5.955058731676806 1.994313482527601 -0.33979725090585994 -0.8389576463958067 -0.2344624968220865
Ni 0.20529031635851716 4.566009907726969 4.234652054304094 -0.08404164903295204 -0.29626204662738653 -0.10841827810510359
P 2.9591051412764147 8.803581556984227 6.025332337836591 -1.3523035893575162 -0.8047648025641818 -0.4587169427629197
Ni 5.546666639905986 4.964845617156633 4.297037486065256 -0.3110003812788256 0.6070189444368385 -0.5874297094510011
P 3.2608151040685396 1.6413132881682782 8.971460577328461 0.8769649788775156 0.04017451533635662 0.7019785259338749
P 5.647757268578685 1.5752781316619304 1.0691586293363484 1.0097179770732416 1.8359869722577864 0.720429790660527
P 0.9602408244501818 3.005805721518063 12.023529725427887 0.24453633611832082 -0.18336542103595518 0.5916275495824327
Ni 7.225854255766778 3.0564434573470733 4.55251914244323 0.7592879011783054 0.7663538068861512 0.695626101353286
