# total energy = -381163.9609841983 ev
CRYSTAL
PRIMVEC
9.29230277156936 0.00000000000000 0.00000000000000
0.00000000000000 9.29230277156936 0.00000000000000
0.00000000000000 0.00000000000000 13.60022438655299
PRIMCOORD
 96 1
Ni 6.6763707162607675 4.190103657308636 12.518829757254142 -0.18443191462725658 -1.5638097344937454 -2.1889750108223076
Ni 6.190020892300356 7.300636894893993 0.9448822109616168 0.5933545595758684 2.4792479297457946 -1.124018167880419
Ni 1.2681762848893008 4.127352738085787 4.073226004873709 -1.2664086891659092 0.003585917579045437 0.3935500191472835
Ni 5.896114654465398 8.233918595333204 7.765578182974422 -1.0056168104206746 1.6464357341260933 1.3688540375170297
Ni 3.622938677938612 8.507233090683663 5.280436421862937 0.6021647016683307 -0.3700246823318337 -1.8181594571580624
Ni 1.8179460738572557 9.384760975731625 3.936067902090215 -0.41843315554220845 0.9069229586921865 0.9010801267581642
Ni 8.098362485511952 7.430496823242772 7.496008485557743 0.22884900729005106 -0.7415616875431358 -2.45764089299898
Ni 6.1628223226919925 -0.20341779545496416 4.549751077331925 0.6023030270184079 -0.008451473201462863 -0.2981433228104995
Ni 9.074463116171643 2.7303293858273148 7.4344674241288855 -0.4197403043894062 -1.2446011063725146 1.0669119097857303
Ni 8.831980480732545 1.9276324133369687 11.924934540325042 0.3429193414746094 -0.5689707314148653 0.702526428017545
Ni 5.668973610561458 3.1823348595067182 1.0417442436710866 -0.326774870504263 1.327265929662598 0.5745243142432429
Ni 0.3349587013377894 1.9686393445572306 5.338999300319646 0.2786191367346428 -0.7332963622105501 -1.6251737394235235
Ni 8.617662814368591 6.335482596656119 11.005165706276156 0.44442366606869915 -1.114734428585648 -0.6441929823839745
Ni 7.161326694836398 5.140548240585785 0.7940997341570158 -0.12125065398308152 1.2173466415319358 2.3131312684879584
Ni 7.877884022547268 0.5130484676907666 6.630272532465027 0.2776675714546508 -0.19609803811127519 -0.891238200967078
Ni 1.629163654942494 5.914160306047031 10.533741178695982 -0.2773083883430192 -0.015412477900328294 -1.8024500168426056
Ni 4.6657673333190575 3.1362357464807222 7.729279661463951 -0.7850963776009768 1.1243935489419667 -0.4102102534117838
Ni 7.88111774383996 2.566366707064223 0.7357161971398153 0.5834910365182273 0.6803370364046992 -0.15698615971147803
Ni 3.7340095705005405 0.4889851209679044 2.4670673033918993 2.742916358707876 -0.44564288318778095 0.2386510809821374
Ni 0.5452890406710116 6.825326326381049 3.673978508238529 1.3579088513594355 -0.5560203419017844 -0.2568969145662027
Ni 1.048989451981179 8.372150888293236 13.356617251921483 0.020842133556331847 1.5879364523386201 -1.753688016947554
Ni 1.8141455221080856 9.204555352084551 1.6299869529497713 -2.4272000600106196 -0.5420556521915763 1.0768283975684938
Ni 4.615886253149022 3.1132651745395283 12.674552022102409 -2.0392383335843913 -0.23226034696444517 0.4076756599153883
Ni 6.496796969188126 1.9915913318932938 12.25201987369933 0.704310002280529 -2.466132989630392 -0.10689284259951269
P 6.304502059903716 0.1724056648738396 10.14654208156685 -2.008158324350135 0.7717706070263484 0.8970869464383712
Ni 6.068654128496177 7.05903702819859 5.88374288283008 0.33422772723788247 1.163879265741415 -0.786024288731885
P 8.633162375047357 3.7246986833302023 10.694236899371992 -1.036153288446635 1.82498547894096 1.2734877074998776
Ni 2.992455948889262 9.219673928358144 7.3363416382705475 0.20401472185519057 -0.055336824899091794 0.650638223788686
P 0.5853686000952659 7.071507298241099 1.5188454388883466 -0.16878649478051577 -0.15386638313557371 -0.20204319995111655
P 8.263468117490566 3.605153210828804 5.78981907619173 -1.517620894642509 0.2377969605119582 -1.4392166464009923
P 5.88750068998745 1.5860473710399297 2.365350971822365 0.7800508447572695 -1.2451158412254042 1.4787162471575115
Ni 7.674150288805086 1.5397345350549339 3.9030737233719313 -1.3439973834846661 0.35368095086648765 -0.10690826921848039
Ni 3.7642467230477266 3.9110558112754448 5.581069357524849 -1.4152156555007045 -0.9593945462283414 0.09779550828393481
Ni 7.1971020597124475 6.292357020450989 9.086133318963286 0.231578233295756 -0.2846018366806389 0.9125454470852865
Ni 3.022247070913318 1.2866679669940646 0.37695897970227216 0.5392004421309682 1.778287303553473 -0.8363721450568177
Ni 4.299390427778045 1.0741994688405878 8.96485947818476 2.369557212686171 -1.0679704329572317 -0.13325410620186082
Ni 5.022415198074299 5.503050255957107 4.739270375840109 0.5633934944374039 -0.0548377737754862 -1.692103154256221
Ni 8.660630421430113 8.89454555390409 2.749163024666478 0.4800270170946055 -0.19193825030663073 0.27920046315940944
Ni 6.454182469624083 5.088817992205273 6.794345789628646 0.7434313937620228 -2.042442185233669 0.5075141667712808
Ni 3.505651234960559 7.749064832085791 9.135597174748144 0.09207171842628013 1.7136752240000424 1.5686812036534339
Ni 0.9749576774441685 4.36779106696054 6.484872157306195 1.8412101683299384 0.5514358078548955 0.09669070525553024
Ni 6.617383179576828 2.1995809402103403 8.082409460468005 1.5154943352178094 -1.8090232991847488 0.3172926420454406
Ni 3.0500682247935504 4.636738180105349 11.877089403647044 -0.20546071027309776 0.3085002405647913 0.7211646119440225
Ni 3.4254679561253805 7.059854750824329 11.558462853297863 -0.5415820549892673 0.7797351132890635 1.0372460072901815
Ni 7.883254973429958 4.085732514896222 2.686166788655908 0.27720091623087745 -0.14423683046560964 1.1774230658641205
Ni 0.8301575850310483 0.5082127534358324 7.783490025399117 -1.8517630041451203 0.9968154100789607 -2.978929487846534
Ni 2.4872985045368696 1.9277810901780121 6.230765780588278 0.13405166240249172 0.12538730185927438 -0.15478298141257213
Ni 1.0244484809064653 4.821487739706811 1.605669926366879 -1.8062043416787152 -0.051450345360492034 0.7298580259529625
Ni 3.7102305682361743 8.141831876911995 0.47329228039578153 0.003933273616135161 -0.549311562423041 -0.15013725511044465
Ni 5.417217257162283 7.362319199321842 10.411706298337362 1.0428065320970943 0.4944866441633613 -0.25573734704046275
Ni 5.117326776475331 2.666082405891468 10.405368018757637 -0.7891222109309183 -1.8368881439158171 0.08636541207012223
Ni 8.13420289650596 5.58409771893085 5.099553389358859 -0.016089449362694873 -1.1744714394349645 -0.5315637515213169
Ni 1.3078730014478688 6.240208618455043 12.814919686191924 0.02721461274157894 -0.8304529513589053 0.09000660836713531
Ni 6.048220355155285 2.9314519825486727 5.598327951079209 0.8379109502988472 0.6617384474669055 0.1110811696492474
Ni 4.961123170354188 5.840528100520325 8.370665978343316 0.5366879601217596 0.8724292957906911 -0.26325371002216597
Ni 0.21857539939933113 2.1030432088603965 2.66507233260263 1.1494142393560205 0.01624268711110751 -0.3740188910928914
P 1.921332232197758 9.161541283510205 11.324715911500318 0.22222867376005598 -1.1500672995589871 -0.36219335921287305
Ni 1.535264937521069 3.214922964602902 10.72036313726433 -0.08665748938924431 1.0403483003645888 -0.517896024226237
P 2.531418357116477 3.309537189321848 7.897241747251108 -0.8648905642114846 0.12051146182421181 0.13431725735905256
Ni 2.7122465650354206 6.14147790369971 5.411638158702132 0.13163045455550879 -0.2843169584503684 -0.896856832705436
P 3.449813788846225 3.6118436686757533 1.1635263733999306 -0.5002608276429771 -0.15188380548790617 0.08375882768521059
P 5.081690796137759 4.729865636413862 10.979242969809995 0.6780896351314193 1.593872615317397 1.517513165420051
P 5.132017906830925 7.509565025770126 3.539417604022011 1.7344301971592064 -0.6770935897667372 0.729071268385609
Ni 1.242325099152893 3.286009079226742 13.232052077574359 1.2568328725520161 -0.43792366016665224 0.43689007669581537
Ni 8.950429461531249 8.6014756233 11.139086370845929 1.3447383754157485 1.0626999285869116 -0.05947321566496855
Ni 6.945141275656837 8.847387118385658 12.183189930138324 -1.7539705811849795 0.8555014096871008 -1.1127963310226707
Ni 8.792311641081671 4.824479861132807 12.922347996148291 0.7538106801138179 -0.3476661121309755 -0.9637553943001983
Ni 8.19685160040059 7.395483427177069 13.212087565513011 2.9401986469352397 -2.0050956262644113 2.1165251803920127
Ni 5.0708838482544225 5.872177683057422 2.1244498862798658 0.019209997269547564 -1.2381869753160548 1.6635114586614577
Ni 6.60068491186715 6.384443738872199 12.237849112287389 -1.7430320798956047 0.47723942704713945 -1.3742345851026525
Ni 2.9871500441245282 1.7097186258802803 11.629551755612471 0.22359161554585363 -0.13895964122707036 -0.03509324415870731
Ni 4.836801454334273 5.579470152253377 13.486907413879031 0.598538417769653 -0.5401844033107922 -1.635861815264989
Ni 3.6003769673102872 4.518121937860471 9.48630632893396 -1.8701399639904113 -1.058499774462635 0.18177185129659018
Ni 5.554919888876098 0.5424818360660623 0.43234203222116724 0.4762438959030896 0.8500622409494005 1.8105376789467462
Ni 8.025408618072507 0.15142364568160038 0.5378979432106453 -0.19621193798132014 0.5369167883031141 0.2003403583273969
Ni 7.455493117143181 6.670265673475425 3.0019638328739826 -0.7264903950323102 -0.15755643039265124 -0.5680320216506798
Ni 8.175767365880134 7.82075494637637 4.970487952879405 0.19369277110389221 2.120242224232284 0.7366269692456797
Ni 2.174482430981714 1.075054360676587 9.408349485793405 -0.7835735131985472 0.26181414936216196 1.2460450379078927
Ni 3.178339169403679 4.961615662390145 3.1134723928867327 -0.49752928764442705 -0.4562810796279174 0.4579327562987275
Ni 2.9123748853823006 2.487149827695826 3.279109544572075 -2.59917009472544 1.0216273269163179 -0.9348896191084415
Ni 0.6262538021519237 6.6676452441520375 6.42639105111206 0.5376019872955967 0.671772691774456 -0.5932272899693848
Ni 2.548395393903111 6.234596067705658 7.907279292482046 -2.370476124956014 -3.188449198680354 0.6158074892627459
Ni 7.89230567612847 9.004343401014584 8.945819550228649 0.13413419481396902 1.7850441626613323 1.010696538936427
Ni 4.366006944868019 1.3920798472937819 4.533076969608917 0.43007536776682703 -0.619850806094184 2.340741059785427
Ni 2.9011962453963562 5.772917307055873 0.8704592304866111 -0.16626269991739753 0.5789119017879771 0.15116955302970092
Ni 4.624416586903884 -0.05675180868675017 12.141463774699513 -1.0960381377277255 -0.16299919867477733 -1.9851430944018844
Ni 5.001934963220581 3.271513087225018 3.4955161205526863 1.4852406785395904 1.8305755714342278 -1.0963908930814537
Ni 9.147593537359828 2.149885706091609 9.49843742993284 -0.7044352150044836 -2.23729529519425 0.3379365435480373
P 9.773550915059921 5.937493277788269 8.614219087037926 -1.4518214796491964 -0.05951023955049106 -0.18847420301743023
Ni 3.207628507089214 7.5452753445282195 2.9257892533654353 -1.729158664347622 -1.1667501595313068 -0.4532919150926064
P 0.447269187061917 1.4282454888775706 0.5218687212856619 1.0973977370794132 0.027986972131229217 0.16553584905370203
Ni 6.594960853486982 4.041677708434571 9.503782362368346 1.6423865037573842 1.3917923914807577 -0.30183311295726084
P 5.749881688996722 0.9586403941396636 6.388732136506042 -0.6438137446676847 -0.470042652188384 0.5087598662529238
P 0.7800599942112435 8.74905597264063 5.697514917890493 -0.33420330175785024 0.6462825179231515 0.580203109795575
P 3.981565803140242 7.200921196066748 6.922255263668988 2.0308213131652892 0.8699535805566889 -0.9130879498523177
Ni 0.6750133014023387 8.04771943653157 9.034995919486436 1.6756509222374691 -1.5684505756998666 1.3293217837503621
