# total energy = -340860.92321088427 ev
CRYSTAL
PRIMVEC
9.35954754824480 0.00000000000000 0.00000000000000
0.00000000000000 9.35954754824480 0.00000000000000
0.00000000000000 0.00000000000000 13.69864391442257
PRIMCOORD
 96 1
Ni 3.8474480163709317 8.141159269889046 5.054388842577239 0.34774658765992367 0.20876740604882757 0.3986354040899908
Ni 1.3850071582752845 2.974398760962964 3.6615514866468093 -0.11347306692019166 -1.0780733257191886 1.1803595227846253
Ni 8.656495969497346 2.599473996834571 13.01908226306409 -0.22419633900938807 0.37682113642837683 0.0038849368767029865
Ni 8.580327969834935 3.306971571482066 8.963037069834455 0.6523690904368635 -0.2565660135893452 0.7399038402247387
Ni 6.912653109691319 0.04219471320694048 3.458400630629045 0.8340131579063378 0.5291464003290758 0.2677459414655647
Ni 6.157477998759685 7.022431245356153 8.440063915209619 1.3342804133072181 -0.6550173266929881 1.050153459380469
Ni 5.720527511632669 4.30129248720287 5.13404608164419 0.8303861026767119 -0.9093436523185371 1.329023278673337
Ni 0.4106454781504613 7.619879257453805 9.91106472638467 -0.05971849890655522 -0.1671250479176928 0.5191257828682802
Ni 6.804896636342421 2.692498542010868 3.3514687334377107 0.19975363258599146 -0.11964088629380039 0.22782262290806568
Ni 5.061737023522799 1.1178482270435492 4.531607558681462 -0.40937130245025627 0.5627635741628889 0.1742932835313579
Ni 1.4679701896107002 1.1328047843623663 1.8945502978207895 -2.284155964301531 -0.8225673779632414 -1.2086282878223313
Ni 0.9883776028938648 2.4218672185605588 6.008430944517362 -0.8226205997986801 -0.6800621854767578 1.2793621640027837
Ni 2.9109784653482556 6.988998940761151 3.0674551286016416 -0.13870741600694822 0.625715235294761 0.6522749880611605
Ni 5.99500560921191 6.111110799161801 0.9742297105014218 -1.728254664476114 -0.30686039096852313 -0.3633845513074968
Ni 4.170286897220716 7.435252818360572 12.710643046441465 -0.8594100007128878 -3.5879821748839498 2.7620620783983916
Ni 3.2209760466727477 6.25178480197896 8.369816765459525 1.0933477353797556 0.761884715371204 0.891550332890858
Ni 7.944356059161407 1.837391539656825 7.137130631232648 -1.0682139164266056 -1.994422462821281 1.7352028136591728
Ni 2.934583244796351 3.73396349979355 12.710506397044183 -0.7578753371014947 0.3545690098983958 -0.2078155836585195
Ni 3.5492996225092828 3.6992770157988466 9.434077837763928 1.3833442607134048 1.2368260904127861 0.3941943375995018
Ni 2.2661243438514753 8.872645365442752 8.701735343590276 1.2223309821204045 -1.1946201464686974 -0.43741535307166607
Ni 3.6431665269838853 1.1990329443047625 9.856503242723816 0.05840903606651231 -0.08263165605930284 0.7780862648317309
Ni 4.754509868334958 2.0231130458378552 12.25084777514438 0.1980150526283299 1.2693274054746009 -0.13495411961210307
Ni 1.6740487121674668 4.2861580984766325 7.587117096478344 0.2535529377946343 -0.014286591826001203 1.3458760885646177
Ni 8.556011864757158 5.660149069039623 9.135091764377853 -1.2961915768552967 0.6655647631915311 -0.881634873549359
P 7.3415731048411494 8.16864826165711 5.988636436961938 3.241029286769915 3.9474743331155757 -1.195863017736863
P 3.8130142401657205 8.409928043335322 11.029203099408747 -1.1341670833889628 1.771759529737284 -3.9268635988437595
P 4.425343933200117 8.215146494923617 7.414788167185608 -1.8418601432091117 -1.3593340138417365 0.20412065130543555
P 4.924722603879393 2.0513414418788765 2.291824726042802 1.6951815360712288 -0.2009149998839443 1.6138326033790915
P 6.876515895793977 2.4330799567757917 11.074353557797966 0.11062402750717078 -1.2140530583823286 0.535589327740942
P 1.1334131549666986 6.630107081943855 7.968706794565891 -2.3170737980754743 0.23725702884808814 1.9897489686050118
P 1.2335415968920456 6.119440796667275 11.9724920169286 -0.3377928188813215 -0.6429575673149766 0.04719157008413808
P 7.486140679526035 7.235791496069391 10.534709176704872 0.6997730336421238 -0.588652783224825 -0.7511459887974612
Ni 5.717785164139294 5.109218009303999 3.1089076296712967 2.0020707233951587 1.2010391626211638 -1.1036367760105896
Ni 3.0709518556443887 5.858674436554908 10.782312268849038 1.478079384904461 2.2117876378414487 0.28220839674779785
Ni 0.5553637415542665 6.431525557142015 2.45981082517538 0.1771361522967917 -0.5439163595493988 -0.9614568280740086
Ni 5.981265793101758 2.165612160468011 8.913022454474904 -0.19375627735197598 1.0187808586064584 0.5106781663215592
Ni 0.3166971456103552 0.35670266059647515 13.371849233827922 -0.21529569408564855 1.2338068439704881 0.6934676602493862
Ni 6.307932728984957 4.094231212131413 12.338670283676246 -2.392811812338737 0.3221566550059613 4.158427433961812
Ni 1.0264148049862756 5.053519340590432 0.306176077974509 -1.2161243390890606 -0.3199833015037264 -1.0135471210113447
Ni 9.233362336073046 7.649792372091438 12.470560350921621 -1.8290524499214822 -0.6606238742464882 -0.4066767863372287
Ni 8.210008103203949 4.576023292571604 11.506518508155828 3.60553303928352 1.3051019919710491 -0.3940084468409408
Ni 1.2795624932228487 5.047342039069519 10.009640419336806 -1.9474687197795622 -1.380657715020177 -0.7966876819830021
Ni 8.921661317056424 4.383001339138585 3.8979493282139486 -0.9645385523231258 0.8377736533900346 0.25454615494583904
Ni 3.076108966459575 0.3568917234612061 13.373370160338753 -0.5507120423149935 -0.4010681819011996 -0.016573588087965004
Ni 9.238369694124088 9.237068716985593 5.853814023403681 0.3873140655399007 1.710609954811157 0.012558553391300952
Ni 6.778399756636806 4.450071858379288 7.547925862147253 -4.6416171650551155 0.7840486530627528 3.685821906142259
Ni 0.6645840481726666 2.874757015521083 11.185820155878517 0.9452848462998366 -0.1338889115723823 -0.7086014305670313
Ni 9.202344794799854 1.0136483818430548 3.4909624972824647 -1.024670484618016 0.2069545212098049 0.7564373191033875
Ni 1.718656316786667 7.763407922337446 0.42925787482392785 -1.1536138792596649 -0.31058720500080705 -0.12012836745318022
Ni 6.385776087696222 4.386922989649589 10.205256839408609 0.574372876267043 -0.0581652954868224 -2.0732596848351585
Ni 7.253836704148664 0.6336170484573738 12.459136086927037 2.304450452884509 1.045875143720089 0.2063225440527608
Ni 5.356965238483652 9.227877641086296 12.196492201534223 -0.9597557862225018 -0.0575410316392622 -1.6334691466630966
Ni 8.183651616714721 6.029748250493167 0.3218196260988337 1.10246589563094 -0.4366393941375899 0.44647694905330204
Ni 3.493011302286901 0.6630219396516963 2.579207768072096 0.31891320836799913 -2.489681723484609 1.2470269422051878
Ni 8.265454064128026 3.89837331572743 6.380814591429197 4.413161279438426 -0.39649598914948486 -3.564006380794642
Ni 3.6090977731412734 4.686250686528868 2.779920461898652 0.07924294209272804 -1.0648848520533725 1.9288714163933491
P 6.687003772770569 8.21728047181266 0.8575900903744946 0.6040598618085146 0.8235078874996398 0.7034810786213304
P 1.7449566459893426 1.9497809891464088 12.962739657464706 -1.2443751064046376 0.0692889162038097 -0.21026301675774756
P 3.832688009555053 5.710746784224557 4.879320373655456 0.6732009395805504 0.03732470459238733 -1.297583572106817
P 7.378608835323352 5.920026272114887 4.583319996004488 -0.7436357964633451 -1.172773225796935 -1.3425969035927137
P 7.1518737908625605 4.095644503843015 0.8289760809658042 1.5821884941112494 0.43010185012938834 -0.4428594069053728
P 3.6849943459186747 7.863845229338839 1.218265878994648 1.1134257370765535 1.0272552146260565 0.06687362189409773
P 5.535901072539437 2.5495876072793178 6.609952231799712 -0.6779914189906582 1.758759003712558 -1.061406663696785
P 1.319115942052211 8.550218304694363 3.259126499293042 -0.4918921439633076 -0.11211552445103272 0.21763076997672842
Ni 1.7423078939735572 8.769765216476271 11.714970612024265 1.1188931879490278 -0.1458363137422456 -1.3116446781855733
Ni 5.608521803601203 9.047388122102523 9.20864002662253 -1.8708053654885521 -0.06613442973522804 2.88994489298601
Ni 5.624929090822659 0.5469448283450826 7.150391238497542 0.997583912813869 -0.09204009385739632 -2.025694533461686
Ni 5.047435634547108 0.5809078192980183 0.6399309993755677 1.4452993622599624 -0.6955340558601119 1.4255208940814545
Ni 3.5113560158944614 2.058567012748793 7.540213594793871 -0.5503960537364715 -0.2684617365856667 -0.41762762892177757
Ni 0.4129263999393198 0.8853561247562234 8.747009348009914 -0.3659109172737763 0.6745834217503737 -1.179989541039716
Ni 3.000146876847861 2.5617830980092418 1.0803089528919152 0.9027333460908712 0.1786235354755956 -0.5106259729273851
Ni 8.11557026631605 6.1860339789722705 6.541198865871949 1.1083215830807687 -0.46136775012220543 0.7926646768665381
Ni 2.329544639466184 6.597797923079927 6.25952701988517 -0.6916771440078668 -0.44271465379739233 -1.938520766557655
Ni 5.160321140067917 3.5845102411784873 0.9530228471891717 -0.6944426225681459 1.0735782660623125 -1.0427635946743008
Ni 9.24771052278753 7.268503115486953 4.622950193125474 0.1432549261683146 -0.1220142716219834 -0.6741337358074648
Ni 8.749595391055713 3.05888739858309 1.7606460558976862 1.8053509925394844 0.6207157251976406 0.7462796618440953
Ni 8.952594622399785 8.627743438781822 1.762618112610499 -0.25358301970162134 0.5632078607891591 -0.5872049950347048
Ni 3.292333238787054 3.1082309343683234 5.152374884020561 0.24788648353747633 -0.1966359128926162 -0.06833837936508232
Ni 2.0649783029636803 0.9063383589222584 4.651347061026156 1.0516233590577762 -1.7425561687004507 -0.8199561655926394
Ni 8.453992794184503 8.020084160079147 7.8468024288245495 0.654409260795344 1.2945118751600286 1.3460010441782562
Ni 7.482162871728477 7.136215267461822 2.7449756543858013 0.6145332505360126 -1.215493647483597 0.09811766751004393
Ni 5.303615816257584 7.875993922329968 2.8002353603094727 -1.616162537063849 0.06306273278843978 -0.4288013861504099
Ni 5.891292460494881 6.976138922140341 6.185431224096594 -4.128606236835322 -3.023863115134431 -1.4135146136491978
Ni 3.0991896112331685 5.796293050741444 0.8661419091618558 1.5811723941419091 -0.23461059236417658 -1.145210485687318
Ni 6.653328119933834 7.245675178502851 12.578314016406194 0.549883375766111 -0.12202969824095113 -0.5963429527802311
Ni 4.090281482977132 4.65402576359477 6.753691486507931 0.1677876212023562 -0.06792263198390237 1.776327865834257
Ni 9.08430217846386 0.3754086527475312 10.902833293431605 -1.0328561057526018 0.3133310862945313 0.10924951575714734
Ni 7.165810157475652 1.650050831713495 0.9139982128081908 -0.46419313538614243 -0.330865752744185 0.9136919019849038
P 4.334322331244238 5.1694560586806615 12.182436968664595 2.4916691862282834 -0.016592614251358523 1.7833780878128191
P 8.25659057240029 2.103530280182834 5.116115060047576 -0.23460236483406047 -0.4008540090078645 -2.350250541937759
P 0.9559935676478655 4.502644438141362 5.65380048779472 0.09943355810799004 1.437860132373098 -1.881339946471289
P 7.466139325965139 0.584247305938415 9.048296934189919 2.5384491226962993 -0.0113979574242965 -0.04610270789533351
P 5.156979781517968 5.280376059172088 8.905749149911417 -2.4059223815787663 -0.3430160149534737 -1.419001347795382
P 1.8633174869491425 0.5172469833059046 6.743555096284977 0.34722799615229233 -0.40862645386443175 1.1568560403460464
P 1.7874021950762233 2.6387934569699594 9.25392713440903 -1.5415141563203387 -0.6639513959578243 -0.11244976786199988
P 1.8041838642080372 4.0426788230750645 2.0619888634094687 -1.8895044845599522 1.6951290855667387 -2.104918706501336
