# total energy = -381169.17314110097 ev
CRYSTAL
PRIMVEC
9.21401020491830 0.00000000000000 0.00000000000000

0.00000000000000 9.21401020491830 0.00000000000000

0.00000000000000 0.00000000000000 13.48563530132057

PRIMCOORD
 96 1
Ni 9.194108005875695 1.8626029616769881 7.719474767550552 -0.27904799674194525 -0.023354101344908167 0.17341062381608843
Ni 0.5454583510565162 8.159798497245482 7.734227319390734 0.13911596429927653 1.0954228727412296 -0.6850226148058267
Ni 8.26449729592139 8.599094864795527 12.855654332287681 0.2685581529542149 0.43031525169177504 0.6630098579801614
Ni 0.5246697010897312 3.9502396961306765 2.8992362436968033 -1.7693390932212496 0.7546288051397391 1.7390491839884565
Ni 6.317816490548402 4.716145085652454 12.148345441065596 -1.6804280319111384 0.783249039979593 -0.3346589012380301
Ni 8.003869801479194 4.964186242068487 5.468802571210824 0.4172203661810298 0.41017888595321617 -0.053202037944276116
Ni 7.736571363602927 0.36718199478608676 1.582053855634232 0.3208551625857184 0.8075156258364417 0.4757242759541936
Ni 1.0200922907866032 0.2955587287694172 0.6971826939374923 -1.9635206310361024 0.2588473534243542 1.4617353963287987
Ni 6.929599130316429 2.7717769968567487 2.1606282809951636 -0.5892839890509206 0.09935411102030631 0.15246230369919547
Ni 8.81501598141712 7.520300114591148 10.830461866821626 0.15207895221784776 -0.20908030930355606 1.1925992593839267
Ni 1.6207996902124289 4.194733458593507 9.526387329766392 -0.1611166369400838 0.30200537686906703 0.18160215848794534
Ni 1.6364911496989258 8.860560834172116 12.174939838902283 1.1262069480016217 -1.4910927664449936 -2.0733175346562875
Ni 7.323903485727562 7.301577938848065 8.945332492841299 1.1593780354369518 -0.06563537861162244 -1.0920380154293967
Ni 1.6718821631385241 6.229509416139366 2.6094565421675098 -0.3764699237365452 0.4540439627672826 0.536934786025243
Ni 7.867124675090994 3.1962848779265647 11.53937491723138 -1.0123875534856048 -0.4629086122467641 -0.4330843297964799
Ni 3.536668845249041 0.29228867652528456 4.358368752547998 0.5528260033342028 0.6043614522093333 -0.5587894200064892
Ni 6.316987229624277 5.929879016232495 4.062911377891529 -0.37533452458052136 -0.06149847362511345 -0.22448224568092304
Ni 6.619943887237915 2.195136592251082 6.595379335863281 0.7444973731326919 -0.6139318695065878 0.6541506078173185
Ni 6.216029319117202 1.0896949243514882 4.272801924792681 0.3284746268041891 1.1433063266860697 1.0070491719918269
Ni 7.248247247416565 3.119393962239648 4.462976332522249 0.1477057628508166 -0.09458368621485647 -0.6849585943371107
Ni 2.6650142598807993 3.926283269433734 2.102248311936769 1.133375697835919 -0.07082180790856835 0.10110117561840008
Ni 0.020129848232619086 2.713489167901035 9.847669732402164 0.04537919946574766 -0.053708288156733314 -1.3808142952026994
Ni 3.1832746954280715 0.22908148748745621 0.4451739847000357 3.059631273872976 -0.19586895281960462 -2.4987674878359614
Ni 1.1017652778026399 6.7237489269178194 9.417477728397984 0.8123775819144332 -0.301213734205707 -2.289393558551386
P 2.172783403340781 3.2550149793751455 4.265169038686625 -0.06250300363022784 0.43959564855243644 -0.8560981627308353
Ni 4.117685904732034 3.3137358668134578 12.32378019656936 -0.03876297970081066 0.07575806886792115 -1.1149750838415444
P 1.7065544837772137 8.688885394857719 2.726081034333358 -0.3742898853660909 -0.24915532294757095 -0.12801136974568275
Ni 2.590841477222959 1.5010820547995942 2.171484227892986 -0.43834095020972896 0.5169298036582258 1.659370697020207
P 4.552854395681989 3.861858909639495 7.599681577253519 1.1687401933781418 -0.4175139861620487 1.8921038698560126
P 7.844154147492734 0.1378277725946961 7.850366233215456 -0.6074904847566183 0.021037537396589576 -0.097423983877129
P 7.876264973276904 1.6632854915584292 13.07536148572842 0.22139692188738003 -0.7769423810352748 0.8638734358008799
Ni 8.813228463425117 0.7898820870413102 5.662915046928959 -2.099096186282288 -0.19452683696941336 0.6171503764438855
Ni 7.178248411410153 6.600419399479907 0.11539810739917059 1.0270495263731538 -0.05522755301473715 -1.7830836965008516
Ni 8.587687920083676 5.194121868307792 9.713366318734996 -0.5314364819148332 -0.369879415003221 1.2316304051444595
Ni 7.709565099507259 0.47091792938898047 10.905617784375067 -0.34877168649032836 0.8116162782683765 -0.4828459746006394
Ni 3.4942659699954537 0.5561217251397359 10.029253918358824 -0.23055827667167386 1.2745290042801984 0.5266904825894155
Ni 7.590879433244447 4.32218164862124 7.785459980684198 7.379066072890518e-05 0.045393597643450856 -0.4485276609347437
Ni 7.124539945557663 7.509805356895834 2.147762758457879 -0.6645360648167007 -1.0616956556921133 0.7541896607197915
Ni 7.080589116579041 2.4539304986499344 9.260194573122291 -0.5952708027619747 -0.9644981860034938 -0.8882071274502381
Ni 4.698288333752965 6.6469685793541196 5.912425837982745 0.24259001102522734 0.45568226970165393 -0.2764313850547046
Ni 5.796266653335434 8.906179399009254 0.5049167058770755 -0.6750346503551794 -1.2645891194586671 -2.1004231326238276
Ni 2.306635330504812 1.1483789557487285 7.787091781902671 0.9161475626142479 0.0684569072208176 0.04645829146253934
Ni 1.217207612451097 0.2418889617600522 9.661500654936118 -1.3901880231081154 -0.43381349465302066 0.740616550021047
Ni 1.0208294116080474 3.9795402487830898 11.888679889295387 0.3380033922302308 0.2580415696936072 -0.3116346724287149
Ni 4.387932825894078 1.680939535232022 5.8640937471216645 0.1564032906248145 0.861977761440064 1.4494087564426457
Ni 2.9684592600386446 5.103345439146917 13.141427782152423 -0.4080834368767682 -0.8215600197446495 -0.14483564039187313
Ni 5.842732907117234 4.47275700442179 5.9291483452182385 -1.661522710366203 -0.7156657936129804 0.4199025409988833
Ni 0.015076885001617895 7.409400287004841 1.2453038939614764 0.7863112238446844 -0.31666477865345466 -0.14068433722766094
Ni 4.7270268317790265 6.709006510488932 13.263540138833926 0.21485629255538483 0.6329418349501874 0.00720165995476179
Ni 3.3144084895630255 4.058872877191041 5.986610598853934 -1.130844189663317 0.6659296027301176 -1.1363656337021786
Ni 6.52210952621171 6.973596029346391 11.183758348133756 -0.7676481002175424 0.3847383343929245 -0.03533029987017787
Ni 5.991124542484254 4.538895170125886 9.729859397114815 -0.6065980548493359 0.23429974599197714 0.28566730183067574
Ni 5.720039146387817 8.169473208026941 3.726040712684262 -2.090482476471348 -0.5752434517974545 0.30829712341504967
Ni 0.9082987042042955 4.805474915201245 7.311682022508014 -0.8608927559060013 -0.4562258009099498 1.0082285370119088
Ni 0.11760117725426246 3.203619230099936 5.7379087979016825 0.5105120730573401 -0.6692018457234862 -0.13482762133656778
Ni 4.489268510822144 2.94209797666174 3.7866716644511427 -0.2938220697273262 -0.4191906025335232 -0.33794194286467605
P 7.863927413527979 8.867756976191465 3.9259921067092636 1.1994054836724828 0.010719186189717022 -1.2137746079099612
Ni 6.821749140128849 8.389070714745488 5.716911911302839 -0.17809234556247394 0.3162703714285134 2.087513366540695
P 4.154440591691304 2.759734285436401 1.144223437117836 -0.07710352715222205 -0.7512066668320675 0.07051481819111081
Ni 3.8431728968158807 8.294746891631412 2.3310865495531483 -0.3452276778928119 -1.758712723855655 -0.9435642640643039
P 6.812571985901867 6.3974163252541265 6.7345643321704625 -0.8415608883466087 -0.5803483771241876 0.6519556570485288
P 4.269035237395101 5.453053984860664 11.384910327696684 0.5896125760349329 -0.32569115052178105 -0.2405542115421212
P 4.471162980645416 8.99637534552324 11.790706396714135 0.8566717758461181 0.8633103642085583 1.9933302581983672
Ni 5.26408384827313 1.9022232058296233 10.739501157455392 1.7518548203935573 -0.6308900946274811 1.6162000751700036
Ni 0.9609844149170322 4.630648284375175 0.7363790936177971 -1.0883921911466934 1.137352680205796 -0.9018064634012275
Ni 0.4790336296330831 1.475568460367351 11.733284684723618 -1.9298404651748375 -0.2858326237639464 2.487426094681213
Ni 3.768309063387936 3.0826669173111823 9.519752320972364 -1.013665134646448 1.3461290851156882 0.4275448880354895
Ni 2.276579229010417 7.203568511626767 0.23719626633053195 -0.6844400028294793 0.6829883579846173 1.0067563233417565
Ni 3.1667171189763774 8.10387866892866 8.550944289936727 -1.3358166474460864 -0.7529334197151871 -2.0787890992938203
Ni 1.0114219071243638 5.345093426549868 4.986880349358706 2.0762779028361917 -0.4273003761248512 -0.5581399593479485
Ni 0.416450229090402 1.6509940018608442 3.6358217311446044 0.15685966143594277 -0.9341882221660428 0.3325259140554273
Ni 6.00289083359656 4.885747372656537 1.0671804902614965 -2.1428391356961933 -0.045007160838309586 1.888861965879947
Ni 2.0073458489778595 6.60315596052952 11.366664744563883 0.12655098315007235 -1.0004715187743092 1.415970017168226
Ni 2.3096022418111253 6.445559528904712 6.628877791593821 0.19041512879388495 1.020351545527688 -0.07434370501889777
Ni 8.725787505981279 6.981280513909948 6.025827269356829 1.2158772560752609 1.0072119228219363 0.17010289959909414
Ni 5.776327535115364 2.1741378628501855 13.44035054607071 1.5188591379249843 -0.10307192619152572 -0.47949942672590967
Ni 2.1109573944421345 2.454400413173605 13.366246868489878 0.2908059086088218 -0.028318130218402845 0.5914671127451685
Ni 8.855668194719778 6.582212515190231 3.593759774270935 -1.3907117568220693 0.48141361302948704 0.2067938272622245
Ni 4.022864525063484 7.457773840912128 10.44587921364432 1.283249671982648 -1.7098293678913905 0.8277640916728324
Ni 5.112531807384168 8.847670433807107 7.377168757686159 -0.3774070908388339 -1.715128154396485 -1.967214534947922
Ni 3.990919551464138 5.3090205763504335 3.604737346104295 0.5183464815000943 0.40595327790764274 0.9593590650047155
Ni 4.892261677916052 1.5437244943201514 8.292263715864172 -0.07857779770490338 2.4296387513590996 -0.4718974460089357
Ni 5.229457597685782 6.384839201238232 8.292276615478547 0.4563759533345689 0.28461932018213565 0.06603801336667983
Ni 5.9477081261011815 9.165968418517055 9.491554685349037 0.31080420610761955 -0.9649226751354221 0.6745116879721739
Ni 3.1137181319145264 5.620822683821404 8.680798258045447 0.6065990832906005 -0.5588182163618957 0.03792762828370887
Ni 9.096540851147264 2.199209184789562 1.5548531759219077 0.7945343830854252 1.0117473487984445 -2.6444091690688976
Ni 1.8466903659440577 1.5886888644282582 5.535610595461407 0.6183191999410061 -0.11545950122260115 0.7225869462128459
Ni 1.2024375539914056 8.560184099433531 4.930388331004235 -1.188586795790424 -0.5839265813937492 -0.7055559588724881
P 7.613757820740026 4.89018852560574 2.7189337265684284 0.1035231547963314 -0.6403149874858068 -0.5211171022666962
Ni 7.905768234155215 4.075375169581126 0.2461439917018399 1.0953264563726814 -0.7728409572723915 0.7719613828809156
P 2.7373810965261005 8.577073380254875 6.478566877887964 0.9674271867248306 0.8566458077041893 -0.49369937237537553
Ni 5.257569543013616 0.9696087285279316 2.260988202235842 -1.0985213091608952 1.090239014547445 -0.5088688810269624
P 3.46103103495858 5.959382277110806 1.6589217362954782 2.546626259190453 0.543800917017457 -1.5715788369162031
P 1.9704253098337643 2.162297859655735 10.60277077348362 2.637591631926432 1.1801926581894577 -0.9151162931362563
P 8.84021629950025 5.5358234390986 12.339113231056428 -0.5260644189696424 1.0689896182503655 -0.20728953595172042
Ni 3.0130366417154932 7.323783703594077 4.391057296775975 0.4782696680838666 -1.53722581335763 0.06666433409676906
