# total energy = -340885.1070356364 ev
CRYSTAL
PRIMVEC
9.17229973477302 0.00000000000000 0.00000000000000

0.00000000000000 9.17229973477302 0.00000000000000

0.00000000000000 0.00000000000000 13.42458781211017

PRIMCOORD
 96 1
Ni 6.695595161371389 2.346035722628847 11.425787600423675 0.2005686722881191 -0.4558182810588859 -0.1773194719521914
Ni 5.271448913083093 0.6624940938614542 5.960207886454379 -1.1480191587807067 -1.3449957428421933 -0.3050624185278359
Ni 3.0103119942757943 1.9390424508948663 4.715117764886261 -0.5071755524849394 -1.723697898343367 0.5409361938751522
Ni 4.044277795744208 4.662564157887997 4.933347865379283 -1.001820576603036 0.9021620469684333 -0.9768137701460531
Ni 3.748049212315004 3.0284089411145922 2.794247473685783 0.9505427522646662 0.849439262653421 -0.7445786199925886
Ni 5.314320240769126 4.740657115508638 2.6203718617018206 0.33678006134609095 0.6533383963286684 -0.40984130010813935
Ni 5.763451056232167 3.058136363671381 0.19496364567736355 -0.8457774975311178 -0.5386648813424723 -0.03734270231451633
Ni 5.327354078304824 8.264801325653396 12.455413069786605 2.006362665902293 -1.2867525429295839 0.794273930335187
Ni 1.9773276288498296 6.760791865948265 0.18230862410945195 -0.6913123044692804 0.1855475162889385 0.36924460963269956
Ni 0.5980403455410115 0.41751389921705284 13.482447364551481 0.7687935266758953 -0.9747957112747598 -0.8401850910450046
Ni 8.665218058673023 8.772799959064438 6.7318129030275875 0.5231714136925635 0.7074156377890461 1.3194613460165145
Ni 8.908779298590632 2.136833916496407 1.2469585189685553 -0.2848525192388643 1.9220639065532124 0.6265783546260048
Ni 7.353203171309363 0.9103745695957833 4.8715550011328075 -0.05851933639213147 0.02915888095214333 -0.6093982433022924
Ni 0.5907153471905482 7.971654634843469 2.3297163674258115 1.4585256311422494 -0.8700281425483661 -0.4384144837601417
Ni 8.254812691539128 4.1923278813625755 3.7574214679054165 -0.9169590027719499 -0.7544082044885007 -1.0199478823313661
Ni 8.039456272467593 4.1070713578620035 12.722884659942114 -0.5158013464807375 0.6226234837433148 -0.8734361397886508
Ni 8.427435367416562 7.292023933896902 9.087479540091678 -0.9341869366144621 0.6534993473865649 1.2521994875450628
Ni 7.149431366458508 0.853121076353119 0.09483974197861296 -1.3316350052645713 -0.0026806321559566734 0.908361490910926
Ni 2.3989507182259207 6.368685236241334 9.198701926139616 -0.5601006826187451 0.4243171251268112 -0.4856171095878734
Ni 0.054793482526919096 5.092066252502064 1.2799971416311757 0.481041574402049 -0.34603320451324276 -0.11466940122113799
Ni 6.900907912531883 2.091467723356673 6.968609572091868 0.4318131763935403 1.3854389384589043 -0.17677208408915362
Ni 3.4844281534737003 4.161664884260649 13.665961228810257 0.4931576409392926 1.207611673632359 -0.026293129368574072
Ni 6.374693092389035 6.012167128447498 4.441645656422621 0.11319024557245022 -0.25120423505679956 0.9238726991726477
Ni 5.946355879806658 3.0939450207715673 9.209683003055687 -0.28824920362523904 0.19631015412208125 -0.29965718835186456
P 0.14405830089244467 6.076547498372244 12.266515065743553 -0.13951988460591458 -1.3936155607324257 1.875737512682847
P 3.9855017007908287 6.20983935415603 12.558284994404213 1.7158287800079353 0.9021831300143559 1.5294878212834242
P 2.3674071803756283 8.977920091936227 1.184698784679456 0.46822205403987743 -0.9843789840878209 0.1987159353500965
P 6.838967374264066 8.087867669028755 5.846420925476829 -1.5778641557042825 1.2282329494271362 -1.1425463085915935
P 4.55553259546431 1.0472014295922785 12.567816848005265 0.19774328702418204 1.8355915365915807 0.2541319502265559
P 4.47701771206841 6.420967343175519 7.972540678971512 -1.1685926120566843 0.2046032473688089 0.6335846107405089
P 5.057862747807752 1.4189180375948771 3.801909871986624 -0.4646111967601676 -1.1536254492238907 0.004849100562185197
P 0.37176246949990926 5.931992058848951 3.444977176257099 0.2660986356701288 -0.3609769703072686 -0.6332087154583288
Ni 0.5193557746050619 0.058715557776929245 4.565984430701416 1.760607883995839 1.3408166717638395 -0.08988113853286457
Ni 1.5288113574507507 7.018854511315514 4.927924284707322 1.7973857149458208 -0.4550600627366227 0.13156463431457988
Ni 6.150329475245681 5.756480108640943 9.149541152712397 1.1830594382142916 1.0662202830353442 0.15530980045031964
Ni 8.882564866727842 2.559814506192894 10.008822345384287 0.3336687694106189 0.29566837890744563 0.20099033320656998
Ni 2.6711478770643233 5.81185328049387 6.772476458233083 -0.07600258077855944 -0.8198144978084526 0.05945778904600083
Ni 0.6421765333228725 0.13273051105670444 9.1461850083392 0.18783425544058618 0.5387294160318206 0.5024308387111024
Ni 1.9016011244904196 1.5216111023729726 11.357133856179518 0.14153717214625947 -0.7733469503745326 -1.323468410293379
Ni 4.304349174693665 7.296160640954328 1.6710654670389928 -0.20025782591591965 0.45282037477282666 -0.8006188987166082
Ni 6.2221944415315305 8.377492196845221 8.034816923399642 0.1756096883499363 -2.260054957488269 -0.8945816635180142
Ni 5.921498948264265 3.228135761902644 4.558398939046228 -1.081425787131189 -0.481709547003351 0.3959360028809568
Ni 1.879881119364077 8.069724860692649 7.502209927761631 -1.3214974026099369 -0.8405429886050556 -0.7159429585337669
Ni 5.2556450411098306 4.586498278448487 6.984745481305662 1.2176302342106256 1.0676680712254645 0.8148599820166548
Ni 0.9356570958332202 7.491998406770432 10.978560037099026 -0.13517266338081235 1.1513482231539398 -0.2881268191147619
Ni 4.921965958976717 0.3774236127279408 10.324984170004608 -0.5233899574612728 0.8119890882267629 0.4013332626371282
Ni 8.450843075643938 7.327007084045497 4.765097624655451 -0.8346963000162915 -0.769532718834765 -1.0974792410496261
Ni 7.5138284794903205 6.452254056640872 6.992693278789604 0.07851737678061316 -1.701215658080451 -0.3305770178591726
Ni 2.314354600286623 5.718194930685979 2.2922612825721713 0.35654027469215366 -0.35968756207188374 1.066151891691254
Ni 2.375102739624362 5.420893188219705 11.623867076228326 -1.1641026946061306 -1.0664321419358342 -1.804888451080769
Ni 1.5983190427748313 3.912242544986734 4.121791064038843 0.025310453740330602 0.14054961142200956 -0.9703983535380126
Ni 1.8989686745447858 1.6260193871504875 2.5465504439406965 0.42758988234081197 -1.3240083419572488 -0.3080531257250437
Ni 1.3261769177332012 3.7092136963923124 8.154765835155859 0.4082143060276776 -0.41245379803032195 -0.5571266875920856
Ni 4.21380023440344 2.6511430919374006 6.537317961852739 0.39548040340077695 -0.29633892261190903 0.47540468783124584
Ni 4.809220053988119 7.326952050248724 5.997998677468334 -1.121134418574721 -0.20625106738487706 -0.23450620557582838
Ni 8.304838412805626 7.7867685945851575 0.06932699102467653 -0.2440678811223345 -1.216709007947937 -0.02841274681473816
P 0.5085306267798468 6.25153662751091 7.746457255679007 0.7554728983075892 -1.1431592595852442 -0.3505202937503189
P 8.872915607693672 1.670413316547235 7.7592370205196035 0.6074395769140248 0.5583132517010192 0.8288809788860949
P 2.248286527260844 3.509266740417169 10.216352958554726 -0.34561025804321127 -0.12315327032243305 0.252118776451269
P 4.305633296618364 6.615860362147025 3.766952404276524 -0.9180625202487738 -1.5342623598539318 -0.33607969284495665
P 7.4107960396321255 4.398842203752609 10.332206438601096 0.35990867694375434 -0.6888059931076589 0.1306133261449041
P 6.320209633583936 7.916565804273869 10.261123869459366 1.781145084717242 -0.4809161045677783 0.2574180771769954
P 2.6355593551512286 8.8389689273843 5.579285041481633 0.07509549558325776 0.9103875202020192 0.5722658572263692
P 7.114998554277642 4.268384588502622 1.309608993214742 0.5240098504334589 0.09928314857305481 1.4714755064346978
Ni 2.732088634690767 1.8365786936033242 0.24559840762814936 0.47536792105603937 -0.6734675629783756 -0.3462874866158939
Ni 1.7346377573811242 1.207450673495289 7.019515834106734 -0.11404359471168099 0.8805748077159609 -0.8610904737391042
Ni 7.360018189809731 0.730788283966694 9.215213899631356 0.6597535558263927 1.199709902286779 0.5151554853666224
Ni 3.2680169199640194 2.12934014783584 8.592662418237675 0.5621506231692384 -0.09624153353325361 1.8675534342101578
Ni 6.66372142074046 2.32575576851806 2.6153913030938796 0.9812455806651617 0.07706521771511889 -1.7603389466051682
Ni 4.28909564068813 7.0078385796614855 10.435736934320085 0.2880180614510395 0.4838813578436893 0.483195130409942
Ni 7.0704853849878875 6.340159384914085 11.673430513601936 1.1456935959713237 0.6345256344975395 -0.6919854192769049
Ni 8.16550201167629 4.253653875566429 8.092073168332146 -1.037631415654058 -0.06052891062299253 -0.24327443868676168
Ni 2.986519049471009 8.488963152208582 12.351909173736056 -0.4942884121096261 0.6705609308545419 -0.10534195317262503
Ni 0.431625481939552 5.141440740506752 10.0014790024349 -0.5283619567545675 -0.25584173382881104 0.6242527918166216
Ni -0.09127997255735727 2.5241801227824885 5.590387192750605 0.11206435949812311 -0.4236998032577864 0.12861455054732043
Ni 4.243720275248934 2.818335766533249 11.28003609305052 -1.777895724542009 -1.5570469618486151 0.129693385433796
Ni 1.2163753208719492 3.389751678425513 12.521582955336413 -0.2976460714591067 0.9364914163779227 0.5601341069598417
Ni 3.9637541787661 8.74234792485014 8.177480117543896 -1.3857883513785232 -0.26349307972648167 0.41663466888088885
Ni 5.594001995968633 8.308443126494247 3.6823507829575495 0.7494025237437931 1.3078013931800834 -0.17287814835138612
Ni 2.8791664565661477 8.627547424782023 3.3643893531827556 0.7883544795269584 -0.49229632138026186 0.19944330043442426
Ni 4.102833755510496 4.663784073716461 9.59581479689298 -1.3700912523582405 -0.7765014368431143 -0.411154362492608
Ni 5.51307479781419 4.57895864829061 11.557992538721198 0.48557134395160245 1.1188988443759829 0.47955136300976764
Ni 7.950916065759576 0.09862239827679861 2.7321051448297986 -0.8623405440961214 0.16042141064527213 -0.9938874377988884
Ni 4.728421268026147 0.9650359710104477 1.578516965466022 0.31932664175633396 -0.832398248010734 -0.19672204484851927
Ni 5.800727281246297 5.82622627375104 0.42126720415695973 0.15106259513819145 0.5277376929070072 -0.5475570416257796
Ni 7.921427122988803 9.129290549959887 11.430002272026526 0.4153462890867685 -0.6888250192710524 -0.5060108427528769
Ni 0.1769428289241013 4.869940676427471 5.809476737703229 0.31660667172200957 1.6496393286650557 1.3231210542562892
Ni 7.6566411821158065 6.678296204585798 2.332991795563741 -0.8215458786772625 -0.5791954944666671 0.01460592283863291
P 9.24861299366284 1.830369046867457 3.4164228908015177 -2.6467833257280287 1.0366533680115049 1.5413568048068682
P 1.9090031701563648 3.554238524680031 1.628576624240532 -0.21398366014244435 1.1051902365406385 -1.1117797168326982
P 5.419388931107915 1.2006081380965343 8.278553354236978 -1.4452816216481494 1.3007861382045145 -0.7339255111541167
P 8.66494288968916 1.9415648332469542 12.301097386405651 0.7853899975819958 -0.06837848857439838 -0.5934879998299392
P 6.47893627577623 8.278523085648754 1.3040707587995028 -0.7170739868144167 -0.41394709474639674 0.07963117867008221
P 2.3376338963215284 3.6412194404794844 6.1761696772904155 -0.38219808446957404 -0.1342465520221172 -0.17275833494407022
P 7.0870138686186595 4.309027047419355 5.7652158066486825 2.433556855466583 1.2021035993299363 2.268717518259274
P 2.523914126098086 8.770873776177389 10.129025329835603 0.8225627499775512 0.07586708364195967 -0.6890605323206263
