# total energy = -381174.6243670179 ev
CRYSTAL
PRIMVEC
9.17173838805212 0.00000000000000 0.00000000000000

0.00000000000000 9.17173838805212 0.00000000000000

0.00000000000000 0.00000000000000 13.42376622444638

PRIMCOORD
 96 1
Ni 5.244280861310076 1.8197187838971953 1.6334169277454345 -0.18045133271295374 0.297504660785236 0.5318406593317873
Ni 5.270126820499725 6.098188062330195 0.2071730643604074 0.3372803980212772 -0.2696004781758002 0.9696542762831366
Ni 5.842709285457352 8.015925215943422 9.377454209404302 0.7450920692938975 0.5734246534211609 -0.04987862999799797
Ni 6.415997974282121 1.257472868267721 -0.29849606494640263 2.2547988512956527 -1.668998192807642 1.5395758016470453
Ni 0.1695157402862908 1.0637565786848342 13.350767823541148 0.06367748355430322 -0.4339371647150784 0.7704891692107634
Ni 2.0108394714748763 0.4554639497439217 11.395596219100186 0.5968728571417721 0.4755363283131036 0.008193077333753632
Ni 0.4824380327732891 8.945948675059672 9.637230862954317 0.812257254286485 -0.2868736634339511 -1.4430301066098115
Ni 6.443164663820707 3.9957412663747602 1.519731394265116 0.9490098605599077 0.3689139657661582 -0.4013456039323023
Ni 0.3634723294187762 0.12406518997958202 4.8015601250857065 -1.0729244345283975 1.4177883013238874 0.22960388317820457
Ni 1.5908563922508825 8.105744051409792 13.214422592837995 0.1529374435634011 0.8817785982160751 0.07069839495682663
Ni 8.212989190091328 9.25153265954538 11.530021804928111 0.04395635097629204 -0.3829172220237857 0.5697821715725672
Ni 2.88040283017304 6.423995730284028 3.207944873883708 0.29219070477149034 -1.406657224407732 1.433827614174937
Ni 7.924895710990525 7.301410097167549 5.373775720501961 1.0683242167522249 -0.09224321100713792 0.5440901661231017
Ni 1.4807038124539755 4.086330527878012 2.293571152228529 0.2391110513376914 0.2913741224074659 1.2997558971677874
Ni 3.591918790448198 0.9941889419021913 6.793513152570759 -0.03403574942847042 -0.741892074299361 -1.5038341252710619
Ni 6.1849251936490415 8.512079583694753 1.944231554717251 -0.5916535177243617 -0.9774560317157426 -0.20465158410824108
Ni 1.7442812344526024 2.5178990363434854 7.459882147084693 2.2754250121864357 1.9038656383776307 -0.8825656128937445
Ni 7.234162910234084 5.569804205369345 12.608822786330752 -1.342815704471739 -1.6748546515884188 -0.8191750644522409
Ni 7.509535187987816 6.368736005614887 1.3897091601075082 -0.4868882629908131 -0.6238486143996675 -0.15470687675899808
Ni 1.4055689303810146 0.1835145648111883 7.198414224948954 -0.8103250702607786 -0.9506977897852917 -0.8465652835397356
Ni 6.52455467157406 4.3525127236203796 10.396103260803612 1.5246526046783098 -1.620993639903905 1.1347124143694716
Ni 9.293355787261774 6.259739064873302 12.778526547256996 0.42889625985706137 1.8156153505799701 0.037434233587058115
Ni 0.39610262360224463 6.1136424417604855 3.530222339675689 -0.7370990237860918 0.5688576028757686 -1.2502932716612853
Ni 5.460889810274569 1.4481808276113586 8.37350378618006 1.4785930913160859 -0.9528971114294555 0.47132434711428506
P 2.42749320961092 0.8957716015599175 0.5961510814692101 -0.6451908275208695 -0.5291582274036177 -0.09322254420127171
Ni 8.79143239597237 3.2483271214763643 0.973887298656525 -0.27360291446697393 -0.7637441371774459 -1.8771145955360318
P 1.0364431413296977 7.469133679744238 11.092568398143987 0.7700523387836609 -0.4048507888720834 0.5031569182438496
Ni 0.5649048026305671 4.082478397693607 8.866988260844057 -0.13135148986250927 -0.5776032102788826 0.26307090458739857
P 4.363821477233167 1.6641202396628467 10.415634478012397 -1.8553916020366432 -0.5449172900100873 -0.6428727209106542
P 5.8622359167968705 6.5505840655343945 11.197810429129634 0.2901212238369713 1.3224055162465034 1.2219049503265793
P 0.16984592287352548 1.5631944288314428 8.163461802006124 -2.5088171587624797 -0.23138360078644665 2.1985958217415233
Ni 4.659665075395451 1.17424851280751 3.952977118284747 0.44037443569998996 1.3543113638161643 1.7717189063073358
Ni 2.4258331249362124 7.3407385120026145 7.685831594572513 1.0797820808801792 0.8569677098199822 -0.45621243117351107
Ni 9.0959524587881 3.4585433686824514 6.206343954648186 -0.632249179758537 0.8447878799243387 1.3882334704849058
Ni 8.505173264578428 2.266996956999257 4.292691893378135 -1.1507219024238502 0.9782762136241926 -1.5981583871769445
Ni 7.088873400112285 5.494641808080781 3.5408001057272935 0.6551777635302523 1.8378121983919835 0.44567373642571634
Ni 3.3237279839668195 2.8486594431058383 0.30133104932735383 -0.21987122927147293 0.0995438584336092 -0.8751947743509702
Ni 7.577534457481095 1.095160611426267 2.0460635333158437 -0.46244735633962936 1.4811762786622298 -0.055976001144987464
Ni 7.98693335043651 7.832141919193179 7.92341814391265 0.7344055361143287 -0.26945058286149726 -0.69447090470292
Ni 1.0209337314682014 2.8579228990254784 12.241884456919864 0.3113587930595089 0.6960732161930334 0.3408529458638839
Ni 1.3301588961520245 7.479020813884211 5.566272168859787 -0.46431037769029715 -2.210238548186774 -0.0633632947479941
Ni 3.558955562155935 6.804751283796833 12.068999937069927 0.3542144547724545 1.1237667139912453 -0.7244749072641781
Ni 8.054565750388416 6.961762275765462 10.337749908726854 -0.3587876759654337 2.388171999573881 2.5393135275791234
Ni 3.636695217972636 7.762372504162782 5.418865821484273 0.8616962256439031 -0.6872023960659648 0.509178184737265
Ni 3.8446001870680804 5.480746624201322 6.767900155539881 1.4622444747547332 0.451133731099023 -1.1342665850813045
Ni 5.0362016291824805 8.895944356570684 11.45221794694167 -0.5790764523902995 -0.28150494292287 -1.0484051092307944
Ni 3.9821120629127953 8.584903187657071 2.8831561860810364 -1.039732264047145 -0.8119464079142855 -1.291835099658814
Ni 5.061570657968345 5.307409937641642 4.6634970277550805 -2.3086009847177724 -0.4583541601068622 -0.4416533024124136
Ni 8.160783654354109 7.958244152301229 3.2109917254248015 -0.047805035298420895 0.0201258242155976 0.8284135523313733
Ni 7.4972909170445305 2.831755928987129 8.417869319818161 0.9066447653301354 -0.20901628883484002 0.5240473885396136
Ni 7.817072752781328 5.581076272027997 8.764538107068251 -1.1308467607664783 -1.9902657603404303 -1.9593073642857033
Ni 2.9812552670961696 2.1771964650099553 2.4944579069975292 -0.3705072783952071 -0.981811737581277 0.4136743007009843
Ni 3.4277446706842816 7.555329678489562 9.83637223588024 -0.4448723235703435 -0.08006209555991373 -0.009464744957325636
Ni 6.995844456158911 0.3644105982708348 4.403599307256414 -0.48463571951121054 0.502637812515586 0.1769590032889791
Ni 6.712630341958354 8.001672334261125 12.94928964398395 0.4164315517311473 -0.6745793079853156 -0.18973121535298293
Ni 5.595356668925897 8.968217656220945 6.641864876123131 1.8500545060944462 -0.7928994185851634 -0.7241008117542109
P 5.107089996314062 6.340798890039419 2.469596992526464 0.1550490905897652 0.8265836982114861 0.14562959704807824
Ni 1.539540515151491 2.4384626088979395 4.843335559761723 1.5401697264773024 -2.6264523274801608 0.13956924978661125
P 3.1134200193753894 3.7334020290782637 4.009397067878475 1.144810679145738 1.0379695157197673 -0.4214166636505645
Ni 0.9133767536765005 6.402488003421101 9.101515118209152 -0.22706311903422186 0.652198112076638 1.0931564453045561
P 3.7313934183392523 4.794287853601863 12.745973295677215 -0.6086145710587325 -0.8747463739596418 0.23721640541813988
P 5.945616191812165 1.7844901361869605 5.796381916946765 -0.11169077820878828 1.2427874502025436 -0.19024492176460783
P 1.0597943876380178 6.6112918028929055 1.4166236268364025 -0.08754349153862344 -0.1598683663552795 0.6817478007092969
Ni 8.654901896150825 8.292498991445148 1.1700707859051378 1.2081207520582935 0.8398709022386954 -2.3309844946192952
Ni 5.200540840240014 5.780717504704039 9.384769588059259 -1.5026817568341733 0.7099054940904354 -1.020083636578282
Ni 6.75044541993526 4.265436237975764 5.880925168408207 1.035552164527526 -0.7996058840710617 0.16001183391167928
Ni 9.036372845269307 2.083929055854689 10.351428639576904 -0.5360667815979928 0.1707328198736092 0.0547171890372219
Ni 3.2343310484730265 6.907593987981905 0.9496170441470683 -0.20379694941742968 0.0013243752383783644 0.8762525261915232
Ni 1.3611043419667428 4.655657025655963 4.845657843958606 1.0105052488612274 1.2211331051575613 0.3281362696281639
Ni 2.209315893357063 2.975302808787411 10.225003561272448 -0.3215429326813623 -1.7444137907344797 -0.9018730549731049
Ni 4.582686673877097 9.130750034787223 0.16568837379592866 -2.2486184335165533 -0.5980468228452152 1.632166368691273
Ni 7.44734162898675 0.4358556899314481 9.278802989729405 0.5666204860151338 0.9433125530648142 -0.6720133470303523
Ni 5.628961918915561 3.2588471055752026 12.738443298340558 -0.3609615436883009 2.1517120127057914 0.30758698472190255
Ni 5.6737658616556015 7.576736516228611 4.267710829132269 0.9748404484697663 -0.22432669393966528 -0.12474401184832064
Ni 3.0263618772078424 0.6059657588747613 8.979251257677705 -0.1893182961852804 0.15089547343270784 1.2175163343405808
Ni 3.896603944557544 2.899434187631706 8.402847846446688 -1.2239037259241632 1.9732563702666277 0.6243993446968149
Ni 5.836289068483344 4.2438092785118915 7.918868044425785 -1.1573311802102522 -0.5105987192338755 -0.2418287073791706
Ni 4.140572189569844 4.421502540875361 1.9658163241838658 -0.34880948170679926 -0.038568347191501325 0.5574830424902399
Ni 3.8534325712766084 3.096681596550298 6.031244459942214 1.050273787008417 1.2767182986220336 -1.348640538683632
Ni 3.0570138273894627 5.153315558526918 8.781129782076794 -0.6700587944071428 -0.8943268671947308 2.3101865840373375
Ni 6.339010401025232 3.4102541652993774 3.8043894509860157 -0.6823183285007861 -2.94542261433834 -0.20571344971385216
Ni 8.802667775676884 4.7733579462665965 11.061600022982935 0.5010771528966854 -1.715802040535058 -0.7157899778956704
Ni 1.5335330264115261 5.321396838906446 7.069612749190262 -1.0785636350920458 -0.6985820986578162 -0.9046051091922873
Ni 8.11092608368167 1.3154841144971494 6.428454112385548 -1.0778830640852533 -1.0575847188475336 0.31038588762327834
Ni 6.35930745840163 1.6326795199672768 10.947389866058453 1.3029296669100787 1.4844948015125015 -1.4413370351781047
Ni 0.59440478245228 1.091638663829097 2.522393188225291 0.7042488100252904 1.8388668649087425 -0.9956928664387432
Ni 1.5830512427581958 4.742705996084976 0.13526571707766552 1.3637038607746579 0.19977163030812048 -0.2788585064389585
Ni 1.553444870769485 8.392195789312957 3.042926037000783 0.6042907468723979 -1.707480150932924 -0.566318895614315
P 4.624078729882379 7.456944439232157 7.751957077883234 -1.536570182051502 -0.885198165420585 -0.19419490755129135
Ni 2.051635364475429 5.113170858962301 11.033396009816117 -0.23566371621903928 0.8670796014430036 0.5961120677163475
P 8.526378324069722 5.544361802675205 6.7283140148520015 -0.2888251307333671 0.6256892671528321 -0.6353987811311121
Ni 4.261593279529893 3.7879463581417276 10.807474077543901 -0.0653877813771906 0.5759826439563243 -0.37477608097389004
P 8.507447855734933 4.036399583297299 2.8421603491804355 -0.674086170398981 -0.014408205005530026 1.5372435539694427
P 7.810505787990773 2.9715148807727463 12.265845623840717 0.6506132840880214 0.29339758059539794 -0.38673428177703073
P 2.5660781788641476 0.3015796034416332 4.895768554614592 -0.30072651015664337 0.6388206623284676 -0.6237604255612355
Ni 6.289070284705984 6.460829432237764 6.70919827739882 -1.1054015812204963 -0.1960648708804946 0.46558744463050783
