# total energy = -340862.3227583441 ev
CRYSTAL
PRIMVEC
9.29426885408462 0.00000000000000 0.00000000000000
0.00000000000000 9.29426885408462 0.00000000000000
0.00000000000000 0.00000000000000 13.60310194704897
PRIMCOORD
 96 1
Ni 4.215899001365068 6.693128397467457 5.004064164646005 1.2930661438524376 0.3554614398056781 0.617471250118414
Ni 7.758985870709516 3.623091936790691 5.995907656231303 -0.3075013669866317 -0.2536364986473761 -0.30662102126420737
Ni 7.534547863194198 1.1723140302273363 6.837966567664398 -0.16687359402851903 2.5981794486773966 0.76096914553547
Ni 7.48209100902754 3.381468825917089 1.1254662673947637 0.037656634010509345 0.1604653765093301 -0.6992570132376538
Ni 0.9939105370081651 7.6744359057282825 11.140614558053194 -1.4141293644150614 0.20105743899907952 0.6243600068184474
Ni 4.823223714098256 9.034484875238455 12.468780467227914 -0.32616423350345763 -1.229923449755682 -0.7248050369100872
Ni 6.107171209137024 4.524784736902757 7.695791347581353 -0.4493385868718133 -1.0551794518401505 -0.2904202431346289
Ni 5.784557838304483 0.19272317344854223 1.6852470765481982 -0.9334181767692377 -0.6353501872813639 0.4098163604074749
Ni 0.8158592965836282 4.691468156928422 7.999521552111556 0.024716271799757432 -0.005436340524222896 0.028372894715738232
Ni 1.26865842255398 8.336280800343399 7.183730103691538 -0.372930543124719 0.6257733422262061 -0.010884251012671577
Ni 8.396284600928082 9.56370984566788 9.153378093556192 2.086917384827909 -3.8807380081302916 -0.774453296064834
Ni 9.055331920577897 8.572559706549066 4.744625798976752 -0.6958868112138403 1.28571278881116 2.1639520064154087
Ni 3.8364511756726545 -0.09666969174121384 5.424441162679615 1.4828976322287106 1.1010253065296713 0.6413593695899212
Ni 8.265886007030453 1.2491497519487682 0.8601148877955275 1.12091330370285 0.7643627445980513 0.41364447590431336
Ni 9.409610865851581 3.1562779826137652 10.40444153548953 -0.14493745607706007 -0.28849962907314824 0.8608973838916915
Ni 6.881123576281949 3.5374266595309307 10.423335854914654 -0.4803247508406825 3.368148740828947 1.1524049465532282
Ni 4.2028312591683425 5.352309270492865 11.070096150962712 0.918078975309006 -0.8094154139623158 -0.010427365980911074
Ni 1.5134229963454298 1.3479385370191808 4.882493267432908 1.2630798819029925 -1.004373939152509 -1.3461702227662686
Ni 3.4526164550180396 2.6962488447978705 5.154786536539068 0.8295049856233391 0.02314789887137304 -0.4069647498912927
Ni 4.2362069791032235 1.0207802686516463 9.633132458444711 0.403704333972466 -0.8863420492170412 1.512812417510272
Ni 4.223817718542601 4.347645264265915 3.6202748438605146 0.32525252032246565 0.38059011655250585 -0.5334866795756426
Ni 2.6308450739313267 5.190728404141456 5.280274968130486 -0.3351124438356809 -0.7258357921674468 0.9326884976920646
Ni 7.058625525409313 6.313559746278203 9.019142825420435 -0.28026824230229147 -0.10717952060199605 1.1795879347259235
Ni 0.09579881873706503 -0.1521852898317286 12.83400992022292 0.5224558756827776 0.3911218693217651 -0.9064439621732389
P 1.0417388452189416 8.503243048438694 1.9486847661628637 -1.1423182517411874 -1.0414618451437418 -0.001595626621894026
P 6.092774386475057 0.15322810681215013 10.76462420042421 0.5007351961762344 0.5591146645563919 -0.17670626384822471
P 6.809027931744251 7.191310509477918 0.9607123376109493 -0.9755868397174875 0.7449262331399945 0.05147039996515007
P 4.399990587204721 7.752126700196584 3.2073667203854312 1.4872559091974065 1.3894565442587297 -0.1920449510878241
P 3.077062928031478 8.087222274279625 11.622517757931675 -0.01708446628611251 -0.16776833792864654 -0.3030687851365748
P 4.777458733602751 6.089577157943283 9.119220725599444 0.49284859433930606 -0.02814895163039023 -1.014649610046904
P 2.8126130925240505 3.5018667863839363 11.781605901340578 -0.31121841082690277 -1.244995513597456 0.3454135686513729
P -0.36852613020495106 7.394957237267721 8.53477664426021 0.9193902379212617 -0.815008591779377 1.2954495564829496
Ni 7.043773283566946 9.009148697977947 13.215074019292299 -0.27675200161891694 -2.6688783578548554 0.4556606724350991
Ni 2.0740625959533285 5.680517791256011 12.1310155790916 -0.19157186810614749 1.5372173287171977 2.9737700551327815
Ni 0.7977419780458772 3.7915598564619954 5.511963434883121 0.5649202154945754 -1.4388561777377802 1.2386870548809248
Ni 2.445703235696063 1.1081742799431216 11.572566638684105 -0.19827242005477466 -0.03709047709439419 -0.05316835649286327
Ni 7.479274845524262 8.300107505443217 7.199210638117475 1.1293850886192873 -2.206749304086593 -0.8252948041967335
Ni 2.7467910795530597 6.846372304536887 9.83930072141088 1.6225566135156508 -0.06366488514881294 -1.1496569514944457
Ni 2.4520419271456837 1.500373842686679 6.8846386688131025 -1.2148346737433593 -0.7241275512270884 1.0460795464214114
Ni 7.029339283829025 1.7303326459807 9.302032490599489 -3.311590899038561 0.9853773434453481 -0.953777714262196
Ni 7.5270752709280755 3.986832447893868 12.582719840175198 0.06795374233215394 0.3754602515251082 0.10530672905931543
Ni 4.714229821679332 2.942045082446956 1.5752391793827156 0.4815416539669191 -1.4455099356088719 1.576175712258266
Ni 0.09665946804532735 6.853807719727058 3.4264177695954716 0.5851776801920309 -1.3539344400927198 -1.7449298111389497
Ni 2.5588609606214816 2.1394384840129095 2.9325435512608165 -1.0613902086365528 1.1627240690910492 -0.6827780417460241
Ni 8.960716262282968 6.654064584912096 12.942154316456365 -0.2606386409968221 0.8897305060732998 -1.5432097988552067
Ni 9.771157929473658 2.135098060395647 8.320868114081074 -0.36191336607860897 0.2602257218291196 -0.4621280253269977
Ni 5.580065332036798 5.061222060066648 1.7987384657302756 0.9465670554463697 1.5814246193620312 -0.9328497058602773
Ni 2.0050154716436013 4.73497463005991 10.233123992946592 -0.42875613473477125 -2.7375463526452144 -3.230279761562895
Ni 7.5494279878435275 1.6190523633907996 12.10190499919518 1.4746459337428797 0.21451690693809505 -1.442228950864755
Ni 9.086328307651923 5.619937745994091 10.651976730866217 -0.8244201149012639 0.21926187782224818 -0.9048961580701448
Ni 3.6190396355120478 8.418302724159975 8.131064270521572 -0.41764794063675165 -0.827275324961872 -2.1165164386412645
Ni 0.7229240421216778 2.540941610013169 12.713690961042468 -0.3953587902212481 -0.3486012223507351 0.07105192164150344
Ni 1.7205086036606863 0.9852203955046525 0.6660254568057913 -1.0820989019388139 0.5455497813877637 0.18837624398698527
Ni 2.4046225667703665 3.4096583437568255 0.7133453685029398 -0.5315727503823813 0.8075228249252931 0.12133138662234588
Ni 3.717558886781817 3.73279219365268 7.3572652588149445 -1.3307806276840757 1.4547718205267721 -1.2706006157600698
Ni 5.754063341755793 8.525381997167429 8.814088945305892 0.961425717725757 0.3536714377847909 0.6282832531322534
P 0.225096041759649 0.9526439827027148 6.509098153803125 1.212434548942299 -0.6637457077049215 -0.9457026505635454
P 6.129719105701219 5.457566866778727 12.014926441727455 0.3943460326860176 0.008385395850217817 -0.5982201151982859
P 7.190557673689913 6.945012381303496 5.406933548187458 0.7404733395749634 0.2217684462941858 0.5495925839985696
P 3.556935330136142 5.381167975699717 0.9827332491235401 -0.7643959118288319 -0.058082505965029 0.4336995947829757
P 4.498156656252957 1.4661709328118915 3.2644047197361337 0.319852689463133 -0.19295126495217738 0.8729566290490708
P 8.062796935379914 3.8179927574630543 8.775320690504339 1.1078472145475116 0.8695463178159412 -2.1608995927423305
P 2.589559931087901 2.094342690884521 8.905855910156086 0.44211970052587085 1.3129965642277772 0.12105782124598506
P 9.084199920053736 4.726619082239956 4.002222827910623 -1.845931227954692 0.7500044189938503 -0.17875826128124697
Ni 1.9421490362107034 9.013517004402171 9.56941466797254 0.012071329342237274 1.536344182083625 -0.9321863612446656
Ni 2.804508489966764 6.387839544028014 3.101466890112519 -0.21592895679427326 0.10226125736477228 -1.4997476139065138
Ni 4.6280254768182845 1.612351195450658 7.459465040603848 1.8950105019798458 -0.5939708530036287 -0.45755968923002494
Ni 4.753999998677761 6.647242591475113 13.147887607633912 -0.11073072828836412 0.3921135438110731 0.8147211424459452
Ni 8.1034314793942 5.685434459550512 6.9870698778998 -0.19985416271959774 0.6632505132360578 0.4119372634052196
Ni 2.3265785900805316 7.94140448813138 13.658058397211624 0.502607987718915 0.5805036717551294 -0.4885551091702747
Ni 8.750935316961273 1.6251772866537035 4.253867019606779 -1.8958841628340508 1.0952027863106235 0.32125651178919507
Ni 5.553000420744575 6.767510432176133 6.982676476949308 -0.38286245752645026 0.34759900633846585 0.3315512088469838
Ni 4.428626229955868 3.7211929459560125 13.105337514781258 1.310654289247846 3.0551035612059514 -0.87929311279006
Ni 6.831975481874918 6.680627605678982 3.3822755684652224 -0.5803933714295101 -0.04628114245472675 -1.3150215650776063
Ni 8.405913463599353 5.916359866819255 1.3033093161939755 -2.026773625458477 -1.9305112659896173 2.2686671246373122
Ni 4.6897765999726575 3.4678776446958666 9.3399986499874 -0.3132552387512734 -0.08241491206280645 1.4893292467866672
Ni 5.390852603984915 2.283016351335116 11.566568117479434 -1.2623391470822258 -0.9091323076386795 -0.5209034435939932
Ni 6.16004630540813 2.0090677729222444 5.210804025154919 -1.2122674272368155 0.07964506262715315 -1.3544825992867058
Ni 0.567219012624302 6.4436144522232865 5.762790660335256 0.7057295083358749 -0.21891914977084878 -0.5698310225326315
Ni 3.867447562746681 1.493514672173746 13.342030945383778 -0.7236045888440829 0.4350126571674444 1.7819094736870924
Ni 7.609441082697198 7.881679515616329 11.029191143720885 0.10920375012087646 -0.1532709156434199 -0.12035385320042498
Ni 8.095252522685012 8.85817259254152 2.450231403546877 1.0172672501754094 -1.147482055330314 0.1469758266633275
Ni 1.2699131488673214 6.156375069157983 1.0663918937088532 2.0929972724734016 -0.6256599565767934 0.5786992715565389
Ni 1.7208153145372809 4.431814164218654 3.2744295182662824 -0.36460299709563015 -1.7621844844543395 -1.7219035254471058
Ni 7.236183240150602 3.6507423870291404 3.2428299331349533 -0.47852549284841456 1.1894581426517836 2.6077375246794765
Ni 6.372373880432458 9.028471483203404 4.1681404001716995 -0.9258429355251411 -0.48130562669671295 0.62824828612926
Ni 3.0049765777627684 9.20225572473568 2.257869777161957 1.7917807100542174 -0.6226772197993857 0.592769890716992
Ni 2.1806585669734213 8.288926499850996 4.385123474531973 -1.9955306082837954 -0.8637384528849125 -0.39583341586482146
P 6.031776099108689 1.6874024175264488 13.714511787042998 0.13427894792194936 1.1382718495859558 -0.513249012372529
P 2.559595207871511 6.555536039373339 6.949021928944796 0.3146654888352387 -0.09357170001057433 0.36592582967211174
P 5.3564452201923975 4.060052698979079 5.41395258012698 0.11104286021214424 -0.06286630050691754 1.4801426951913927
P 7.066674362352672 1.5357757132608818 2.9243264880487785 0.5081949948883893 -0.3627579734670913 -0.03897123905687482
P 5.7459494449295185 0.04420540215936557 6.398885782719913 -1.0167918532008875 -0.34462861085623225 0.37892584147620545
P 0.552878885003158 2.7790236044024517 1.7562013848542046 0.07565419630020519 -0.46326702402744735 -0.3204011057674353
P 0.444890632488706 0.8418023896090345 10.611725110734225 -0.2526959891109777 0.8027043204907273 2.399160380264584
P 0.23402783425684223 4.597140620972111 12.583835152453723 0.4680248504274069 0.7947768381135344 0.05153082088944029
