# total energy = -340871.0477097981 ev
CRYSTAL
PRIMVEC
9.25529199530345 0.00000000000000 0.00000000000000

0.00000000000000 9.25529199530345 0.00000000000000

0.00000000000000 0.00000000000000 13.54605537437797

PRIMCOORD
 96 1
Ni 7.930674532916665 6.257345521237394 7.962832044662323 0.9416919867422555 0.07550970030254092 0.20414636233704844
Ni 3.9758975545290753 7.074050990070408 9.692676645339294 -1.476294010869264 0.32083665064295713 1.368521079657643
Ni 3.2147978794988856 5.595027576776035 0.2977751343067808 -1.470145988989997 2.0382392028959155 0.2446540926431077
Ni 7.633681470776386 2.1233213044045174 2.646248999507221 0.36786392723508904 -0.003850484094341756 -1.4710502459718215
Ni 7.053374667940662 7.619872575244792 12.305927752595315 0.2933261039275142 0.8469432357044446 0.7711537993779558
Ni 2.1830179372321155 7.267301485177423 2.6566121498602535 2.015771875031335 0.6205041234074667 0.4760875728308833
Ni 6.353128537226978 1.6708393381551438 10.101997483289718 -0.8323195722539988 -0.230260542925597 1.469041700182225
Ni 3.2126228858997403 6.416916009079351 7.469308411961678 -0.5466813238890456 1.1880934010937731 -0.3504459888689577
Ni 3.6764240741565795 0.6491384087797314 10.593624706677748 0.5838052253245365 0.13612217177827524 1.9414950186946305
Ni 2.0874107717888455 8.272435442031687 0.2987321314904046 0.02406963935469403 0.4233704449428257 0.5120717042349762
Ni 8.490740012342473 4.439707998077825 9.45510625938604 -0.04672388641910018 -0.946249781316267 -0.4735671204018747
Ni 3.9940009055074914 4.744984546478678 9.3277599213915 -0.13182020196881167 -1.0080372469367092 -0.9098907830712589
Ni 6.076774776048797 1.000959820202289 7.960772742212068 -0.13969034874550781 -1.3042956940196697 0.2954997145400653
Ni 1.168786028429086 1.0160089248499904 7.079561590874368 -0.12935965624346107 -1.0277318971521592 -0.3836001070234232
Ni 9.301753476650065 6.95951675266862 2.2352483260749043 -1.8839244193690137 0.8704045520511783 -1.5802290563920334
Ni 2.7035818307806845 3.226228165009286 13.239263782448015 1.2514692942472578 -0.809634214841341 -0.15320278140964583
Ni 5.5425130504715705 2.702313855788842 12.356711539312375 -0.1542592476986182 -1.0494343218262572 0.2574607574894727
Ni 5.194106841764267 4.586617246585185 0.38831132531187385 1.2122607423685963 -1.4314069205485864 -0.6525009880290376
Ni 7.16739986428733 6.34327165134149 10.394226846683274 -1.1511299364955465 -0.7281477281300749 -1.5759054893160152
Ni 1.9777818391000233 1.9300893198813236 9.195306513320332 -1.0267749325555287 1.1852878133241782 0.26390265646007455
Ni 3.673878868880984 5.019783418615767 11.604404391597878 -0.37606086122358456 -0.4804479066821081 0.08731440624695284
Ni 6.05033240705834 0.13866463447281308 0.6898441081346245 2.1395532658560703 -0.1832965154712327 -1.4927009914723774
Ni 1.4199283744410056 4.171517404365373 10.282837557472932 1.1571206068613427 0.15366737975089018 0.15323903396421995
Ni 7.378540838658804 6.294449986509617 3.626752773527253 -0.5827184200182609 0.3195860660653077 0.7667572129721569
P 5.734671421133059 7.942234392513824 4.066606819492908 0.6735148712765433 -0.06536592700031969 0.6507827197863502
P 5.71522605282751 0.14352551378460449 11.95596480378854 1.7491348503592326 3.596383768684084 -0.8204500745099224
P 5.917750350429605 3.611322350852807 8.126509105525304 -0.0037301564663935753 0.8461703620941621 0.6531478775844172
P 4.493027734778569 2.180935496552083 2.0929195215344247 0.8565884721036925 -0.5839931729656265 0.24129108970814575
P 1.3510319814536194 9.241797695648952 10.315632758831276 -0.29826930686540243 0.5598394585375585 0.049551842786198536
P 5.606615202248927 5.741066827843736 11.953364066761477 0.9266240366655396 0.4562900784889819 0.4268319211288649
P 0.05697557700568923 6.765720195338839 11.028060704758554 0.3839865438285645 -1.245441857106255 -0.11019311061733926
P 2.2869456101036043 4.459255174594397 8.09821105050664 -1.1200851513746 0.4466674677975533 0.09363109249360003
Ni 5.532406271704479 6.600078236003099 6.060857525019821 0.7848966028853449 0.6647741489694358 -2.0977864663319292
Ni 4.632754876762793 5.912946853927663 2.606680775528221 -0.5612587074825882 0.40460319163765157 1.0466421037931006
Ni 5.645330088313708 6.255337122892651 8.370581334046216 0.3805929447659832 -0.585755921293004 0.4630628784364412
Ni 1.3351869217015497 6.358802031168577 8.883368005801756 -1.2748390793214495 0.32000027078459087 0.6092182660810024
Ni 4.681474733383643 8.316000101057968 7.4221545507322135 0.444691317907789 0.4375325953758207 -0.467291314695492
Ni 3.935285333622486 1.043080653690413 13.70386647898437 -0.44169289740109735 0.19726403339491833 -0.0585887561774862
Ni 5.795293583151783 4.386193900246946 4.657594229194221 1.8185818894074617 0.259854711642946 0.4849524794206809
Ni 7.845248188575777 1.2145627022221561 6.703847643382904 1.5226296607110101 1.041220161446581 -0.3787260667605736
Ni 7.412840950481917 8.710673514029638 2.8695828954425817 -0.26460405340247334 -0.11252484407430943 -0.6506392522299504
Ni 2.4902473522262443 1.185797254961974 2.306161447169753 0.6692280709757312 0.032991110214039956 0.39178598526832525
Ni 0.9322485330531276 5.757744863867818 3.811114486282699 1.3212901716951373 -1.8919323772751548 1.7114571333028008
Ni 8.636427562317547 1.4656032400230519 9.365593703666331 0.7570685249294832 -0.0849739310392343 0.44572130183420006
Ni 2.243556801623638 7.218887053189644 11.7177983770362 -0.24319704848160698 -0.3720522542848238 -1.3700478007148147
Ni 6.036486490359103 4.019027214835526 10.326280046645984 0.4992205593039209 0.7523978589266913 0.10946625975364373
Ni 2.191218125865488 1.4645018602856126 4.8793297362165085 -0.9706045560115477 -1.0837222964748499 -1.0363738890978733
Ni 3.937636177767945 2.8304996487597323 4.218661084773736 0.21367384221150942 1.0127102269323462 -0.20106309542603437
Ni 3.144633511519657 3.8734229624876537 1.9956047547335283 0.31906233235135373 0.3879262452026028 0.525731718220572
Ni 8.708563307473872 0.7441217675481826 4.426186942124672 0.19093320608088407 0.2559623185670753 0.0604620619407991
Ni 2.3730568460459263 7.228679152031753 5.208309087202088 1.1410607251850025 -1.3523483265525227 -1.6345546664177915
Ni 8.113494314039697 8.43158944173764 10.227230838140917 0.45553674526272514 0.9026657260777292 -0.2238646667015822
Ni 0.6777131970265416 5.484732263069603 6.341436326955488 0.5225070406356872 0.07910950183865731 0.6155573209251528
Ni 6.399099572150184 4.447315848028877 2.4710851958531803 -0.43503579709589596 -2.2740602706284254 -0.08542515964403997
Ni 4.470731736564353 8.029659879907543 12.562259540781875 -2.835841426273387 -2.2757122044095515 0.028069761653022624
Ni 7.688889287027026 4.024191667722007 6.776996843003514 -0.8523394670193515 0.7180175816746086 0.7139423831639704
P 7.8728289584713185 6.082827736958759 5.822365311992205 -0.7982969354516509 -0.6179222216129036 -1.0854518775714468
P 9.195252832627247 2.703535554321128 7.753802202375807 0.4661327756110165 0.7248896262040935 0.0965904322322401
P 1.3543268653740261 5.209942646224425 1.4325220501446512 -0.7096278149490166 0.11550989484456237 0.16128761530030933
P 1.238284015390704 8.953810032538323 3.8198116840917056 1.356506057474638 0.20573838941451666 -0.27740017672587713
P 1.7860492118664533 3.6247610347079506 3.919225551098075 -0.5574915271306721 -0.5858739349281071 0.3639458231276055
P 3.9870409259902266 5.390550412580665 4.7437471139501435 -1.3185519468283677 0.8393176008383868 -0.6103567505608198
P 3.558196975282201 0.8582015701171276 6.700203834957444 -0.2535976749896407 -0.32149331039034956 -0.6983023626338684
P 3.8271835240990213 7.6109227079666075 1.3783785924638061 0.7010107627039669 0.3061937039188017 -1.0259735197001556
Ni 1.4146528580515902 1.9495994752302503 11.589084106897177 -0.20451094476531875 -0.4078512662613041 -0.06147841902045541
Ni 7.772742231743001 5.153235472684161 0.9520104323420405 1.889807874732984 1.586798482079435 -0.5730896386792452
Ni 9.262603591865455 7.631441690133862 5.074636757186206 1.840594903343443 -0.7153300075401164 -0.6217765623619872
Ni 5.877711957621513 1.2457622912549986 3.971405035835352 0.23230971214514187 0.10912584569508949 1.0309015531293924
Ni 0.852175449553709 3.0326352241015533 1.8919232726268789 -0.4553251434725513 -0.2802800693768334 -0.3756232594655337
Ni 4.1724984653079655 2.191680890461051 8.249534147726477 0.28364178676021473 0.7837938567394696 1.7520419967036989
Ni 0.43097822102276195 6.447097516001955 13.256481401990523 -0.5240605011657361 2.0357138653709006 0.4552441537229708
Ni 8.623016644338138 1.6350306137504964 13.059941576138248 -0.09510202061217168 1.206578090161522 0.316957370193209
Ni 0.7049885422890119 4.291734391000672 13.078540085233916 0.018339678849452284 -2.2164500763141244 -0.12743929929229666
Ni 5.696382278496195 2.6066696691779274 6.222705740201137 -0.5470718744592449 -0.9721019664926808 -0.704434186563219
Ni 0.11714515524995275 3.0715814924641167 5.5371533109257625 3.005117459095812 -0.924053447724886 0.28669188644044824
Ni 8.716032328046255 4.135699424668814 3.559726875035131 -1.5309291817156407 -0.358108390510222 -0.4002770534584719
Ni 8.00354144613398 5.008640047154616 12.101964257101022 -0.6433812851159564 -0.9231594751557068 -0.7991636543273204
Ni 9.591906878067926 0.3158303577672582 1.9444415010481075 -1.1140276323266105 -0.25177399151734053 -1.076144741237908
Ni 8.967665204529473 8.504067632694682 8.0540373932726 0.7561498697699558 0.26134415170427894 -0.7685202184098506
Ni 4.407647666897236 4.66280680959864 6.707505334746233 -0.16119479847618692 -1.8211470790314765 0.9927561524079225
Ni 0.29292628687447403 8.690089744819007 12.243113937452005 0.1418899274999879 0.7858515105994466 0.13347496396341527
Ni 2.6109456140409275 2.9046900687203565 6.659457412318141 -0.7807612405607327 1.0048449652516565 -0.36032828097967623
Ni 3.9305281135801002 8.917751415252072 4.820593802689299 0.4074897691568273 0.9067887471071674 0.3177438706502463
Ni 5.646116788126165 8.61875921005896 9.929054949694379 0.35174285330351035 -0.4909565195229158 -0.3402099129632464
Ni 5.704897147054549 6.887954835610792 0.6204645889094704 0.9805174442498855 -0.5758890558012534 0.9094943189637885
Ni 2.8816999236127976 9.066187786924788 8.663772322269352 -1.3064914161194081 -1.4737524753943327 -1.2156170604353387
Ni 4.768557774976647 9.208238007178739 2.505993380354863 -1.3343007250221923 -0.7117965404655613 0.05269604484213505
Ni 7.42391953489969 8.398548049614456 5.791006531938489 -3.365391489798785 0.003331378366078134 0.46920987187444346
P 1.456255395192684 7.784505707762206 6.938994068384601 -0.38072741346131855 0.2312658442616598 2.015161752251162
P 7.223042679257799 3.145633083046073 0.5827798168344112 -0.5117336041692672 -0.6107154194518192 0.0030465001358076565
P 7.855817731938431 7.5954941363505455 0.8288678479335941 -0.3739921516200139 0.6465946498469316 -0.09531182263013263
P 6.820030248274087 8.197976618605637 8.017612266426662 -0.22336947223271852 0.0008538633598630457 0.4841217559892695
P 7.954034889700674 2.901663588265376 10.983764877671286 0.4586740053401262 0.11324012497377915 0.9596105188938894
P 3.728281474735344 2.7959588993469264 10.629779578999877 -0.4054048616033405 1.2790973403771715 0.7594737919368663
P 1.6198889561836822 1.2071492134012403 0.14386703405612983 -0.6259178382238705 0.2861480981218362 0.258488941643671
P 7.456655502389801 2.569528182738059 4.837323668348085 -1.0370189788810398 0.4053670663868696 -0.5565947263480155
