# total energy = -340879.39527146734 ev
CRYSTAL
PRIMVEC
9.16188132092383 0.00000000000000 0.00000000000000

0.00000000000000 9.16188132092383 0.00000000000000

0.00000000000000 0.00000000000000 13.40933941032766

PRIMCOORD
 96 1
Ni 7.051670775038126 1.4507930215975082 8.069968041146046 1.4396665894542173 -0.1341827886637173 0.1394278391127405
Ni 2.0093287742965686 4.828604478396587 0.9327775200911738 1.1174667399151463 0.43372530581458846 0.1427990695778186
Ni 0.4127858008485533 1.1117392906437473 4.196680226341032 -0.4437214977953519 0.7469890292062942 -0.46351976346820173
Ni 6.943688845321558 3.099345245038909 6.07912427799797 -0.6241869715756928 -1.4394441890307663 0.3214444594302851
Ni 4.805021796647865 3.651504328547173 0.28775910768003377 -0.19913785337886347 -0.34296819243467386 0.22757374012205323
Ni 5.860681213560482 2.6700836335498246 2.2312872524819145 0.7701508120347381 -0.11331468696545645 1.391442464340507
Ni 7.957368523394762 8.739106021533754 0.17808131378643072 -0.38580817041833554 0.4145150514347248 1.2766941302523174
Ni 0.16706140329405947 0.5135573302013896 7.86910937495266 -0.02320754846471487 -0.5166572667231296 -1.1836734176492065
Ni 4.03518558195549 8.910524815441525 11.586031366367832 -1.0126881154451592 0.12358675831542587 -0.1351783198077672
Ni 3.9354310213960133 8.426301079705901 4.485946463449063 0.2000714209367264 0.15316961417886524 -0.9256333906174962
Ni 1.9880548865652035 7.08776858626189 10.499686977538811 -1.1540170282353543 0.1403935454601195 0.9560821940256566
Ni 7.241395007226373 4.538768372289034 0.36997599558861477 -0.14873908921133738 2.1297403935307067 0.2552485803295023
Ni 2.153829961763878 3.3057074531617645 4.557700483231366 0.619350726529314 -1.1483045512316095 0.7102281675371768
Ni 3.095845406488788 1.2429099412251239 3.6380207882481845 0.5176769662368955 0.7689953582740563 0.5026972049986117
Ni 3.3961810282467053 3.6245134270585417 6.688752176400188 -0.8996181975006571 0.6151670274652696 -0.3244097127061962
Ni 7.393418099012138 6.001920771384222 3.1384554827424633 1.0365656933937053 0.013756173243827923 -0.30357914911409006
Ni 1.5962836922151138 2.6023498471596507 2.0359403739109196 -0.2753849460680612 -0.33122493585581664 -0.24622452245402113
Ni 2.3623726975697936 1.4700421336231753 8.124142243624753 0.9094902051987305 1.3799149233168815 1.79725690267744
Ni 7.874306910056021 8.372713237612553 9.325753173770345 -0.8981020179664468 0.225513772269231 0.9901835065847397
Ni 8.085442458190952 8.41909067934217 5.034563563754507 -0.19132478509234793 -0.06909685479766164 -0.02730460135222394
Ni 1.294976911068943 7.3600322045706665 0.8664473338734571 -0.8240275074485357 -0.4999965182379969 -0.20416076051475163
Ni 3.356601702234863 6.7929575787597924 12.596598753458114 -0.6395552265016469 -1.0152617897096063 0.18390920935456714
Ni 3.7905083874017262 8.097847645093738 9.310198132172449 -0.9267438500728556 0.007506592789690298 -1.3006583543773986
Ni 7.360847611981559 2.313411605392181 0.5731232996611102 0.6348156549341325 -1.2131220619276268 -0.8351264455751748
P 3.668169790124844 5.809200604102022 10.29465782310455 0.8183528256612617 -0.24859790778220411 1.831117302870311
P 1.2183102906830414 4.329666761740822 8.449492549135016 0.48502549875046147 -0.7277826314811724 0.8974751830157254
P 4.31234164472962 5.768567661772736 6.03586554056799 -0.9125076518688156 -1.5149726583863845 -0.9403784101371547
P 3.4294936276400056 1.5034646755887309 10.109233261679579 1.2189978039821134 0.8981385276313372 -0.951825989852464
P 4.2643975213453675 5.6828949123429355 1.381671210232614 0.19475772203329683 -1.244947948188972 -0.740870575013382
P 4.361724183434211 1.9837762881282752 5.450788734738442 -1.442045374099039 -0.7365272104430219 0.6428673215940155
P 8.874307899764483 6.311638159307909 5.399149624738315 -0.6144584314340192 0.18396140274874126 0.8923897980730179
P 8.731712383549597 1.3489861996892698 1.9283166737422834 0.4894416255402861 -0.10348381691796371 0.9436372833940846
Ni 5.639669157684632 7.40464140326318 5.748262184865317 0.5059067130748448 0.1588080434115652 1.3689895346536294
Ni 8.437258689407328 8.37806377612897 2.5729173043788536 -1.3207767223938285 1.4519778027214025 -0.2617565566513492
Ni 9.151408991252486 8.755331712822404 11.508471462582357 0.4864774007056396 -0.07281132753477138 0.2940889502354677
Ni 3.1149112808940296 7.152799617750791 2.4269566292648577 -0.23009110722726825 0.5108270331945975 0.32826071102117016
Ni 5.503239587397052 1.0293373327385371 -0.0002867668759654313 -0.501536351921291 -0.1799898196955029 1.802621252313147
Ni 5.227586073110409 0.17245500265127506 2.255544248673802 0.1802096490157929 -0.4068025132818155 0.94493594760085
Ni 4.91777706637651 2.229470451475399 7.806071968773984 -0.9159709278270677 0.004320224641908689 0.2601190210479262
Ni 0.31172933699595573 5.659669543954041 12.909640071816314 -0.7994994404001844 -0.4155774312609682 -0.7744957192669952
Ni 2.7753902940081843 5.607849944897796 4.190700266598456 0.6752969028776304 -0.041643129462083116 0.8351961224708454
Ni 5.269968934714757 5.4762761715514845 12.244751371846265 0.771647965405555 -0.1560965580176731 0.547729819758218
Ni 5.512978666922651 0.6207156068141463 9.709662558016092 -0.31176271336614697 -0.3699220953156984 -0.720455758802456
Ni 1.7228001072376904 0.39573554026798885 10.360578473240617 0.4362658128482551 -2.608450491586101 -0.6009879077514101
Ni 8.357770209666878 3.7599077047907183 9.278176441815045 -0.3315725490032225 -1.2943185282023 -0.01966251142593388
Ni 5.886911678924348 0.5333240885047577 5.843883820896103 1.2433569495527685 0.6464738079983511 0.6596972486671606
Ni 2.701966979503809 1.534404347797525 13.130988368725644 0.9223938006342761 1.1328676478512492 -0.6437029301214333
Ni 3.6837266640989434 5.6878331662133945 8.171154603709144 -0.2222718682931656 0.44802578159766066 -0.9527053071336238
Ni 7.6255618403288175 7.367755670271588 7.278844195900772 0.18430335946919227 -0.0077421058392640844 -1.5513733085026056
Ni 0.39176936197388545 1.595404151637073 13.339342369782521 0.0355077059883066 -1.077566561286099 0.001456015720236202
Ni 0.5484924987235553 6.683802928272503 3.180695419002879 1.6773141688725046 -1.2817520043911992 1.2235764244917315
Ni 4.912600603599498 3.878105131845991 4.597217508452263 -0.6338782307215277 0.04718617076749938 0.7760805472556117
Ni 3.5011670228693212 8.668055634213884 0.6390595249949126 1.7800847617735276 -0.014733963776064948 0.4898198348153112
Ni 8.537727876686462 3.7328526701349385 2.3092218772011592 -0.5927809464605855 -0.2926275351985928 0.5884638071424704
Ni 6.633440068298637 5.927471326205465 8.829204875684924 0.2985521282131439 -0.4287522780800293 -0.43598864792746844
Ni 1.7295707373124012 0.20095211737980154 1.9815517834163134 -1.1328913020003326 0.1571730789113035 0.5654377785609424
P 7.032485796179608 3.7212170812379384 3.9896537818441358 -0.19320040484850598 0.003373801568239351 -1.6325414926425046
P 8.638783424350958 1.3509193565847555 9.687362539610344 -0.3603514209081278 0.26541343667764605 2.0733630431822423
P 6.106897604125817 8.059157021540958 3.7663347643271323 1.0844195796521905 0.3303129655645085 -0.3523822866597222
P 8.906887548676083 6.803759436483857 10.460089327764928 0.983609452911648 -0.8259699758868871 -0.31641486742617764
P 1.9734508482173154 8.519294172071689 7.6469841505327265 0.5952394353034072 -0.9886899527583488 0.5285393628726962
P 6.462800034277674 3.6902590852671016 8.192690521237719 0.23163428334467204 0.7296878189236852 0.09894427717639734
P 1.389197695491579 3.488926749824918 12.680863321774947 0.12393205746998656 0.2892138815313536 0.24928284966437067
P 8.212059653904763 6.610003976646255 1.0749103613144875 1.564060674162287 -0.3196781115584817 0.3303083375788182
Ni 2.5559357579059485 7.278738834269029 5.9032738822402155 -0.29416351222714504 1.0160693732125663 0.7487870016469813
Ni 6.579458265321375 5.351555485209075 5.463809600045857 0.833335672223339 0.45357087978560595 0.0446052974142006
Ni 5.407168103008122 4.29416447278344 10.087684517517577 0.2526497092540746 -0.611852618380056 0.23245369392217388
Ni 4.856960500157387 2.024326773528371 11.57940641020136 0.16419964674078172 1.9693374948281954 -0.8777406807012754
Ni 3.144128519470827 3.69191738573195 9.447214979033493 0.005626602158158052 -0.2785029228717526 -1.3123982685221462
Ni 2.150091914307204 1.060515213853884 5.924151976711463 -0.5698117392589219 -0.05288476381417344 -1.2139119048187739
Ni 5.598807168329813 7.068473664831116 10.562053734026733 -1.1480029608307907 0.7246942223638357 -0.6957258601559437
Ni 8.661303327901214 2.9657192103438352 11.680204509009156 -1.0098349622670801 -0.9723035409805255 -0.1429312242803087
Ni 5.137424001980191 6.058660300548884 3.492542944264009 -1.3274132538737398 0.2810917666448514 -0.4557691729885054
Ni 6.132633327914535 6.953345467917966 0.8679196481535736 -1.3238355638248105 0.15648376615376275 0.38263877155141846
Ni 9.163621778653825 4.099639414940053 4.821542500505401 -1.5206221433626779 0.8730972683919932 -0.5183806771721395
Ni 6.993181326598404 1.3384958459199272 4.078182289588262 1.2475943846728836 0.7310507607094828 -1.6719125382409594
Ni 0.6236336659194175 6.4571654774496 8.495848918538284 -0.618897183931663 1.5406836899992435 0.6704658000375744
Ni 0.5038732219619181 3.0184000262160793 6.871213785502882 0.7798747241907213 -1.5298246357975522 -0.1978520446879044
Ni 7.454243827112281 7.12348159848276 11.885930882589138 -0.032939688150814245 0.12628538819351154 2.0554887340049826
Ni 4.00107589891334 9.18029640211252 6.940660843644032 0.2523311495723913 -1.0393872220029003 1.1095752529822116
Ni 0.8851238283352951 4.745872692774611 10.656294674587615 1.048689987461065 1.6671760519972387 0.33430357478114037
Ni 1.457334604646688 5.445162423603286 6.672983662974497 0.4794734585839807 -1.2666732556812057 -2.4013082798455225
Ni 7.596537001253467 5.013912683932588 11.243462221666213 -0.3904256145856889 -0.2499425947355566 -0.9741146260473353
Ni 3.7760509391501786 3.6627459565602587 2.5981665322853438 -1.1682475700124397 1.729377208116331 -0.3787965149871928
Ni 3.3115893807774137 3.9551199037107008 11.810704509899777 -0.4178022068264288 0.6854887558089678 -0.03879666115222351
Ni 1.3011795045203363 2.51376361956509 10.36336734982349 -0.010064583324853634 0.6569621091241846 -0.7039708737735554
Ni 8.233351865398172 4.857006309562493 7.159795630098625 -0.2956115575275812 1.2284026422357812 0.06685228173785905
Ni 7.017139645468998 0.625142627723619 11.537515541607853 0.6364971564016135 1.1960561075842757 -0.4539460037368376
P 5.814679408952736 8.261313926275054 12.593555176582852 -0.9661925429867811 -0.055683666715549265 -0.04358045569411204
P 5.6664951453148795 8.05639929535356 8.20403476231824 0.8914793704436066 0.11894797399183384 -0.17808308959109329
P 1.9070180489321606 8.612140674341134 12.646159948842618 -0.6735806915174722 0.34082954882511624 -1.3917983050180287
P 3.804040485670127 1.7582016155038378 1.6464926325878215 0.12308205076486543 -0.24164667327535155 -0.9688009271439059
P 6.5722203793145795 3.2888770777257106 12.082042778225409 -1.4655956506151533 -0.008775689310101016 -0.014661715777232815
P 1.2901302760086968 4.559355118943805 3.0288610619661536 0.16672447004516447 -0.09355190251623242 -0.5934208940374297
P 8.276476839365241 1.376224471965475 6.137468052529454 0.23524154107995615 -1.2794074154184223 -1.2006594106842416
P 1.5977221075354515 8.476269978795852 4.1402806029622585 1.0460558922723275 -0.04289242848815194 -0.44098430136984695
