# total energy = -340863.91008326446 ev
CRYSTAL
PRIMVEC
9.34737261065542 0.00000000000000 0.00000000000000
0.00000000000000 9.34737261065542 0.00000000000000
0.00000000000000 0.00000000000000 13.68082466259684
PRIMCOORD
 96 1
Ni 6.99791973187744 6.019483520699908 0.45169868731271673 0.33694384061746485 -0.6147016577930767 0.29579564851392925
Ni 1.2689245047983992 4.801773269553687 5.9253835222482785 -1.3485307525786452 1.7791722772615872 1.182068792166248
Ni 3.3301042563202197 8.2459622066231 3.5091858913987464 0.026185657256432317 -0.5253650789097726 -1.1504655634386702
Ni 7.552031970698593 7.619379789199039 8.267773365497344 -0.8282114636228962 -1.3854479373199688 2.6535808082658363
Ni 4.558872449074495 0.9987387041383887 4.07183788968999 -0.09950632032745443 -0.637536139189089 -0.7435401514257453
Ni 4.354781919006664 3.304090518792567 4.1394754767363775 0.8197543339944786 -0.5225013842087324 -1.1391629939416574
Ni 1.2356572062497406 2.6570093135862054 5.07573634342064 -0.10918780928127646 1.0603162588460835 0.1852940055172357
Ni 0.508043713702562 6.144626143057154 3.4421502751381228 0.1385420940736775 1.612669436308926 0.8523916604135257
Ni 4.217440975602494 4.956537715204189 2.0748063510790655 -0.15782999576901208 -1.5222416812439719 0.16214739219744334
Ni 5.3913868289389875 6.816692874821697 7.2128728434691265 0.11967251086268421 0.3507375519674476 -0.12206595079552528
Ni 5.165675826394885 8.806477395572331 9.274983593286942 1.3580430629444546 1.019232087211264 -0.12978980180234423
Ni 7.173061449468397 6.422420704891262 3.3045896684813836 -0.4034194557421955 -0.643086379583357 -0.1254420663566098
Ni 3.8286183238102622 8.350895809743989 5.727463192734527 0.7268274666567547 1.1916307248230704 0.6685711541180228
Ni 2.6693198031025256 7.117444583392388 7.359681740427647 -1.4000993686845566 -0.24802018090186317 -0.7059310828237197
Ni 1.6405199491657423 1.9336348544449882 9.065475326147237 -0.41180048071703923 -0.8589425741581659 1.617091219525705
Ni -0.06459969100021905 0.5918017792757876 5.889266209839692 1.1742824633526099 3.111633635082196 -1.9500105123648093
Ni 9.121605362970737 6.61578979875923 11.755494885539731 0.4207432917326238 0.12966433196807348 0.11110559512927962
Ni 4.350117580154238 2.0668629539712686 13.458948823935147 -0.8885652821206051 -0.3690607757566676 -1.2638165029587007
Ni 1.3076880583475106 1.1342569099148576 2.7996576950673435 -0.32131179050716274 -0.06133649412595243 1.6593185036260327
Ni 0.978651200743877 7.066520098286153 0.16718616889897525 0.25042390524734937 -0.17574055750084572 -0.6386944211632485
Ni 9.651722896713382 8.966055738034454 8.393746969265376 -2.2480779876320507 -0.6776564042487426 2.1618359885136704
Ni 4.982074736736905 3.4407304092630056 7.966741235753161 0.7503034382915078 -0.034692152065546704 0.7342795520594257
Ni 8.497752378302003 1.7924708357088706 1.7857575528154608 -1.2995201270078973 0.22229397978035265 1.0871709171450825
Ni 5.377403159754163 3.480643689623436 11.685695251245717 -1.3588131083412598 0.4205070073521016 -0.6080090762642496
P 8.791437473300684 0.9380275200772655 9.970447733030452 1.4597584751080859 -0.32854096126575033 -0.04097309997825201
P 2.288068522994591 0.9627980570691018 5.293781565818703 1.9543523342732727 -1.5594031207856174 -3.3976112690644387
P 7.197579607404091 6.302278926794631 5.749503362233792 -0.3104175121921622 1.3139864389448725 -0.2530078639244417
P 5.189950952646885 4.541056357185273 13.84499437137256 0.44650960206345036 -0.034550227171043724 -0.5237427128150012
P 9.233839263974879 4.2999969690786815 11.393554342175735 -0.7671480206526723 0.4491928053225684 0.5714526172964546
P 4.678088837298601 0.26095994405210754 12.285106726432847 0.6325445995117687 -0.5643118924866153 1.6121996957613591
P 5.813598295121725 0.05289304174415273 7.305451089685935 -0.9587294018405166 -0.8149959933738867 -1.5127710227493756
P 2.78111437760153 2.749052890098889 2.180067112235695 0.7534499543402895 0.2962754163638252 0.7014396227112694
Ni 1.9260728301331407 5.583587501250737 1.74304660388082 -0.14721699613985614 -1.0053303895285073 -0.11082045978869301
Ni 8.954960406936602 4.180444075446385 0.14835495236170984 0.4405425858467381 0.0867150821000571 -0.10435799199280091
Ni 7.1556566419669645 4.58631633458696 7.384608378539395 0.6728926643115122 0.4813845595637645 -0.027431870958707597
Ni 8.529767128942394 8.276855272569522 2.3298578210056866 0.34898405961145057 0.3743384792158392 -1.445446429360788
Ni 0.6421074683258498 3.6334451870594915 2.932047335284881 1.4297750413721184 -0.15877281929825557 -0.8536342745713751
Ni 3.3822999840796215 7.328050232057695 1.137603269251868 -0.06734053422818725 0.4789345553613752 -0.18701278798055532
Ni 2.6089638191944933 4.703251963933327 4.116286515163039 -0.7640012474935745 0.37552632887635323 -1.0951917305670298
Ni 7.174613113295056 5.367158439549237 11.692385165708004 -0.3029728829886589 -1.478413114094796 1.5884712417961677
Ni 7.977851522646933 5.775040383766507 9.600039404964226 0.6107894672228642 0.47418649915342853 -0.20555506975911694
Ni 8.541311133917835 9.123783300751528 11.991420696696919 2.4635857977285056 0.49854024540744457 0.9857257279237024
Ni 5.298548725768076 6.731360711727934 12.209437876977633 -0.5625951669058247 0.2410347507229655 0.163198459169777
Ni 3.721394614439185 3.093157712091519 9.847567174806045 -0.30475182926595257 0.4148996884676532 0.1058173501471468
Ni 7.001079143765456 1.1236009053221432 8.726861150731589 1.0414495038485676 0.6420710509449652 0.38248939045774766
Ni 6.513875396939611 0.0019750997986320773 11.350528386789536 -1.5489824396729257 -0.5324731507094637 -1.4358955524475594
Ni 6.661554534273204 0.7992667107979787 0.18691847214039653 0.0662249325665053 -0.5981005589012861 -0.5484672121448748
Ni 5.233855561043359 2.693959476880065 1.708789418589733 -0.6024616640834591 -0.6910701065514873 1.0578765390563394
Ni 8.206778021313749 8.257244485169947 4.520377165114692 1.1004318959200468 -0.18452627411327574 0.27675971492840074
Ni 7.874516320214953 2.3151572083539653 11.538229234003978 0.6581741271544149 -0.3031628875122779 -1.0902598404830515
Ni 3.1377353313043743 0.5839733548491224 1.4797040145912712 1.12100894874045 -0.048890812163431926 0.27875694786408767
Ni 8.597937516218417 2.1201055874450416 4.102222458575146 -1.5593385860962692 -0.6519811109698256 -0.16858569162361933
Ni 0.14614803772632395 2.550084720133521 7.466542771747673 0.19039250308606565 0.01333014145000285 -0.7102551641203703
Ni 6.772283508312937 3.077519557983088 -0.339092760885074 0.46431706255851646 0.6960865859294721 2.8159734837048664
Ni 5.988328728324892 8.211049770523285 4.369573201171147 -1.6672961225148706 0.493514252947763 0.03040020955841216
Ni 2.3703814847870857 4.558274217237711 13.241369100685082 -0.0883770431835123 0.29127024983975 0.5925096950770699
P 5.060573970569902 6.794016149258604 2.5405289012781416 0.43816868629792277 1.9521643254830185 -0.03272448681621461
P 1.5056280173434067 8.04703142614753 2.205608807454636 -0.14275998880976706 -0.29092623623676994 0.67167678962654
P 3.7741605319180214 5.753092753254497 8.505040524601073 0.4026216424312486 -0.9493335624479136 1.1881520222458506
P 3.5520108782772737 1.126779011955058 8.2970231633671 -0.39788027109152124 -0.27931770546356416 2.5529156917435905
P 0.114498769348717 4.881020293182663 8.153702705806827 0.6759162816291843 -0.8784428489746227 -2.454116939006122
P 4.328927086810657 3.9764189769857015 6.135247924278321 -1.1124767428997229 1.2617683621804203 -1.7292357974424606
P 8.798261055189 1.620002466638542 13.479771030804208 -0.4798349556884575 0.9310926139598545 -1.854739570274941
P 2.9630609823359046 2.8834961480436365 11.88003086342499 1.3253090630465432 1.552279879477275 -0.15495395977279763
Ni 8.342885111554553 3.511966734702547 9.29594227179377 -0.41213909500338053 -2.2204023760936535 1.861097394172169
Ni 4.040700857322629 1.8474894699480964 6.389642273921725 0.13329910050718333 -0.9021409639225108 -0.922596146453069
Ni 1.1918086820879654 1.8590521696684368 11.999122931595515 -2.165034183735994 -1.3922636746902217 -2.7314063011857477
Ni 3.2668879764425633 7.803747363397899 9.425951136248356 -1.8388408967668137 -0.8436514523270503 1.1016925078000253
Ni 0.7940106832694845 6.6040868884521435 8.939091372728662 0.800950571024414 2.208811071711628 0.8636659477757641
Ni 1.587006241890926 2.4339436174453826 0.37936498034757493 0.2405475266739019 0.15475624193969476 2.1953893989890836
Ni 4.68070610158453 5.969839625619288 4.459510814670902 -0.8394893505295608 0.8178530032067075 0.9294782182848831
Ni 6.462287248389442 1.4236515609591032 5.509883469484463 0.23745191846771363 0.07968542894678535 0.1887778503007781
Ni 8.430741065209748 4.701064678780084 4.69918492218044 1.5023156317440063 -0.3240518151461451 0.12661731761163356
Ni 1.4662568845850616 8.38666820410918 11.105642184402019 0.04754921053387295 -0.4930427126279831 -0.3978746146645664
Ni 2.597204824652708 9.371862565567882 12.885845528507838 0.954059250058357 -0.7798076183982118 0.19366166075564067
Ni 6.784921155864998 3.909220716444452 2.8491688574591767 -1.4988245878716122 -1.0782913552672655 0.5012306477554143
Ni 2.414706724943798 3.71336522150485 7.569996685809767 1.1531672786405494 0.3703357858143493 0.7195962390156381
Ni 1.4783804266523868 4.403621940056605 9.932675000961014 -0.2517655068769083 -0.5014918718366008 -0.250727038310065
Ni 0.6853680427605355 9.39392236454929 0.6365672806748832 -0.1714552998619305 0.07369373013972469 0.009689202263305895
Ni 1.7534175136138173 0.32818063828723637 7.105122877029128 3.8444180906533343 0.1852659804927777 1.4269293443932072
Ni 1.2251694543611216 8.236362455117206 4.9309380662760605 0.24884704767853275 0.8677370325213443 -0.8482048760256875
Ni 5.6951857809282975 8.023634952905807 0.9298298744388351 0.5701853205482568 0.5277248373912008 -0.5332887046322234
Ni 7.793951317070561 8.840613999758816 6.63877031392694 -3.0996186128991905 0.4188915832358657 0.07892823906578665
Ni 5.732911776135487 5.076146693071185 9.837648677899615 -2.039001020762605 0.05064764695353857 -1.327231733990553
Ni 3.413062186811747 0.8786679660723762 10.74475508991311 -0.7106590844270084 -0.36673289895443933 -1.0887444322797897
Ni -0.16357434418439204 6.964876770267576 6.507981878610044 0.45316258860359376 -1.058781824479428 0.4328902115078029
Ni 6.253336084647741 4.41837209378231 5.131513049565541 -0.7011197774780054 -1.1854163684822423 0.916999369091582
Ni 3.246987420497047 5.26443081632649 11.228003028718222 1.254150954844479 0.8787644939800995 -1.0501264627972753
P 6.905922892227006 0.8632747131221286 3.36535974098894 -0.4182655196160926 -0.5678589864079253 -0.3925218349930853
P 8.18850390817449 7.879470427613319 0.10256497894212178 -0.5768295653376517 -0.18367575318752238 -0.41772481662127414
P 6.186006960892196 2.922306438454997 9.719117452076077 0.007966563145244344 -0.31219902957261714 0.5774905959604183
P 8.042918582269639 2.9160343515412146 5.993568865320222 -0.8992309893645675 0.377061277463641 0.2927676603208829
P 2.48813968290903 6.628782646464382 5.227565714121923 0.682192087335567 -1.4985381669794449 -0.20232087909253546
P 2.9538631678453515 6.975037364120453 12.70272769800551 -0.5182035281643269 -0.13511584200094792 -1.0947165907028245
P 6.326862516337472 7.138952887399261 10.198959208360499 0.4226633915734721 0.865053057931278 0.6210018889794917
P 8.426749737173706 4.895415246755277 2.355701436354754 1.428084798153889 1.3796051053859466 -2.213167291797795
