# total energy = -381174.2697734339 ev
CRYSTAL
PRIMVEC
9.18838953792446 0.00000000000000 0.00000000000000
0.00000000000000 9.18838953792446 0.00000000000000
0.00000000000000 0.00000000000000 13.44813686539671
PRIMCOORD
 96 1
Ni 2.224417244155272 1.335991851378316 9.047180614910342 0.2450731824583973 0.31610093573018466 -0.10540237409691523
Ni 6.146141384886588 8.973280234839741 11.130431116233181 -0.41691440490483683 -0.06683248424351716 0.2454709321174482
Ni 4.867797490011349 8.375272272919142 1.5439398100004171 0.2995229767668454 -0.9129604231355181 -0.6189514342083662
Ni 3.6374721193128856 3.69193170461632 7.008147400976693 0.049828750596669025 0.4555218328643897 -1.7951318859146372
Ni 2.0065329609934146 1.9842878697128998 6.74048869238085 0.8523926888547901 -2.44836306724148 -0.1827594120208401
Ni 4.483217442284806 3.23855818377238 0.5949362832691828 0.4907626583445548 -0.679638724786094 0.16888702491412205
Ni 6.344151181291007 6.495015350532964 11.68680740360488 0.5493151619674669 -0.46036810521309746 -0.8317752697147546
Ni 0.46987127441443355 6.06969398321212 0.28853105446648186 0.6344999234659267 0.08706063836493393 0.15334624896604557
Ni 7.944180596914216 2.4110610025943897 6.169884183675868 -0.7660545304781775 -0.08449210630680933 -0.11431561742614506
Ni 6.19362698246515 4.426497513133785 12.856378223268276 0.5635577879294101 0.3846624868496666 0.41074041488364105
Ni 7.336221609030463 0.4745095734967979 4.744744738484329 -0.8391383949480451 -1.365785425894035 -0.3380720406846371
Ni 1.3568127422670593 8.894581677707311 13.049668862761637 -1.0164457827153783 1.6319545097907828 -1.5145731089551207
Ni 6.071182502331262 5.378524938890388 3.2777282887409203 0.0576562170608878 -0.43333449813407304 -0.11736340311353334
Ni 9.050490272853027 1.4120809058574346 8.147513227428012 0.005211111887294251 0.0881988657344352 -0.537618442355829
Ni 9.380886386964868 3.6340999803207548 0.6869938400764332 -1.6588287084738076 0.8337377927577642 0.31212601024283665
Ni 7.1184475865440975 4.879420802886133 9.537109225035739 -0.6500777232995256 1.4090452650239345 0.47186942098447765
Ni 4.380270724933755 0.5576700126308046 9.495608944458466 0.6456986203952235 -2.1775544276901915 0.0501496242711975
Ni 2.723539756938776 7.063170234564097 12.902169481800112 0.8442404920613009 -1.5650708605943562 0.30725685507599343
Ni 0.663042464842679 5.96163852122994 9.079563256463386 -1.179996997238884 0.6945752914912683 -0.5649700948959044
Ni 0.6374537185778683 8.817904566292235 9.659084178459823 -0.5244006581139743 -0.46687325332146695 -0.3802841552763128
Ni 3.75100386151117 7.666112361712964 5.788185614935517 -1.1030683051016295 1.701629862799734 -1.22159410395438
Ni -0.13218049777983426 3.535756646171497 9.822358186728406 2.144231645168346 0.3748722402321221 0.21329717559838104
Ni 2.645052532767706 4.698152252377251 1.1285970338115998 -0.8078532116815185 0.668939593201035 0.7555178926129117
Ni 8.079534764470294 8.263826295165583 7.574192630750078 0.3460100645847912 0.9250104123215165 0.028286505649519025
P 2.8177391273674592 2.4522893068387814 1.9156202775333566 1.2778233587607541 -0.9153512919651978 0.979564593418313
Ni 3.412301443178931 0.34166107979127447 3.2020821146416942 -0.40954536613427533 0.43804553045649713 -0.675473794775127
P 7.618314358887172 0.8605321983943619 2.2189832305314403 0.10960844175846284 -0.38129228482585303 0.46951506181968816
Ni 2.02684849045282 2.4791194045418394 13.361557722492142 0.058381268152370415 -0.018402670876903792 -1.3323011780936604
P 4.958725793733768 7.419560302923181 13.031029295569713 -0.22431769507860075 0.2949425564850146 -0.25949347164878533
P 1.9104040287436215 6.462387378976951 2.264531915577194 -0.6244723640265956 -0.3841652354982739 0.100281250820266
P 9.129969843103526 0.5187424811483468 5.883129244923771 0.09176344315724196 0.026538926830793005 1.2879131388965885
Ni 2.7208843123373434 8.695303883534732 11.250227502477337 0.48024736063552775 0.7666026896721636 -1.7026169093033516
Ni 1.2569808889986591 8.11324696600198 7.002175866559837 0.616591418616622 0.8604255864615955 -0.2343768790868157
Ni 7.718706703922657 7.332665702245844 9.971860636628037 0.8881816735289414 0.4006717177937293 -0.552186569977991
Ni 8.170885734115434 1.1388273868193346 11.291768211968956 -1.8984987176387627 -1.1263409024763247 -2.9820796034397414
Ni 3.6537723225064562 4.787288820122925 12.468238593401265 0.3985274177572169 -0.04364344772156355 0.6213407603761493
Ni 8.983424216985007 1.4400779290427834 13.149776367718768 0.08821352102245453 -0.029704469042968196 1.9255798901262708
Ni 4.030046066012601 1.6284307279520276 11.362761385562417 -0.8912806241692393 0.3310781258653072 0.7929652388260924
Ni 3.963889660717389 6.839478889159661 3.1360515902843358 -0.7667109331152537 0.3482641507262905 0.15384864252376085
Ni 1.1762792629281242 3.526632575274532 2.7575946854034488 -0.1357241650089082 -0.04728670090110566 0.09822308273965664
Ni 7.0687751522349425 2.5614014336277595 9.696295318760454 -1.845041369150571 -1.0091410215238492 0.05063453432741601
Ni 8.840655019002089 6.274448057600802 2.6397352116921033 1.9282083288880534 -1.1033182163289061 -1.1586411572709272
Ni 1.2202732724494405 1.4272417487375875 11.157462439669011 0.6907528324213845 0.48998155720415615 0.6222280480771091
Ni 6.042790378392066 2.0145360483562107 12.283501425809197 0.00830980541727601 -0.09106795975211412 -0.21239548971971808
Ni 6.812051546131022 9.192708167458486 0.26788290530267617 -0.5346315918133632 0.8974612990586545 0.006892870465091355
Ni 4.182334435646331 6.869754632971845 10.812114059121493 1.5018245510402006 0.7123696393602118 -0.5282112901093161
Ni 4.576130438166081 2.6687126360503686 8.850111709603455 -0.9925023845259036 0.6506816754321116 1.1528638884675178
Ni 9.128564019491003 8.727968608649244 3.4071531884724164 -0.0007453628064567808 0.26046714841596436 0.5880125785376646
Ni 8.215329974728343 4.267106518320445 3.605888867657159 -0.0018969599123967332 -0.11360676428457854 0.26536072906283975
Ni 4.542712265102375 3.4221697736354675 3.2115902602249564 -0.9918506098745176 0.35626490954358 0.03327290312051689
Ni 6.214126279717042 3.6153372887078628 7.614778666559729 -0.21652673827927224 0.5245621233925031 -0.5685634686741176
Ni 1.7781922904390646 0.17660084857971964 4.904912152220926 0.4413308860759883 -0.4263704081114141 -0.013285404254996476
Ni 2.059402954891839 5.771420479226955 6.303021192815597 1.212992478328298 0.031111376692823833 1.5307409769642346
Ni 7.004024570552253 7.4490734103965455 2.7020131977268838 -1.5796842396321567 2.782277891224634 -1.1984608603710263
Ni 5.025249734613954 3.919978346702691 10.855443748072968 0.6986417482511581 -0.5304023842233639 -0.2518290131249921
Ni 4.927329066387415 1.014912764345552 4.8647157041313465 -0.5007758196061827 -1.1490362871913113 0.4340508074748073
P 7.442531276984019 0.4391857284250042 9.268711769914098 -0.615268071819508 -1.3940675606681798 0.47645832590674075
Ni 6.602344929734822 2.606874773878594 4.097324373680944 0.6608318764922361 0.3288433229975175 -1.2577294162243564
P 0.9341651963268957 7.271452650568524 11.09978324264121 0.8160735427087816 -0.12514844637559092 -0.19705448848727355
Ni 2.8017697062003646 5.101761455015792 8.64127523370468 -1.0598326343414457 -1.0970496097113753 -0.9072314910715409
P 9.207501474753666 6.4054561168645705 6.77757854593844 -1.2377408889175716 -0.6685007058914035 -0.1956043863043083
P 3.7608538151884567 9.384561742814602 7.4726324413933405 -0.43202914905908824 -0.42743561615113485 -0.7804899891772171
P 1.1946560421767942 4.147666641593714 12.282883047187479 -0.20576641443897464 0.9184741538648955 -0.909199413431189
Ni 0.8543291165589734 6.825586044047666 4.618251853881959 1.5622799281127804 0.27217672354340866 -0.0485946210792518
Ni 6.559425961799553 4.884410098452147 5.617435014029612 0.8960726462412439 -1.5890384271535472 -0.9045804266019388
Ni 0.8167660609357292 3.727049729760528 5.898528067095194 0.430802989961471 0.4579571817787597 -1.3801550643521456
Ni 5.906719516445289 8.324239956945586 6.618823387687105 -0.513541089691651 -1.2154504529504875 -2.019302771002729
Ni 4.988091886973144 5.710786296095968 1.0842235437987986 -1.2800249943977633 -0.04685681245253866 0.09883989038804913
Ni 8.775242873266448 5.60042454831808 11.46869249186345 -0.13812146159649116 0.05105310992207336 -0.18682946832515568
Ni 2.602335709404173 3.319131172388174 10.679057907810458 -0.33779641842574726 -0.23921852344983321 -0.29817700426191224
Ni 0.09014820944331359 2.0943372122435604 4.176789242508044 -0.28901436392603774 -0.7993125212003589 -0.19849096382348397
Ni 8.023062921839132 3.403085488385723 11.934697291923964 0.5290756949921404 -0.28834202044936147 -0.0015274923881199501
Ni 6.048698512920514 1.1152683558225396 7.623788801425351 0.20709156100830142 1.0622224747298608 0.31559494262804355
Ni 2.591328018634219 2.4297777522591604 4.534294781367522 0.7554762407416988 -0.07108560309291628 -0.7434041400685132
Ni 7.013506988644567 6.822333354120652 0.4858342637087908 0.9487630346564241 -1.3865231726620186 -0.3517130285068394
Ni 8.432956982980718 4.34539159791978 7.373909626752598 0.24819784413030804 0.9875033886494156 1.4367504442486867
Ni 7.79094582314918 6.743515347923106 4.6740878599511175 -0.9120415108656744 0.07510706554748356 2.4274653978568645
Ni 3.6238273607207487 0.9554730718657286 0.21524170230589823 1.0959808021272286 -1.2797632560959442 0.10286469527672605
Ni 5.267584322566167 1.4000900573976776 2.0280328738753965 0.9851377166307161 0.4238581832125216 0.5346094803261761
Ni 2.845028644551734 7.664945436230673 8.699491951525504 0.6933771574181091 0.14423580202434516 0.4103439507761707
Ni 4.4659432697910555 5.397811368711867 4.93248099644978 -1.2414376210428684 -0.27328641166781964 1.0305547113129347
Ni 8.51619460458757 8.105813558795893 12.266287896686968 -0.9114807532661979 -0.7151664853790587 -0.455968176373189
Ni 6.897062526935368 6.215872073745666 7.393005856908853 0.6292127069250583 0.201772205677917 0.9918621798387435
Ni 4.495833101239017 6.221440237858013 7.305242953412017 0.42322157806978733 -0.8981472693820854 0.34797361606906524
Ni 5.633989735615776 7.815699344797138 8.939662673721186 -0.13165745113870228 -0.5392071269991875 0.06428400679005057
Ni 2.417373426266308 5.586164167621112 10.777592360463903 -2.7934336507311373 1.0624600446619636 1.0949672732610496
Ni 7.146435421339822 2.529591228748312 0.8056940514384056 -0.007735420971044743 0.3837793129137648 0.7562347161742783
Ni 2.41209929062194 8.403048774753508 1.3327584570695126 0.3588668659428013 -1.228436323687194 3.1740443361089334
P 4.819824907782696 5.213988445887421 9.189407697905425 1.6455944691717206 0.5359325700129738 0.2308495826598476
Ni 8.870425401384933 8.248950292363784 1.1817674880507394 0.11475167652229915 0.21425876818070194 -0.41792099179248027
P 5.221421853093507 2.9359293831052806 5.6532743277593305 -0.43285061651911905 1.3468716197086674 0.79382810104702
Ni 0.7467156161177236 1.1299422140526025 1.7083706365227052 0.9066365378000191 0.893349590883126 1.4298897125731116
P 1.1590326556032473 3.2767083774926187 8.1552866050502 0.7507572379994748 1.0277776627884299 0.3718702201810047
P 5.717695965093468 7.755120292003897 4.342739828674197 -1.0418788780765025 0.31186992836797256 1.4130839538696824
P 6.977139342511449 4.585217755504549 1.480115417991861 0.7233166252900188 0.7728707820690625 0.4191420086837749
Ni 2.248803230218257 4.800336333389481 4.259832070254859 0.5577162415469685 1.0970079578401624 -0.9050501671495058
