# total energy = -340873.0705778157 ev
CRYSTAL
PRIMVEC
9.23669244864254 0.00000000000000 0.00000000000000

0.00000000000000 9.23669244864254 0.00000000000000

0.00000000000000 0.00000000000000 13.51883305776686

PRIMCOORD
 96 1
Ni 8.980854484897735 8.906055749917552 2.2979311193753227 0.727961837371514 -0.9013783747248734 -1.0563868418846905
Ni 8.62078050542966 3.234634255081526 0.7777211862768492 -2.9405408607660064 -0.036345371398253536 0.7232670029990059
Ni 9.060290039458069 5.561255464691715 13.386199782727815 0.21026044565458626 -1.9373959089245927 -0.2225572607440683
Ni 2.44957082202328 6.622431343386242 6.376820303362649 -0.4142767101716736 -0.3418898717688305 -1.0455100470711864
Ni 4.541395311060952 5.647895639316822 0.7123992976895617 0.5435260660895155 0.41172669005631024 0.2800430136653628
Ni 5.924894807422614 3.36426199609312 1.0095741729844396 -0.017859396778924078 0.21151874354171957 0.15575254441469305
Ni 8.951638826865837 0.5021555528300989 11.899493180269019 1.045314900341245 0.3336340595179415 0.5011848821191434
Ni 2.426294357198625 2.3864380295325973 3.305597915381075 -0.202969825530444 -0.8541649502638643 0.42384378503481845
Ni 5.299173554796962 0.9573277461454784 0.5799515944910759 -1.624184378927061 0.5615788098261683 1.015658768037709
Ni 2.4592693490335535 4.360734844590539 5.279347918249485 0.057735149927939274 0.6096900635110983 -0.30673209292077497
Ni 3.1364297415832167 0.3837993475429206 6.679628637346638 0.3044093583248693 0.5920618089063738 -1.643895741313059
Ni 4.457757061462833 2.3883962083194334 5.01786639336013 -1.1207875767582631 0.9502774144184215 0.1062886333566105
Ni 3.2019271273259284 2.9763948092213193 11.053498058516803 -1.9554016014733935 -1.220807860607659 1.4967173117206225
Ni 3.5219508085877704 8.359991732469611 4.683059385926914 -1.0191415843799867 -1.2638175313999653 0.9195195644102745
Ni 7.237705896917972 1.1802922637654634 2.1186312176940656 -1.433923516322853 3.028636368153358 0.06203943373024799
Ni 9.210838888734681 3.2743427956693014 8.712969161173882 -0.4828981679948135 -0.045332148277896125 1.0846340096558418
Ni 1.960681930473996 9.12366298595091 11.226525322395512 -0.5751794313287384 -0.7143049087097117 -0.806171195993405
Ni 9.272438390288501 1.3817629981922046 3.756585887043451 -1.784861614336881 0.2156556485282286 -0.05945727482536857
Ni 0.0812440989304388 3.7085227581882543 6.513793062163357 -0.5122817633632532 -0.8167566848187353 -1.5786354866526682
Ni 8.044022959167302 7.124362444591245 9.150790227833264 -0.48911021034279634 1.0319917008697777 0.16278605422270676
Ni 6.123188119666942 8.059365105228315 2.1158186448610867 1.005053995938669 0.12084236280106929 1.3921713720867315
Ni 6.489358316112904 3.0507317095819655 8.352840685220702 0.4518099312304412 -1.162411680056953 -1.1790819416237823
Ni 5.565236479112122 6.077401835486062 8.742074902566333 -0.7073439040108462 0.22956017442446272 0.298702280637763
Ni 7.250055354644386 8.50012159272947 11.027190111249508 -0.9972005613325212 -0.4066305064803255 -0.5340101561792804
P 6.415575617295702 1.38321315889755 10.019820736738739 0.569506035093045 -0.019280188385850664 -0.13412468173227224
P 0.25114474243488233 6.952670806432239 1.727679899232998 0.23565497446829092 -1.6422877733959909 -0.049808695992010994
P 7.372700156208584 3.9955067907684327 12.50037789072522 0.4091992956487662 -0.6340260691533016 -0.07951290792466306
P 0.2734984616897034 7.493747009989183 11.291483285302604 -1.0795146861514053 0.3177716385643882 0.17775321705550035
P 3.149490424623718 4.869510334857078 12.693819168456695 0.20726536758200434 -1.9730105728044085 0.09608443913009904
P 0.4897044914873864 5.614588126555826 5.774272064606876 -0.8908198824827368 1.2824145776758622 -1.690173027113044
P 6.334209594025705 7.935824344502216 7.088424321837369 -1.0759218265938246 0.9767939726517113 0.683405390917378
P 1.0086190989912374 1.9700571732505934 10.34578730588478 0.39821965670881093 0.3072113465500386 0.5143985525959399
Ni 4.036924119448495 7.638255062442253 7.432249112051661 2.428670216798243 -0.2916659426162719 1.2534102200237123
Ni 3.240056193514888 4.462523194736454 2.485694602294211 0.28111284969077394 -0.14032618255729384 0.22578733764559178
Ni 8.371066526646104 0.13195538749405952 5.889249487817524 -0.40417330318908457 -0.07679987986887418 -1.2656995789140268
Ni 7.115984764592848 5.942001161730258 1.5065387046909446 0.5521122650966298 -0.6562254880684764 0.9986959149311251
Ni 1.7664158161120291 4.7670846529362025 10.088780958458736 0.3365147234998463 -0.9731424919420532 -0.086608895539496
Ni 2.607148794209243 1.1359099568279751 9.078382872513043 0.7246374009839713 0.01093464463463278 0.6730389600813893
Ni 7.116788356830843 6.042228510862138 6.848830063237103 0.530448406969951 -0.9435159273248719 0.3489598912417345
Ni 6.787306302560886 2.609984458773199 4.328743560495224 0.6188827857539599 -0.7025156293842675 -0.7202014766998048
Ni 3.679750461391111 7.927141853654923 10.04788642656799 0.6923998811065044 -0.7100829002085642 -0.9483274897809022
Ni 0.8582512888854841 7.62992356590581 4.935834404568761 -0.3898728274060125 0.5052770499106459 -0.6982673956308748
Ni 1.1052626114755117 5.607771447571462 3.3544009032967694 -0.7565527616353293 -0.43153138348706327 0.20896846631604013
Ni 8.648176535060585 5.380419501065878 10.782905460253227 0.5883406513010448 -0.31433767318217476 0.744241548368144
Ni 8.344714243255332 7.545869665150109 -0.09045492858248108 -0.019350122391837643 2.725434399873029 -0.4483181160270988
Ni 0.05217345696907428 7.465685938506126 7.202428197670033 0.5505719171927034 0.36126673363354556 0.12238733869068598
Ni 2.18376652509506 6.425227960844021 11.8498385693149 -2.2610880267384736 1.4914079836925669 -0.7917089978214882
Ni 2.360963231918946 3.188552396744142 7.696420361765198 -0.6198436070053325 0.47545405301194243 -0.36412091525288903
Ni 4.9502852098140675 0.27409145734118867 8.592421088782384 0.5375845037941 0.7499745941971794 0.24352332147277414
Ni 6.136950791329139 8.179322029306809 13.346643647564486 -0.39558119064469943 -0.020034807163688075 -1.1677873425465695
Ni 1.2323687354644348 5.310645526746256 7.774923934063305 -0.33833814986183025 -0.42329254051703874 1.5927575278763473
Ni 7.671978226360832 4.928385012155632 4.918583957859822 0.44838342204739556 0.05325705955192763 -1.5294790795326756
Ni 7.399486564141719 0.3167372661092184 8.11038028097159 -0.11028387055893264 -0.16747420372699542 1.1311858892734519
Ni 6.625747315954516 1.4171302933563341 12.261229764367428 0.21296370351836227 0.5999108726371475 -0.2830280644356158
Ni 2.9307008919643462 0.510120352678631 1.8506609164002181 0.5993089773870904 -0.4929882052409639 -0.6305571367680948
Ni 1.7766223612037926 2.2056113025991517 5.621549821610724 0.1834600376322905 -0.29071309178469934 -1.8357928539691095
P 7.3606462726386725 3.986076127837491 2.5574655495087106 0.3505303210526479 0.06673889608844635 1.0229293335571932
P 4.253958680553627 7.759209549298946 1.3029352179911822 -1.9127863379060286 0.6716122549371917 -0.7008462121016447
P 3.2239104552158806 6.046532809516221 4.112469179173849 1.1244475421083537 0.6497244537251649 -0.18094858406434644
P 5.900897880591481 4.026745284433903 5.710719926281654 -0.5726121848221944 0.32654167144753443 0.8362996399476693
P 3.436225066509347 5.142075890615318 8.067971855198003 -0.43828618571239353 2.317701147246828 -0.5250136091076248
P 1.14186762342 3.277547927928887 1.8474022113247663 1.6332827416839033 0.5131405118191227 0.31604977077727503
P 2.0157695638923476 8.44791580733703 7.9907660381807935 -0.9445633947527797 -0.11377157199721696 -0.17379937461407488
P 4.174052054681367 2.060114924060273 7.386581981202621 1.428626786700288 0.6572937814319906 0.47827866694493115
Ni 4.145381361500521 3.5586943709181202 9.159157747470033 1.7389661373563472 -0.5794878288961053 -0.20596516071334206
Ni 6.3412294802426645 4.232492607437556 10.281870318210123 0.17750870514486203 0.26298477263149544 1.2102244286648576
Ni 0.883439749035022 1.3497116755963494 0.5084577480482984 0.6766043088351444 -0.04719157008413808 0.27104055305643643
Ni 6.066234674385662 7.712822880112668 4.889342437089228 0.06700346260374268 1.7422044417879867 1.5552659586887925
Ni 5.5972970384003675 6.077919090259943 3.524373593001861 -0.7886624976856805 -1.8097298383334706 -1.4990778415329988
Ni 2.065887856804483 5.790445512983056 0.7956606902381373 -0.39359269945976083 -0.0987532442115138 0.6329004401892907
Ni 0.10312397586561507 -0.07593484814424353 9.39825230101196 1.02651447980529 0.3849489077418338 0.7907234939797673
Ni 6.519885584464287 5.949815403492821 12.779190221547315 0.11275701468977356 -0.6345572590664232 -1.38151954879984
Ni 3.1919699729287148 2.8529833621886906 0.09980153761266719 -0.3066588164806783 0.18511402829594573 1.3463126618814039
Ni 8.287169649661045 2.681190120413385 10.918742105889873 -0.796139779899332 0.3764501262422033 -0.06711633403252312
Ni 3.894180275242055 7.983079262773224 12.448222907140929 0.07674897202628071 0.5137714605349022 1.278708589579185
Ni 2.161118155352975 7.578096484901388 2.8560157683005696 0.6834290450664617 1.1128814345373093 -1.3396810154974992
Ni 0.9829410941449903 1.1507071380379346 7.335278620656754 -2.6837611885039587 -0.7504361072146302 1.4593339859761576
Ni 4.799967277847225 5.954655430305566 5.787196044599995 -0.5787110986310807 -0.9774256926984392 0.42210314819462785
Ni 1.5096727144191215 8.157200151030993 0.11863700073585677 0.31950867586015297 0.2930391688147147 0.1489805157981821
Ni 4.085185837190092 5.560922943765648 10.794639754266417 -0.05890551608695662 -0.14073833039404796 -1.7091063736824375
Ni 5.044924360049553 0.33620544266117336 3.703376073188136 0.8999290438728565 2.368913922675217 -1.3863308541455543
Ni 5.0340250630284835 3.978714484002074 12.139411646772201 1.0802906450854814 -1.1996024301746373 1.8062439366673988
Ni 7.98944334383044 7.058911242310488 3.8271135754621572 0.9226969336969916 -0.08087250727635105 -1.3481931667335685
Ni 9.269759749495186 3.5662961687556964 3.8217609122217255 -0.15808916296766967 0.7145838734027113 -0.318928892097283
Ni 1.4892688609279847 7.067981674238191 9.430643533887794 -0.7343754542073416 -0.8204703862248965 1.2484397633923143
Ni 0.7508230143657858 3.5227544008257645 12.577827556421546 1.8275347277253753 -0.28332965483643463 -1.999142236894454
Ni 4.53410756076466 0.7625388349941958 10.997746306915559 -0.12984868006473765 0.4429823056364823 0.36089418078547525
Ni 5.579811979704703 0.6840869881734766 6.1704550456380565 0.7948174615434828 -0.7439898373686542 0.31502955704287683
P 4.58879801641021 2.649499028820769 2.7612620830794397 0.08662432215846372 -0.9393682237050855 -0.5392845172043422
P 8.088987177725405 2.032330953348938 6.991953535500802 -0.1815211687383648 -0.28141958229791536 -0.060547679676069915
P 7.267725147187865 9.260800157876174 3.818475420738341 0.545132491344687 -0.48469948286961034 1.7026009684637515
P 1.5609548305724898 0.34990438114587447 4.477437681939775 2.865050186626859 -0.8696931278064505 0.6811178804347818
P 7.659102277168146 5.106782488990314 8.839884085630318 0.41479118791424696 -1.5245459038971163 -0.708512984618283
P 2.984125920752365 0.9847884326231376 12.631646068305411 0.6170238781683502 0.06740146937310973 1.5207949214951164
P 5.5645806739523795 7.050265698232759 11.118577945763453 0.008394908931914575 1.1930499737681002 -0.3996052242024279
P 7.912529406292778 0.43164633779617395 0.33306034890212766 0.3682915016908109 -0.03079281701114052 -1.3419052768423276
