# total energy = -340857.5833668546 ev
CRYSTAL
PRIMVEC
9.41345683786176 0.00000000000000 0.00000000000000

0.00000000000000 9.41345683786176 0.00000000000000

0.00000000000000 0.00000000000000 13.77754560900614

PRIMCOORD
 96 1
Ni 8.083156351393841 0.4909456516308779 1.519635954522245 0.8587245446100888 -0.6710640957432056 0.7358440683330681
Ni 0.7574716731964176 7.290853947325549 3.8224696178614983 2.1998435781056953 -0.7870555582098768 -0.8244777076120767
Ni 9.134912447062527 2.1801283148384085 6.633584754559054 -1.004582198508573 0.06885414265923624 0.306984061030581
Ni 1.4198128363944587 3.245675124468148 8.529554702220695 0.5094232108685355 -0.07452522490208456 -0.8845461336588831
Ni 7.616738402354719 7.256476003717515 6.950164949056412 -0.5324597809730249 0.9139826937524452 0.8191442112143055
Ni 4.58733744393109 0.9410001890123201 8.751496710501357 -0.2847427331338773 1.1183951652666868 -0.9357941332005819
Ni 5.255674037655955 3.368398358536587 6.125097126500583 -0.2519048606682501 0.7817449446302408 0.8346523341522336
Ni 3.9452361538304297 2.575644108550117 2.53415900518741 -0.19149576345257344 -0.6949270184037323 -4.351824528202157
Ni 5.226511149020223 8.18500053865981 5.32052992979075 -0.10831106310327798 0.7764281604030177 -0.8362631302827791
Ni 0.948433995712009 9.05131153874299 10.935362167621362 0.28732772025223413 -0.1302888529259498 -0.4659342864469653
Ni 9.332397353676148 3.1857961268529498 10.301057102300595 -2.039911448392016 -1.0490967359811803 0.4232537168593033
Ni 0.5245479264127065 0.9084588107925465 13.16168890355647 0.47475676983460174 -0.5480424659026304 0.5609319202707889
Ni 3.142635428210333 3.7783261543468445 12.068523012178106 0.06734979019956787 0.3808302575877699 -0.09706017277980704
Ni 7.599813007336307 3.6993284263187447 5.489925081824313 0.24866372802313305 0.27245594534672435 0.007706367505322212
Ni 7.864622955758433 6.096248647316251 5.076639506034596 -0.1338688569677243 -0.4044656376185227 -1.562329036183161
Ni 8.910599189057093 4.810944692689372 3.2521892364552127 1.183702471114929 0.29220098918413545 1.0133758855408033
Ni 1.1837704114296574 7.871231202311785 13.26845162191094 -0.25124125894232213 1.843272450175606 -0.05957811667394901
Ni 5.344094635769389 0.710774338898396 3.6368033060452167 -0.38598403387456753 -0.6859934633595283 -0.05882221234453095
Ni 6.171509233062754 4.517301326613518 0.0702206210674948 1.6622850424535243 1.7085358458909479 0.44459490153924075
Ni 5.485305898656607 6.189592483246499 6.473696252374821 0.2919387366616843 -1.6173971808018983 0.6863341345283985
Ni 1.3178651011055738 0.301018809344444 5.338812745255022 -0.6531365647305074 -0.7772115755362615 0.1298006004356216
Ni 8.612314988863288 7.616437171742601 9.075751696188098 0.41718668472961706 0.280293182002956 0.618720806254799
Ni 2.817221646012597 0.9074270959460403 3.556094211602018 -0.5925076381945408 -1.0699712654373443 0.5328919834144371
Ni 6.796139147660537 2.462644975179131 7.912099724265311 0.39823019823177225 0.43976996934677165 0.7194329739648965
P 0.8120226543597685 1.922839718262618 3.8626311892222094 -0.3858979019186644 0.420541717244779 0.28398580036319476
P 5.0950239868304585 4.513328847916204 12.085745872425987 1.5564296399795907 -0.6698775316342721 -1.5388294103993239
P 8.25236323429483 1.9366116053104145 11.936286538840697 0.13964946820524338 0.15630738847689854 0.22253437792593286
P 3.343320910077715 7.413323018065013 6.210463057938003 -0.2855122643100502 1.3072023261435035 -0.9635260518982116
P 3.382650331872448 2.465243089208654 7.628792333567778 0.15924153140455802 -1.7677347248486073 -0.7430081901816752
P 5.941293737751122 1.5640646457727485 1.6277890404207735 0.2767648571347233 0.5625293466648958 0.40707530732722796
P 0.35552272322465145 8.424318846531403 1.3172287514374732 -1.1689474242929419 0.529712557245191 1.8070970286963137
P 5.915246703259493 4.846753481704968 4.4494030052963245 0.13037729887469804 1.9895551074266509 1.2182501271828117
Ni 2.944962252464137 1.434723751694329 13.108177168004929 -1.2111243147713078 0.7762255574739083 0.5668341446878368
Ni 1.6557799537062305 6.165164563295007 5.993990267958618 -2.4361539267697983 1.895070408683504 0.8535059765236268
Ni 0.9780581437225467 3.099126431672454 12.63556610584978 -0.8828957425396535 0.2648115414275891 0.44411796190282227
Ni 3.5327667247304215 2.936235978169327 4.584698852038064 2.1452104641418472 0.5144916265303785 1.0208991905010418
Ni 4.305733888883352 4.902942404321714 2.746112394639353 1.7794376151078322 0.013167133509577324 0.4279362099366372
Ni 8.361691119580621 2.7214962055552867 0.3793688915564893 -1.439820084312946 -2.1682323789583173 0.035401262317429356
Ni 1.8239325294648048 2.5135341217139153 5.854340697526102 0.33421872837681793 -2.5181636329743857 4.230641751342533
Ni 3.3778212286219222 4.501947978852098 7.206634574905505 -0.940511079060277 0.04710646656949952 0.32798586009322866
Ni 1.5568445245385312 4.028178120185958 4.481587613509871 -1.6135945192263563 2.1978072644019573 -2.248310415357831
Ni 3.5313641196927446 5.518874284994572 5.251214883250936 3.193817919191435 -1.1299134503189314 -3.12873789886265
Ni 6.728418740673627 0.7589797089483362 13.461295694406608 -1.694978161811171 2.129146211590133 -0.8134219640185475
Ni 6.479856418392647 3.061670287746833 10.90656640379415 -0.260954372465028 -1.2648251467288734 0.9089212200691379
Ni 5.4215014896272375 7.995112291545555 11.703955839824594 2.9253081029766523 1.4306705566031943 0.1569355089792007
Ni 7.5269716799433795 1.0743013242944361 9.843987657039442 0.35225707393576755 -0.3843673242067509 0.20314337499383078
Ni 0.38596395927056065 4.457262300235632 6.5117228517721415 -1.5228124661457774 -0.20315365940647592 1.187527244177658
Ni 1.26762548307817 3.8266360137653637 1.9459958802235715 0.5623413990238058 1.8848839550688052 -0.15405895876235404
Ni 8.189048325010154 4.59032150968239 12.3675376966063 0.05721090199335308 -0.7961318094795321 -0.3759289636314106
Ni 7.021478472438499 5.181448932138608 10.345256105209359 3.779608036156484 -3.833161029682276 2.3133181876877837
Ni 4.643695808767153 9.449510167593878 0.4584616954965394 -0.5119765734180085 0.28473579115534187 0.3856701021785745
Ni 8.275642712537621 9.000375324925061 12.495255710761931 -0.10207459527526291 -1.3474166935788603 -1.2397499489278005
Ni 6.608896081858948 1.5312681628783371 5.802592102401118 0.35633252955672184 -2.0667041431048276 -0.47093611053693085
Ni 1.0107134247675276 1.6344867148120978 1.7564719338808463 -0.4016569645251341 -1.6813279180175884 -0.5422320298684403
Ni 5.724708927637857 8.493639541145193 9.484159218752819 1.8242056633521422 0.4858940173983439 -0.17780566755999058
Ni 1.6166576279573286 7.197641899788103 9.121575461710977 0.9895127057699603 0.6332097438995934 0.2991303693141171
P 9.633166706419932 0.874483763128221 9.204475067511675 -0.29708737074215935 0.4758021803799805 -0.47887362021645274
P 2.998873118576736 0.35329361669497383 10.096226875479594 -0.4107576412748216 -0.2676803783349519 -1.9300068155493728
P 9.249690723736338 8.123860137856365 5.423130958969667 -1.4142712893095644 0.08319164232783093 1.7329811234175059
P 5.230088262539132 0.8593431594866104 11.467037022047661 0.5151616560142096 0.3586930593690984 -0.05390112089382974
P 2.4755978915002306 5.587724306776928 3.3974049837922817 -2.1732411450268185 0.8365179266060626 -0.897396764369306
P 5.967378426069267 8.92101988554507 7.242828374297217 0.7043575676890128 0.7590269342074347 0.507626523979429
P 2.167231879257081 6.823334623860868 11.815870542991956 -1.0716869625768706 -0.47641693114584405 -2.157712196153284
P 0.5833330803676494 5.528626626061912 8.508639884283035 -0.8631499273712941 -1.2317291355058528 -0.6620063564163114
Ni 3.7296868239463215 6.965797876479703 10.423649489321894 -0.2977098348175066 0.08242391092387095 -2.908387415961914
Ni 1.825579884374828 0.032533847454470584 7.8484892324424935 0.190319226645969 0.24604865899778913 0.6814140715189619
Ni 2.062243597477124 2.146343418997983 10.722319641237476 -0.41491897174136283 -0.2114660359269132 -0.19973717752575923
Ni 3.7862711117414727 5.235877538365786 0.4315373268471147 0.15713734057736162 -1.1578454008425092 2.4482885052498027
Ni 8.233564561407304 7.130721636614632 2.79150973057695 -1.584547224151413 0.5250807149001343 -1.0191364421736642
Ni 3.3597944591779503 8.929990909712227 11.915661655367204 -0.9037777281949855 -0.8167433150822966 1.4541678683941859
Ni 7.969950121977024 1.931057665899478 3.4428710379632688 1.156801018738395 0.5506289956828839 0.1817386840658096
Ni 5.622384654083823 6.7281363369747655 1.4684662869799257 0.1627631714045713 -0.8345885707938336 1.0272670417005987
Ni 2.511877353347263 9.053674316356794 1.5799677394012843 -0.6138279969388719 0.4207083247296303 -0.5370445721302299
Ni 4.030795061128738 7.810297897554171 8.078395025031043 -0.35285588386203104 0.24829194650601114 0.4928588787519512
Ni 8.037077481196325 6.7619777135549635 0.36573914770378596 0.3275852822207003 -0.4424832545128767 0.3171486602684086
Ni 1.8484545839825837 6.645683870363929 1.48698255616859 -0.2711701366557653 -0.6756342316123913 1.0750553648284713
Ni 1.5009756594471615 5.3796586749126405 13.22224096332062 -0.6149929637812505 -0.5086336250877047 0.2691266238631752
Ni 5.907744178326414 3.024769537762306 3.5804948325292867 0.27352218182770954 -1.309436871900977 0.06742023842618712
Ni 3.4036799939809774 7.553837685161707 3.304337903486918 1.0613729822453721 0.20106618074982788 0.510040018516928
Ni 7.4983735987053715 9.1660239212204 4.300316444593532 0.649190692708882 -0.7049931443904826 0.32910249019617516
Ni 3.6934356024691746 0.5891383590705723 5.969327952937072 0.22067984121569734 0.44518754081791717 0.45773760956878584
Ni 8.975486145598763 6.876897192078205 11.921709801251147 0.029046523743995134 -0.940035167865123 -2.1548855253377663
Ni 5.745832724312672 6.1019908558597615 9.160758974927964 -4.563129613071174 1.9287642013915234 -3.9366163073551492
Ni 8.73342852184822 9.384952682034214 7.190818085077954 -0.0878543379108229 -0.16048748799651716 0.27751767614034784
Ni 1.4050525364006479 4.935390589320863 10.609178364671399 0.8167248031395354 0.8596370291220292 -0.1928121682711518
Ni 4.947035035170573 2.677187065203968 13.549388704229363 -0.20303127489599873 -1.2456197774450162 0.21800537970732778
Ni 7.15220314464134 4.370093691853815 2.110348243541137 -0.6897470168646894 0.19519969466672188 -0.4993511713445141
Ni 4.1609360990205975 6.413717472119359 12.51754771740437 0.40649243824056447 -0.033974300062915685 -0.49379090364791733
P 6.5136224873198145 4.608602442455337 7.81398985524395 0.08918051292141416 -0.47622795506348947 -0.8966064072575267
P 3.592984606784254 5.089215884090547 9.193755964448567 -0.13810706341878798 1.3203722878665582 1.3856091454881814
P 9.114569967287894 4.554861018562055 0.4960919883697914 0.22522580871516693 2.6625426454448142 1.480556899910676
P 3.686290788887987 7.481476444056844 0.5417218366861176 -0.750275927487682 0.4701375258950355 1.4026337050706361
P 7.112440703841686 7.171990230474878 10.579887453025517 1.3611589828656172 2.015276423452155 1.3195068545424695
P 6.140793124083287 7.668277077396884 3.4249045146417205 0.01300386845883567 0.5100960685658441 -0.284917825259161
P 6.2188777468184036 8.02242072922543 13.703959544764041 2.0433225309560936 0.12672350417219466 -0.7609858577060185
P 2.885704542986433 3.3731615675907127 0.5311975921752244 -0.5592061958289337 -1.8862057592040224 -0.23303810567073416
