# total energy = -340866.2861381736 ev
CRYSTAL
PRIMVEC
9.32652191918494 0.00000000000000 0.00000000000000

0.00000000000000 9.32652191918494 0.00000000000000

0.00000000000000 0.00000000000000 13.65030756801111

PRIMCOORD
 96 1
Ni 0.9759645482213877 8.969092187563081 5.48167718324933 -2.629716085833097 1.0165275437959074 0.6728741523687508
Ni 5.152054586201106 7.674794796943732 13.358217704060614 0.7998066872279581 -1.0788713961404515 0.42373785558457344
Ni 7.5196574331664054 3.533940358359874 10.502709993115637 -0.7868133602920836 3.1299092934629322 -0.7462462375029987
Ni 1.3016000571960993 0.9964828962020368 1.8542850763594088 1.1669764166094998 2.0075212049867686 -2.3559601907280268
Ni 0.87400701180118 2.597548242175711 5.0335508674388665 0.11820338251632546 0.3673003414221352 2.0278306059680817
Ni 8.3421074324053 2.1200862846660047 2.1424428900952837 -0.29337932576295284 1.24624378418226 0.16158560615670234
Ni 4.492175188621618 0.23130147148149632 12.254372552049832 -0.9177946112993677 -0.08236554688210977 -0.7792116366854257
Ni 8.195177407820232 1.5790267749380953 10.69621666761678 2.156428958565486 -2.1964929164659077 0.8047144089422206
Ni 3.989484989617523 0.6817025259612693 9.129202452769173 -0.6621616510472532 -0.41168143864067164 0.26503831272641454
Ni 0.45773170062195034 5.45001830496737 13.074932997970143 1.5208039203561807 0.4563872661884786 -0.601383600527932
Ni 4.873807134539884 4.816952657589868 0.03722308119344043 -0.17478462134547962 0.8422885105412526 -1.154349728984425
Ni 4.395431177892858 5.446623451028753 8.692638226045805 1.2948695156097636 -0.1520290728165188 -0.5697127517872123
Ni 8.729465862714529 9.185094432668462 1.748999836957612 -0.6818043649788451 -1.5495743076206538 -1.0871601185118052
Ni 2.4707541781771085 9.114259499526176 10.855761745601223 1.7259064759589116 -0.31851211627483855 1.8009186677997437
Ni 8.883586635614632 5.160933434963641 8.09080989816448 -1.0020272932972032 -0.49456660547167725 0.690583653833372
Ni 6.457282660381057 7.716027349863027 5.480680178067907 0.5223653728515004 2.0908925674255734 0.22159978192680546
Ni 9.207851145883364 8.829800584339903 11.637801791144408 -1.285632827502844 0.24354774695280634 -1.656233436942806
Ni 7.038716683021798 2.0861657248452676 8.511689713161003 -0.42968970229263426 0.6450123929614762 -0.7869182613010641
Ni 6.364735584466519 5.659296127848181 10.686689625588492 -0.07247965522696549 -0.020333569351029496 -0.009360101058661299
Ni 1.5651955430947757 8.561252715360443 3.3105682957207176 -0.6134325612726661 -3.3984813303742176 -1.231077617964783
Ni 6.519108173455476 5.182412414690657 2.4435822895376433 -1.04666472950092 -0.35431164247195107 0.8085330113573623
Ni 4.245302156327171 6.772388526232971 10.879390488605301 -0.7888864407710285 0.7387085343650569 0.9431737134941047
Ni 7.719310285539931 3.532942420526269 13.101032336601529 -0.9289971648834066 -0.5623359997071671 -0.8318984255561802
Ni 3.121586849601491 7.616438749982404 8.891959986895097 1.7179360561589252 -0.4316008032724179 -0.30902628827159034
P 3.6637282358592893 4.159899196118624 1.7462970109372518 -0.4803262935025792 -0.5371232478869653 0.8506116856949674
P 6.095497552873164 3.0221381475480085 3.308820505533639 1.4736406324068168 -0.7162093248212762 0.5347737738181823
P 6.862771849087731 5.999592929107249 4.437961049995839 -0.1043191683350655 -1.4605210643057234 -1.0275825160584882
P 8.7665014808196 7.8887079011638095 7.02810683181144 -0.39173404898446723 0.3800131610031133 0.05978740447127767
P 0.169348185058288 7.0281963664208105 1.4062277768103344 2.4516754194441646 -0.45522821288337084 -0.91130463269965
P 0.09157525234199917 5.220362031933049 10.424958511399513 -0.1211688929025526 -0.08770547103778444 -0.6992976366676021
P 6.55536036372856 4.2081825995258155 8.451587741316958 -0.02711125439449524 1.2942316249154484 -0.043950951659653334
P 2.671750049691186 6.641826547423377 12.529371576164843 0.5288052149395731 -0.5637542202109324 -0.650890191898492
Ni 5.866606054627214 3.1249817035401075 1.2052766726009418 0.8267762738382665 -0.1873020370862 0.3437752617170015
Ni 4.236386001477399 2.440004635771563 13.131104773523713 -0.07967180210003054 -1.1087992940481355 0.25591655293080445
Ni 3.123601378312318 6.1310782335759715 0.9306572379235715 -1.0437246730359895 0.6688660596506223 0.8153047828635571
Ni 2.6276449280546 1.049961172257056 3.792479004133501 0.4518089027891767 1.883851400039233 1.513332294569484
Ni 8.125275126858885 7.21746880002049 13.436311469127146 -0.869082233695329 0.4470970991358042 -0.9570098480462487
Ni 1.1820620271651991 6.780567885859803 7.772498506766678 -0.405004026620496 0.4282668538031786 -0.4814002432930483
Ni 8.046633894962142 5.175622706813424 0.9556336633291072 1.6716729114263273 -0.17216055345907125 1.1203679727223412
Ni 4.2164738774143595 2.6118271470658807 4.724399053110064 -0.04535091733097351 -1.3097351198676863 0.4025517084252616
Ni 7.34035505138096 4.565379058303489 6.093756291251352 1.1221770009066223 0.28416577758448475 0.23270077693597344
Ni 7.626296883534924 0.45469218716427146 6.4798556411163135 0.6662972704821816 -1.421056687662514 0.14465309206742186
Ni 7.8111671988405735 9.239869095254985 3.939000527063317 -0.7430141037189462 0.36253120216826595 0.8947055906903881
Ni 8.734959184060255 1.1261775084833583 13.390514516434337 0.8956072765690513 1.8949698785498976 0.3880177764751447
Ni 6.865345969107122 2.273311711472407 5.341706609238427 -0.08381102107938469 0.704138252589355 -1.3523670956056
Ni 2.777167725702676 4.6612930085912145 5.023094903838364 -0.4520606137886666 -1.7514843244280156 0.3717460358983146
Ni 0.9957554275009047 5.716477033061527 3.0058521751644585 0.8758444921198272 0.8552216736631529 -1.3001137947278383
Ni 1.2085493491038555 8.793744251024815 9.024996291940722 -0.8300122642770609 0.46122171146264435 -1.4637997350569951
Ni 7.84282141386163 7.22172169396557 2.562653993478074 -1.4321515120240949 -2.372599856167237 1.6748942465771024
Ni 1.353110437149338 7.035750849086413 10.775853039390583 -0.06379369741719336 -0.6076470649391406 0.8507739223044446
Ni 5.923553796795324 9.16676781731302 8.028646765000559 0.14760677537910707 -1.1985935292941485 0.4817398860206542
Ni 2.0746754499761044 4.472449594994767 7.387710465868117 -0.07414495874453036 -0.5381612022331764 -0.8893420123856297
Ni 5.084819690477242 1.7145131572630454 6.93836890426589 -0.7718909346542965 -0.5511013073336122 -0.12909611816942929
Ni 6.81662421917489 8.37308081133427 10.63906280931668 -1.0895008508298396 0.984201835080008 0.6531013406171978
Ni 5.3861689366603125 0.7300111109773458 3.1063454476605927 0.8109681031614162 2.1058147359530444 0.6763104317438094
Ni 6.44583901812094 1.6653810403712002 12.200248880685601 -0.5819874553895074 0.9120664505663388 -0.2732018223738134
P 7.3311497743550955 9.130851381825073 12.979421953424582 -2.556820683224952 -1.5171460118886193 -1.2648899385285377
P 3.16838733604099 6.787926511567409 3.098742467081581 -0.2116652964219129 -0.4261639485275628 0.3518778362194778
P 3.1482233958890977 6.367337684051338 6.994799957125761 0.8538908706668714 0.1035025859710411 -0.06163628475455837
P 0.3102243643368825 3.0477767560020106 0.32193194716420465 0.810299873449798 1.064092438059064 0.7497305965071732
P 6.437557066754205 8.578245638097142 1.9858739052202163 -1.2378439901543392 0.6188992408141921 -0.47919860765603917
P 5.548049375705825 7.283873635303318 9.021010136519392 -0.0893517483919558 0.3060306959783762 1.2113351452305332
P 5.890034277412391 1.2430201737113462 10.163159313601323 -0.5827695849711706 -0.8701117034011079 -0.5774584571709023
P 4.633173545335916 3.692491229119436 11.484098846421364 0.015219645163231854 0.780275816283882 -0.8129429674995999
Ni 1.7151193811806555 3.3197474584855153 3.01151710451148 0.46210231429538484 0.24360122589856112 -1.3161142839211526
Ni 2.2711666114562483 5.233810876382183 9.519465161969844 -0.8119438368111241 0.08129802484954386 0.7746849524596658
Ni 4.022239734212087 8.533478333412091 4.090860551076825 -0.4113855046668076 -1.5019682757069164 2.3962113249385895
Ni 8.300511145135438 4.041349777399518 3.902350094308973 -1.028591416938977 -0.33735110335821256 -1.1168483896048573
Ni 2.795055994533078 8.952966631354654 6.670400212290793 1.9793786811142815 -0.4775901255183388 0.8258270225511196
Ni 2.7001213290353383 4.0931679325724675 12.848624946265392 -1.5105472756251792 1.5148371612497846 0.8701680105603402
Ni 3.79236895117615 8.682581437578744 1.875347160561545 -0.6409384800024187 -0.13237144648659138 -2.206121183584291
Ni 4.480974035928546 2.9441964047869695 8.920502874240544 0.207224744152056 1.0335137939412586 0.6869931082686362
Ni 8.3179610674408 0.1972792525730372 8.919451775232625 0.25908775156993447 -0.8853154077247398 -1.1542509986230316
Ni 2.571107552846102 3.245564304013659 10.733373530505373 0.5516317259157855 -1.1940159372257955 -1.018798599218271
Ni 1.3783853112527744 1.4994715439040327 7.349134106360135 0.932927096065432 -0.5795886161400277 0.31803183420431036
Ni 9.02091034273603 6.954796639780942 4.673496762378797 -1.1440601741329586 -0.09795800200372806 1.251289574136284
Ni 1.4194033541704538 1.5729645357619944 12.360680910894116 1.4969301990623767 -0.6653832433083444 0.5667238443622176
Ni 2.0145007312619456 6.834344610612723 5.127369148276022 0.7420481402612511 0.7752955894604712 0.04618524030681078
Ni 5.779822769190877 0.9095531843732927 0.6459418433875406 0.2124466546726277 -1.9238968459968928 0.5887078048324764
Ni 5.156708520583989 4.096189725638708 6.697850963932359 -0.9233556503269129 0.13094268445986482 0.1274567827937934
Ni 4.794764862205338 4.594132725041827 3.862463358486772 -0.7561745523603042 0.528588728053393 -1.706152690370752
Ni 4.663811169479749 6.143053487579223 5.400607325073424 -0.32997229439563813 1.602944495711678 1.0445551393570849
Ni 0.3575144931713741 3.462545833909024 11.735209850226 -0.2999448947956124 0.6452872438894177 -0.84627809131662
Ni 0.7615412832583371 3.2754371533691224 9.021624754306629 -0.6864151242779791 -0.9086558822228932 0.9292468190003673
Ni 1.2376667501927585 8.163653764104508 13.24479787233667 1.223689810141144 -0.31621972069623605 1.779169706158426
Ni 8.540743693901602 7.25392617377338 9.586201088776905 0.5179016806531919 -1.4313459854036639 -0.48225127843943394
Ni 6.922927914758271 6.577762669114705 7.418600838752984 -0.08503358063257614 -0.29858658099550517 1.098921115702475
Ni 3.6718236567898366 1.9861107988741749 1.804092533937836 -0.2684637934681957 -0.31301278372316416 -0.20920809313067196
P 0.581835995730726 4.8446710804073625 4.909169574632352 0.9587947078608133 0.33848778806581703 1.3704517210214529
P 5.354533374682876 0.2781551190953087 5.373579997522004 0.7632579415696468 0.5110265507999134 0.427260009805219
P 8.774503636532053 2.228059427653266 7.066846405451087 -0.7301848131647618 0.8811839020548695 -0.42431403980301763
P 1.1275764867547662 1.2394947484673982 10.200724678145168 -1.1136311682191402 1.9337050903365667 -0.6759301655862553
P 2.7434523493617453 0.5378689066169186 0.08400118398059679 1.6005199454305854 -0.19650504374170674 0.2932155464915789
P 3.109210555160436 2.6859916484941184 6.683955379088555 0.4622959183634296 0.057147138634953194 -0.2852325282861023
P 0.2561892949298428 1.054792310554318 3.7808488314371966 0.03386965616425135 -0.10197792179639856 -0.6079188305432885
P 6.696470638704569 5.56438944191587 12.987475405006988 0.39352327967440615 0.6638459807282115 -1.2502575333273436
