# total energy = -381173.58091806766 ev
CRYSTAL
PRIMVEC
9.24747631389484 0.00000000000000 0.00000000000000
0.00000000000000 9.24747631389484 0.00000000000000
0.00000000000000 0.00000000000000 13.53461633461699
PRIMCOORD
 96 1
Ni 2.169864874238835 6.46076794683312 6.5791902060556655 -1.428536540979327 -0.655575256078987 2.137721354853654
Ni 7.5868239119171985 3.50451616657699 10.38639754744662 -1.3704818029284396 2.7859571398484344 0.2502696390576722
Ni 2.1411329647748807 6.142386578653372 2.102291714008708 -0.6011408883895067 -0.4722525153555093 1.7889530107974352
Ni 6.849753798037423 6.465456417415104 7.173779825868538 -0.8511909552372051 0.0757891792161727 0.1307789051884909
Ni 8.667576489661752 7.7743164978141 1.4340736863580492 -1.1314270587499804 0.15694965004658776 -0.7645504351288253
Ni 0.40279140886079984 2.8524488566214705 8.006253380484322 1.3598451491502 0.38783034305468694 -0.561458225087904
Ni 3.6422758238941855 0.15616583452899244 4.164506714391768 -0.9563593589464433 0.041164904274083945 -1.5322301599152515
Ni 6.157820616920298 0.07367926895849848 8.007038491238584 0.3625929086441368 -1.0404830261702402 -0.1361278282052301
Ni 3.0940206850498173 7.082688483421245 4.817944500363561 0.9280674539802856 0.5672617191435586 -2.9163727481602355
Ni 5.256108431557984 3.587789692397044 3.581543946773628 0.9793290803687392 0.48528440883880286 0.32533402429267844
Ni 7.5409749234645815 5.96514944418728 9.727355790720031 -0.5719038459012602 0.22142211869836062 -1.0198704921262112
Ni 4.187137138865598 7.506148926991696 2.1742546513300933 -0.1853675390676485 -0.44847906708499535 1.6568710705268046
Ni 2.9559466135318586 7.009263520066307 9.903441614362734 -1.1120064881315235 1.0864870037041805 0.4708556350079826
Ni 0.4026009108450427 0.5487082651925279 0.0720563368339655 -0.22936477058420496 0.03265301014833086 -0.3063525980941692
Ni 0.5739187356079227 2.1996602434994914 2.9510741181676625 1.8108472397673652 0.28059785772756834 -0.45728380986081896
Ni 1.0020935426945377 9.22307240260019 4.10556329922497 0.8280582258744836 0.6206635318034666 -0.6404970215896258
Ni 1.733874100020281 4.480235906313306 12.28837597414844 0.9828612618917136 1.7167875443767788 1.9673950263898439
Ni 5.60497872973537 1.268957219331419 4.751827817681091 0.4025033716858294 -0.18996261463749867 -0.9093804190937436
Ni 8.2675861414307 7.9691885699524665 3.7777550535081903 -0.7168341028894687 -0.11347383825114007 0.27447811798307564
Ni 3.6038710540184846 4.867131827830176 10.776816757507348 -0.5948236879222272 -0.5137611761222571 -0.08459057955788657
Ni 5.7985099177822415 5.049510559226411 11.392506344434446 1.1003485921776213 0.349630692056514 0.9514809478082195
Ni 3.404634172975391 4.3041824488383265 2.1626287238830115 0.22993555548601044 -1.2487133287686754 -1.1689867621713093
Ni 7.188923493373581 8.633592013549736 5.9532692111366385 -0.7046311330653735 -0.5537657415396527 -0.45251544193789806
Ni 7.167080953896961 7.196682126151264 11.646294089310132 -0.6828088949839596 0.9172598218418203 0.9157508413964616
P 0.666448985397535 1.037067498791311 11.416191905976136 0.8624464735463663 0.4469315200922174 0.09539229815908087
Ni 7.901210370251943 1.2730353564648607 4.600809128568138 2.1327881792180947 -0.1892085100802935 -0.9406548037269928
P 7.550213152481153 8.891735319853655 13.188171157633741 0.9030884154374446 -0.7204261911161012 -0.06104827346157229
Ni 7.135047695324983 5.749137640785766 0.09323120850778663 -0.5440575131129534 -0.5423125053973885 1.0697745760455062
P 2.272983484613007 0.6231587736905481 2.167731481411885 0.06741689599207745 -0.2943967112838736 0.5593537771503915
P 4.459364351868457 1.9558412782833297 13.195114162984735 -0.1553733066984034 -1.7717217345208134 0.4036377424005887
P 0.9745823001276682 6.809120386326893 3.8832983522188442 0.0007888144498825124 -0.029825825112180893 0.33077859234701745
Ni 6.570849907006569 1.5101036638410847 0.3937464521029326 -0.7671423642257175 -0.8012115379952847 1.3042116189462958
Ni 5.234589553758622 2.607695896279509 11.26640405598441 -0.6809258190286337 0.9742578364934189 0.5627967413936694
Ni 1.6378760465457693 1.1760108330996186 9.263863021411101 0.39000266811565737 -0.2636440034820492 0.151629523385255
Ni 4.636083627650936 7.27791195966635 11.588176473794165 -0.30112374559506205 -0.04098235594963264 2.2278400633186215
Ni 9.569011250729272 5.836359839068359 0.5765949553050159 -0.17491163384164715 -2.2242754858958147 0.05434283641693868
Ni 4.222416261686642 5.37658455530964 6.531034896965677 1.8404779181496045 -0.08441857275639655 0.449253997577807
Ni 5.661739740449804 0.25530340627289994 11.901083335890018 -2.70892483225378 -1.0514048152890667 1.3918769807747642
Ni 0.25410400857174936 7.331390116225747 12.359148761245168 0.25966573556059147 0.8181304252378104 -0.611163048512199
Ni 2.4208136438311505 2.2219651568007652 0.5865646597121897 -0.19243190211359762 -0.36214862201786663 -0.26317580559637904
Ni 4.752398386980713 7.890030171171827 6.56338256973842 0.15064787619827602 -0.34202048380942385 -0.17009055830391998
Ni 7.55216437002119 3.7252349355134746 8.100183698214984 -0.9482827525858958 0.4940413290958266 -0.655348999000794
Ni 7.987461583502764 5.721746615413306 2.9112692803509113 -0.3581880947082218 0.6876122299098739 -2.654909811489905
Ni 6.0749632275424315 6.021540555841994 4.325433149819391 -1.2948715724922926 1.7193295940723423 -1.0380445919320769
Ni 8.322664111423398 0.6680756165126652 2.316408709476793 -0.6071156179157028 -0.5896202893444168 -0.715025074705188
Ni 4.328401589773665 2.802281296646591 5.753958350281601 -1.1527474174943115 1.2344593899528222 -1.6060041084736083
Ni 8.56920183472852 5.813962451002155 5.063733178072745 -0.02589178016509734 -0.25586461664694643 1.3957935422203511
Ni 3.258653509055861 3.0021839959971857 8.86831423613967 0.7023932448737903 -0.12493941568857839 0.7223987414614397
Ni 1.1533082783091428 8.093742830837565 8.217664564330535 1.7259041619660662 -0.5735007580747349 -0.6175861784297235
Ni 8.520994739770172 1.7028395689095537 9.661902152102114 1.549131049435648 -1.7934511557781048 -0.9645064135336099
Ni 7.0132214400053385 9.037577271625791 10.142571184249263 0.8018944229949222 -0.7722938265196699 -1.3602321001759736
Ni 4.008873534508776 0.4488641862445502 10.073815271775674 0.46549411358575316 -0.022602825001180427 -1.078304467893388
Ni 8.548801901584818 5.211979473733076 11.846714647344339 0.02044952610360349 1.0955066907042876 -0.6921684818219885
Ni 6.0894725181600515 8.919699688768686 2.517208414047215 0.5589495997334374 1.199781378954663 -0.1727403372219412
Ni 8.84821669547729 0.5347094352773255 7.331728573865393 0.41759317613941627 0.5052899054264524 0.17135939771401457
Ni 1.0564964469032414 4.441581454572292 3.8230824842865996 0.7804596501599139 0.7026084462083899 -0.8055464179252126
P 1.1454386758135444 1.4924039938333578 5.785358156713804 -1.2377185203200685 0.08232029546647114 0.778942185074123
Ni 8.084421374532553 3.6024284476855666 3.6746623360681987 -1.598153502080938 -0.2821986265557849 0.2842269698397234
P 5.311232638933147 3.131001343545586 7.431262862350852 1.9645020211127653 1.6347050759527266 2.942861024258751
Ni 4.283366379252437 1.8597969874263525 2.2902466737302616 0.17627894650281897 -0.8286431518436761 -0.39615197554650483
P 5.496080446553031 8.34291608494321 4.418863179071778 0.039073054742061734 -1.5830971219684475 1.0531619071894895
P 7.119733874252466 3.495009760742119 12.599239143939327 -0.16267652522803597 0.9968575761708057 0.9262591971269531
P 8.22815490166427 7.781649746673101 8.278056134316149 -0.5303429917403383 -0.10364553930680859 0.3350684779716229
Ni 3.652688482425377 -0.14703487623973968 0.5338133548051475 1.0574250533412175 1.6376379333288054 0.9759524505870225
Ni 5.813555562036459 7.821247441016407 0.44208671072278255 0.950266101564512 0.47580269460061286 -0.7824404280353685
Ni 1.6913264606756873 7.689387673701788 0.6444455398299352 1.1849952217844237 1.8253940272332887 -0.543247101396516
Ni 0.5391528477322434 6.346774304103103 9.77262958613478 0.94227279894639 -1.4567698247934073 0.5491110163764608
Ni 5.276739551614013 7.343041936607009 9.561354340193013 1.08235549803431 0.10791665587833672 -2.4954137408723795
Ni 4.271011750657701 6.109567284579482 0.19617319208094122 -1.1147346856959641 0.4957886508042365 -0.4749645149700336
Ni 2.660859638638142 2.2006127335782777 11.260313667966077 0.13028036828551756 0.09959965137220912 0.8496233536397689
Ni 9.569843523613647 7.8264260278525235 6.007326259724502 -0.3813295658216917 -0.2610227638091182 -0.5271306554506276
Ni 9.248586190244556 3.4778926817534552 5.717144146362708 -0.22032708586196892 -0.6416496471368305 0.7595969477782918
Ni 6.558643238035724 4.44935858230296 5.779700550595346 0.4467615701732564 -1.887022855788679 1.0382243120430508
Ni 2.8083106513200695 8.97784782095708 12.043021003086782 -1.5823137068352038 -0.19017704464114987 -1.3199400854251462
Ni -0.2673750620869475 5.584911705745418 7.582281551463805 1.3275464370174943 -0.1259837977926927 -0.3551104842241626
Ni 4.136923341508253 1.3031543874027745 7.562913636696729 -0.46202158165612045 -1.5097782586696384 0.15175242211636444
Ni 6.21077166731959 1.9839258643927693 9.38428088606085 -1.1551987072482812 -0.1674731752857309 -1.9428880423874153
Ni 1.3172752840076853 3.85919387999202 10.168273620414089 -0.3758883402014623 0.2936840014875652 -2.2365414477473613
Ni 7.465062388933007 1.4796609712259137 11.751160472741496 1.8519270405268105 0.2204885511404977 0.15322823533094254
Ni 0.0020529397814605162 3.1406557090043465 11.880009261709972 0.7385565821682248 -3.2462028605510547 1.8537895476568462
Ni 2.7037216921835 5.195121324086218 8.572988676352432 -0.27573358765673156 0.7976122506798006 0.17751873244719105
Ni 7.040880642196097 1.8618406797313198 6.581396653946911 -0.6161453322181389 0.9779486550814448 1.4445154329060863
Ni 2.499953547658804 2.3541855756986143 4.437270281031225 0.17140850578439512 0.36377458765706383 -0.6621577943925112
Ni 5.513696889272321 4.962972674204305 8.965357254457897 -0.8457985805770402 -1.1077734238867825 -0.6744805776239222
Ni 4.020553097319518 4.000069936887378 13.152615535265554 -1.4623699445890042 -0.6213466739134201 -1.5746446203257205
Ni 5.752328020175874 3.6636652370226455 1.0315245613813675 1.053013040316451 0.49333530416773747 0.8805601524279416
Ni 2.544507889402393 9.044531373948574 6.161756342915746 -0.4607694544165742 0.2696421300470131 1.5987512835659368
Ni 8.459249339225973 2.8054716760366984 1.122589086146829 0.030275253944773668 1.2165858521065112 -0.6605889072434946
P 5.625896521562684 5.833835277985751 1.813002906876143 1.2628945053650638 -0.3947481532204427 1.490569804061988
Ni 3.415925341773424 4.8158823131056065 4.387625203478203 -0.44711278286508804 -0.10425823319014302 0.9562482872898757
P 6.691057853939927 2.07005686044918 2.806321519126411 -0.33413413908281164 -0.047589576853505136 -0.5393577936444388
Ni 0.29004987444794383 8.532387630809628 10.263516155059119 -0.9641654852544234 0.9309260064750031 0.5924783276185023
P 1.241843618253751 3.912209662726764 1.2129489532035187 -0.20813491467115125 0.7338872017170135 0.7791471019960775
P 3.4878707088894725 8.390633063647428 8.29515009461358 0.09871313500219774 0.764454018760277 0.005022907135888124
P 2.621752060548968 6.69106710141642 12.320425878178106 -0.7314066013870049 -0.25089056047112274 -0.3737311846491434
Ni 2.3027233690147053 4.012480050341072 6.743081382446965 -0.9071836685527409 -1.12504018138703 -1.4213819322124166
