# total energy = -381169.1914093274 ev
CRYSTAL
PRIMVEC
9.30435987827787 0.00000000000000 0.00000000000000

0.00000000000000 9.30435987827787 0.00000000000000

0.00000000000000 0.00000000000000 13.61787118096658

PRIMCOORD
 96 1
Ni 7.162663704787153 3.5414347572800207 6.985191414230839 -0.027858931193797183 0.8773275044232568 -0.16439582191198782
Ni 3.4089034553216515 3.2728178878937437 12.611361043512566 0.18004304153094153 -0.41832285521658924 -0.44747685107272606
Ni 6.580313125015151 3.7912661240930077 10.283439978515528 1.953538837233042 0.5109872129215458 -0.3042471217153921
Ni 7.9236300809432345 7.427530917146667 13.108304112749153 0.3990256975498741 0.0829324751291733 -0.015421733871708924
Ni 4.902960345469585 8.466195217920095 7.667936967413471 -0.9153350940152817 -0.10990463284264297 -0.5117230626463057
Ni 4.659921161360166 5.3446755258382765 12.83996358285095 -0.719144239079884 0.5329007251651855 -0.34592084730509454
Ni 5.630849722295282 6.944029856611236 0.7021386304552958 0.08904141624038858 1.1097212916417725 0.9096971790032139
Ni 0.7573534932193756 8.000781832967862 3.0304662959785618 0.3555226320609167 -0.25367223698131797 0.4412987472864723
Ni 6.572553288885323 9.288216803529338 3.8654460635758285 -0.6223630309930765 -0.43593774008487507 -0.7549031418470483
Ni 2.2005462392774593 1.3234893650495883 13.689500951897536 -1.0538651039041012 -1.0343326902981282 -1.1212817427858623
Ni 6.515843215490471 6.430196582906451 11.279682911343238 -1.070372357530505 -2.329249771316376 0.1777231351485133
Ni 2.9840477750335945 3.390825084098321 8.067512701940442 -0.4427048836053796 1.3290237928939692 -1.0074762322269164
Ni 6.187390007793728 2.3224984840660268 1.9249678478380194 -1.1744189889304741 -1.252279705963695 -0.16560706861126964
Ni 3.5890079492845945 -0.07584914164312197 11.550624009824519 -0.3127932115131903 1.4491763287168655 -1.1208598247570956
Ni 4.463710820465887 4.498685909209324 10.460172572462344 -1.3503212688201647 0.636172426072343 0.08188860724569123
Ni 5.488948929949936 -0.13563244510234077 1.4981563911057305 1.1256742154266033 0.5988600627751298 -1.7928186644004285
Ni 1.1466972231996175 3.8537914224052967 12.08097159185884 0.7881919858071651 -1.0973141762266714 2.1470763137059925
Ni 6.660702794273808 3.6571809940366986 4.293851357153489 0.2964404811867798 -0.12637974767953072 0.08434298232345473
Ni 3.805492490331027 2.1446456451911153 1.4736719681133512 -0.6184194729642962 -0.6642419306150495 0.6085389806257907
Ni 8.23261856779633 1.731159892661633 3.047556544183921 0.2031588016127985 -0.2313136667804597 -0.38294370438634695
Ni 1.660149018149819 1.6542593583534384 3.2107810684745193 -0.23042380797633868 -0.3415204042445537 -0.04798552674034316
Ni 6.118016700618664 3.263299527748882 12.5842062692381 -0.7511580729823192 -0.10016735095022104 -0.10057435658065259
Ni 2.645517945599916 8.502984656837773 4.512826675336558 0.42752046255545734 0.14076712674945435 -1.5675907988027327
Ni 2.1670040219536792 7.362419006791101 6.763533649097854 1.2120673954108674 0.6735272125717175 0.6874276247028935
P 4.382046453905327 0.5356743280586943 3.0875122567646445 -0.8580514298024642 0.7728849231364495 1.8328749089913658
Ni 6.893302486611444 1.5497713970369196 5.53247844715592 1.2615040527754404 0.18610801677809882 -0.014548073017503979
P 7.699060051171597 6.44756782277982 1.738457302106027 -0.034691894955230576 -0.8490908781750667 0.05993832822684516
Ni 0.4058022121505705 4.5298741234865245 7.50182623069185 1.4906849894836134 1.2950199251446988 -0.2920773191220776
P 2.7207623038516244 2.605174241212701 5.901086480734559 -0.9508885656398591 -0.8066558489393075 -0.2379527693635321
P 4.043814363987421 7.024512569468572 10.809307511273456 0.4054082040374502 -0.3451564583352442 0.3743544200554391
P 9.014473231855847 0.604506121489446 4.682695443008824 0.5384514797800856 -1.173541471421527 0.7965390722202799
Ni 8.48292445696258 4.856596720247839 11.462856913626602 -0.650418651578712 0.9648316580835127 0.09918184710850014
Ni 8.476178796058353 5.208645784569577 5.375518548364378 -0.3049793718957264 -0.20329249897718538 0.20760989540561667
Ni 4.734514214421121 0.546420863706119 5.3897625928861475 -0.8963757793039594 -0.4362583566490874 0.1670728545235187
Ni 4.865556818800626 1.326383020968505 13.195240329610865 0.21236926446747292 -0.9961399812784909 -0.5059861601625285
Ni 6.429135885881509 6.306653292580473 4.5473207286748245 -1.645263053974231 -0.7626012818222545 0.18153788090891315
Ni 1.3622234151796566 1.5756561261894177 8.578863572432473 0.1460214331698582 -0.21836481992927553 -0.2231658408623447
Ni 8.342475144756627 0.72492593820777 9.375345620640315 1.5028663620411538 -0.8155842617771889 -2.065710411732991
Ni 2.736170323792867 6.16811137414744 3.60552225761413 -0.11073767026689961 -0.05286213810635412 1.535458437044562
Ni 3.326587783570339 8.520169809513785 9.309121839280536 -0.7106930229887374 -0.8470589353467024 -0.1334291983271444
Ni -0.10054477360450255 2.7998121452893043 6.115513827814199 0.4953749603055856 -1.424352070584334 -1.0080830125729798
Ni 0.9236707867300642 6.986066954494409 9.391156519363838 -1.0354850587350166 -0.09753325576148364 -0.1838215347367673
Ni 5.545845090542145 5.19843890179449 2.7117538226275233 -0.18356442442063872 -8.664617653533465e-05 -1.4198696093329481
Ni 8.71949711096381 2.994561701684322 8.731602083151948 -1.412629125720451 -0.06378341300454822 0.5314740200209879
Ni 2.0211023548651372 5.825348060973865 11.780493802976912 1.7056631523288428 2.271394293760488 0.1381818825207814
Ni 1.3782362185123127 4.052448809944833 4.219088964742937 4.81438784129436 0.01740199752653132 2.5261430516354366
Ni 3.312398634771791 6.282210739207498 1.3834801557338612 0.7425217374635599 1.191963939792773 -0.5823438102876616
Ni 8.606458442928691 0.231955830634777 6.966058859034476 0.08347497789620463 0.22066801414115542 -0.8649427576056588
Ni 5.584179053197894 6.655343482989897 9.036302190541928 -1.1625728882251656 -0.8156565097760211 1.186225237536783
Ni 0.9514731444513367 5.0848326678074285 2.3444939907937425 -0.8286518935944246 1.8363865216890505 -0.9555738869306706
Ni 2.540806679646568 4.990756285183091 6.22577793573671 0.15250498401167284 0.08716656781517892 -0.4991290280313791
Ni 3.794113258212585 1.1752150861947315 8.209369763794408 0.8804627076181287 0.630753826159933 -0.2175202125407931
Ni 4.096793389075245 2.6450992494058605 3.845536594330496 -0.6126414328299384 -0.3651092473080873 -0.3464497232253711
Ni 5.3627911145010785 3.253399688849436 8.401164255495381 -0.02838215068711886 -1.8017774162556133 1.3071421623295294
Ni 1.1437384367616252 4.7324672552501825 9.929770094704802 0.23411488367468067 -1.921433986278697 -1.1231144251192269
Ni 6.353537961954821 1.0543514515107086 7.7658904767947625 -0.048569938488903446 0.2832460939836928 0.22460771551519382
P 6.720185566909294 5.748345178707124 7.4132152290539155 1.7412829584149816 0.7062010486556547 -0.4448946921678467
Ni 8.379841453986115 2.9820008158626568 12.986451424611174 0.7461781032692246 -0.8463410833440714 1.0261486118254393
P 5.030299814621666 3.8763544950849544 0.8754416373548038 0.048902125017341584 0.37330643840689903 -0.3356192082687704
Ni 6.501663371051791 7.982256852470874 6.243848863472146 0.3575031528260552 -0.09340740651856817 -0.360493860023263
P 4.607072397310493 4.792973507471138 4.750567026501209 0.043065977951538735 1.1433400081374825 -0.3403695784695622
P 1.5939484976897094 6.438765898344786 0.2422725048563047 0.28375285841678227 0.797573169911749 0.1583519297107531
P 0.9904770210175742 6.432662238271444 5.012847626817446 0.3051362091885648 0.6179265924882776 -0.515860481853447
Ni 7.400994882803415 0.5067293949456437 -0.021339549357028982 -0.8581218780290836 0.9691097166335761 -0.02584164365345227
Ni 3.2612990903772836 4.287569983806669 2.262514206433661 -0.07633451019668144 -1.2918708379927555 0.4065040082047902
Ni 6.910003812574325 5.237051995246276 13.713740670225388 -0.390559826170708 -1.349619871877766 -1.1550629530013654
Ni 2.986159864723608 6.14657178105325 8.843227418923131 1.153722122702755 -0.7764816393487725 0.05624673830787087
Ni 9.28288540532503 0.48089211802847176 12.265058351845243 -0.19543546482661178 0.5937381681675323 -0.6820915572019608
Ni 5.850395397738253 9.31412944576144 9.985058461911839 -0.993216894094425 -0.002383669740828153 -1.6640997270647602
Ni 7.890925256007566 8.524273032215527 1.9218769394899031 0.26498791910445335 0.38919302773016845 0.15123717304284276
Ni 1.3985476361039386 9.018194975803008 10.584109437210733 -0.9383153569605388 0.6061913063292206 -0.06493321033827526
Ni 1.494401151463046 3.3668291399990067 0.9648583965572979 -0.6060920617471949 -0.877877977610088 -0.5261032426273778
Ni 9.170274737843837 5.2396199985698155 0.2901490189925717 0.3690227234298806 -0.4230166611478327 -0.6585855036602206
Ni 7.471466104442891 1.7094528210898219 11.010770163313165 -1.737004642754602 0.6236727509434355 2.272535349343467
Ni 5.698445896735576 8.42492107754609 12.067925948888057 0.5982388842513633 0.2842858481021168 1.6821822955980834
Ni 4.099045044163277 7.007001764197184 5.49534195561517 1.625052640464627 -0.6276844432059899 0.5065001236844697
Ni 3.721725338440322 7.970133271562999 13.31300747333085 -0.5998288544463025 -0.9621908780265559 0.2131403383055426
Ni 8.100440831512941 7.69000690902013 4.65106154989395 3.1040234268351057 0.834774975773027 -0.2665146401616249
Ni 0.8323001119553112 8.506194660992199 0.3218368773946792 0.4339567050991042 -0.44247656964465726 1.0157140467556764
Ni 7.291975698231229 8.017846028965591 8.489448674101952 0.9276337088769767 -0.1567699299356139 -1.3322525842439121
Ni 8.307248838296758 5.4903445839301215 9.123701764525062 -1.6602340734617664 0.34739794607125335 -0.44420537941030597
Ni 3.0008421445951545 8.9160517131732 1.658465859449716 -0.8775126238508693 0.09962356263160907 0.8129308833147418
Ni 0.3951142939703136 2.334398760337071 10.70558064659413 0.9019401607656145 -0.9339660788529075 -0.027309486448230388
Ni 9.274325394246564 6.888389784601193 6.935418671553494 -1.9975211563512631 0.5135883979898186 0.7828219797445034
Ni 4.885933366911328 2.9930264823061186 5.966370521747682 0.2976918370953776 -0.21560114114120932 1.703713227691324
Ni 4.684884758885742 7.619526383020786 3.029840112559452 0.0721423264922048 -0.6980473092002687 1.1222284229698478
Ni 1.7753090802348193 0.3901197135932248 6.179312892992404 -0.45420028583948874 2.0760699005904435 0.9958887844996334
Ni 5.0366546924114415 1.9939708414903403 10.738889324485227 -1.5107781606890625 0.6485826268112379 0.13154457970992184
P 8.88326314899872 3.629202783913923 3.8898085994539384 -4.34653654033034 -0.8095460260029089 -1.2860161789841915
Ni 7.7446979363236474 3.906612273375366 1.907414242511239 1.5011604350936405 1.0568208440983156 0.6622506112166336
P 0.9020790892206152 8.764874474039559 8.26659250741798 0.21960049210858953 0.4876683356899473 -0.8718428271596018
Ni 4.725544811508465 5.031472163965022 7.337022756531669 -0.6372178366177219 1.7379600646893358 -0.9476505183185358
P 0.2781287164792315 7.255353737791175 11.498399568321982 -0.3053606664945451 0.5101392630989537 0.2542005986809622
P 2.766474623882618 2.9952223112349428 10.103970041895575 -0.35617055005756076 -0.3821168376096774 1.4704187830354096
P -0.10847953169984778 1.4284518487193696 1.0105111686851367 0.6492840237536366 0.20637756566041235 -0.8342183319386084
Ni 7.708429541558572 8.23022734731028 10.682947791215463 1.9639019256349206 -0.0423884922685399 1.5780163650114305
