# total energy = -381170.26762091985 ev
CRYSTAL
PRIMVEC
9.27468932430818 0.00000000000000 0.00000000000000

0.00000000000000 9.27468932430818 0.00000000000000

0.00000000000000 0.00000000000000 13.57444532608370

PRIMCOORD
 96 1
Ni 3.3190403597794385 5.489846343932168 0.7738977080329735 0.4672848869375888 -0.008716039716759182 0.2779876737982309
Ni 3.7470023541943007 3.162242460258868 8.604691431322829 0.2860689081444686 -0.77411750999197 0.34563108397881764
Ni 5.730014426748042 7.219984009149559 10.292144193371906 0.45537065199850607 -0.19180712404540515 -1.334998265309849
Ni 6.721617847263938 5.110539370272358 1.1799501036049727 0.7441682719280474 -0.2731221181758135 -3.2404615871919034
Ni 0.026636908045846272 8.559805644352537 2.788177541065462 -1.1942020850946724 -0.7655922461297782 0.26672392795895355
Ni 2.6242640998134252 3.163169929201969 0.9698496364554741 -0.7903162312390195 -0.05981028728941313 1.032510292377409
Ni 2.5510311520662095 7.031309002054624 7.040372228566603 -0.5960999835314895 1.5795873090429764 -0.6398470467104529
Ni 5.0909512261940755 0.9807520338816205 12.31604002440646 -0.11886338469782756 1.377030916900867 0.6755879517554881
Ni 6.507762058363825 5.218784270621618 5.144769466555368 2.744718702023938 -1.1112238443292282 1.5750287431380166
Ni 0.9692885177448983 5.388956272301696 0.33966973343852425 -0.8883385108217797 -0.5673259967225908 -0.6958834687797306
Ni 7.7186933345441275 1.5577861115210256 10.68285810756291 -1.8926057491930952 0.47541137269946515 -0.28086550956665823
Ni 1.3268370699995709 3.1069282124923547 8.387622890003817 -0.5369491842029461 -0.19030997067458835 -1.9938264811084954
Ni 7.7417131137118815 9.072139488521252 4.905736605725849 -0.34582725915002377 0.593691631200313 -1.781751093732357
Ni 1.3591129892194682 6.074411469389549 4.392310203142163 -0.22933134624310827 0.7404273168283764 0.5092054384307746
Ni 0.06727024991202214 1.1898035336564725 8.862402589197448 -1.7623063547441842 -2.1871112181406915 -1.3081736889178375
Ni 8.369767257911246 7.369668221876548 11.547197022113384 -0.8397012094300507 0.36388874463742493 -0.4789710650262655
Ni 3.08695053145797 2.2450313236690627 11.013666802719051 1.7242887378498304 0.29408586491167416 0.8080396166607117
Ni 7.387568372478388 3.9454343345706517 3.089489941424179 -0.12011422638579314 -1.8939280675489447 -0.10720960250898309
Ni 3.852826560602067 8.4859976658606 11.246998511955331 -0.7717407822296773 0.353023776898463 -0.9404228902218449
Ni 2.0412200234227287 4.659464849795431 6.446897836441798 -0.6343677687634365 -0.9185543722835278 -0.7033746349504532
Ni 5.478076763044222 0.804210175500327 10.05313915661068 -0.28970470512484303 -1.2959900023674518 -1.668965025576861
Ni 6.741734648639788 0.728865380969672 7.436691765049706 -0.4889487450642676 -0.6846588037085047 0.7688878861619146
Ni 5.635829955576186 5.763366209941935 12.58220784410427 -0.07973659389969494 0.2674896024803845 -0.0010081295495401991
Ni 3.725383053130628 8.66042674998951 8.82129902057712 0.5444501205656817 -1.0836557049029725 -0.7231073374926901
P 7.679507771698132 8.767002206241187 9.850500177108426 0.20949965622916175 0.01647794305036517 -0.01879476410899989
Ni 2.5428508759880635 0.6779612480276012 12.77772015224774 0.09967627024641543 0.4018914491334433 0.3263246703407219
P 3.7770245238824636 4.682280585795703 5.207198328584406 0.17214795505358094 0.1323444499033979 -0.05808713395071932
Ni 1.2278019362552999 0.9809839011173956 2.1073782380719734 1.3031093870210526 1.2664372284109995 -0.5204213617512521
P 5.54191445039783 2.8029688157700288 10.785317456645107 -0.3641204010322568 0.5526133731027644 1.0233993312150764
P 2.066641947153113 5.0146112574874735 2.6489848570228256 -1.163551707198667 -1.1877897538104254 -2.3516193972608272
P 8.105206741891829 5.250410961581344 12.861719159486466 -0.2463916441595047 1.8803570137327292 0.14811971045978362
Ni 0.13076662869456837 5.252803831454543 11.005997562028552 1.8240200297038973 -0.38046901759360924 -0.04342978904886069
Ni 0.21565136877395513 3.1779352347761285 2.228680046202201 1.1395854261910567 0.9781821112484896 0.6837216366062161
Ni 3.096419989367026 6.369114726059732 10.031202661168466 -0.5565890699210607 1.7581082575024365 0.09618805458749886
Ni 5.45248789490408 3.719910986366335 6.494788622787736 -0.6514843738390651 -1.361426634704707 0.8260242261635903
Ni 4.910957328406562 3.8923831110253033 1.9162092669890418 -1.4369011108939382 0.25375682627532425 0.2852497546772829
Ni 0.42280897696699593 8.438325762185235 13.335874672081392 1.1392216150937349 0.4009738224151804 0.9910473972469318
Ni 5.023143971763998 7.162230518062691 0.9154786246040937 1.020321977841333 -1.3107031402079103 0.5104830195916177
Ni 5.954174395606001 5.574069798655125 7.914267783106786 0.668903340646461 0.2431955058197102 0.4299974633410401
Ni 4.421671087473895 3.6842405308146895 12.849854976766325 -3.2697701063480333 0.19096920152514207 -0.9591538909724449
Ni 5.971944700555807 0.7993650777415701 3.4149369386202575 1.0326717576559374 2.455848319874932 -1.735971059283765
Ni 5.4172533497556925 0.13020272757716325 5.385728680379706 -0.06886854083693945 -0.7955929062569267 1.698956429732629
Ni 8.36011230621357 5.37173317402832 6.903420309490498 0.6740067233112972 -1.3112027055521485 0.2168419555268459
Ni 7.209197545341301 7.32520536074431 6.63556913366096 -0.9726606672096282 0.9830543517391264 0.2994975228455487
Ni 2.167161031206345 0.9055129708104789 9.574951936520096 0.18584602136596381 -0.657922416154925 -0.47105438128235005
Ni 0.48744521508061267 2.5033221496331204 10.54108613238951 0.7118024540028323 2.3711258427248714 1.2723988453110733
Ni 7.723701666836869 7.451508081415737 0.313097748218695 -1.3219188064180718 -0.7013113246635212 0.14843827014146696
Ni 8.11139295974231 6.385326883185129 9.257744573414522 -0.077377349638899 1.568209406223338 -0.7768238531795395
Ni 8.032817790882834 1.3072582006107194 1.395656193046571 2.055188943376377 -0.19817240414180062 1.2833625434114284
Ni 1.427838437903215 3.5066673269686683 12.500407865729636 1.506327838227193 -0.24042745615626981 -0.8738873683934564
Ni 2.2038702519742626 4.194793634612652 10.139173958179512 0.4721023629308902 1.0565997292264449 1.2037421633746237
Ni 6.160897948333671 2.8248663575166315 8.658948364494208 1.1602689226823373 0.9209838076606268 0.19531076632328942
Ni 5.848925219942957 8.105818871394275 12.31283654667699 0.6880022662594409 0.10039026559430451 1.3796231031080757
Ni 0.8455752903626093 8.00407552833615 8.832919278965226 0.05917265370541422 0.6671367356643414 -0.0890028496929693
Ni 1.8519978096513652 3.3426351696919148 4.19656695523186 1.0622713256899254 0.16877132527186417 -0.17903568331234973
Ni 8.700901494666416 3.3996466856243024 0.040427443760807556 0.01472085114994239 -1.4216321005500097 0.6437224705054592
P 7.292187466369933 7.98312400491151 2.6926538047397695 -1.4281084523029728 -0.19585918262759172 -0.07642809835175224
Ni 7.546109913611987 0.5210279380413386 12.866035599947656 0.612066534163075 -0.08385241584028139 -1.3503541789406293
P 7.183896192573519 2.522576404891886 5.1105069088593496 -0.42837921101132675 0.20298293815656657 -0.7406119220353568
Ni 2.2194146314606273 0.3298098111044229 6.993961682653854 -0.4065891117194288 -0.18540147762937748 0.4981085571866647
P 1.5216240974295374 2.1134698540902574 6.054636904053704 -0.7592341651222343 0.6445807047406964 -0.03930445402657747
P 2.715054034653533 8.93765649177168 3.0943220546177326 -0.6512568312092912 -0.5271663937845694 0.9815559128167288
P 5.231787385203885 8.200606197379145 7.198528870088816 -0.40480836566992223 -0.3539992534378548 0.6466951799805378
Ni 4.785758295777426 4.9414061338085515 10.279045549488497 0.7890569049106217 -1.6652983753585513 0.3337160777087866
Ni 8.221390776394028 6.7716918955019345 4.487629896300373 0.3552318402933753 -0.4426341782684441 -0.3333126716227808
Ni 1.170567827776568 5.652923208197529 8.406084159316231 -0.8520394192804294 -0.3360979476774018 0.9001604431573723
Ni 3.374577200092296 8.138623447911739 5.037354650910184 -1.1550063887318174 1.490464388832375 -0.05503163495384716
Ni 8.598814988099344 6.132220608613004 2.0243975917327717 0.612506707024287 -0.24554600832975776 1.5344593063560865
Ni 9.022992909226357 4.242354242014844 4.631831840104695 -0.7573729435437795 0.4153414039907621 1.0379895703244253
Ni 8.774663099711198 9.231256060399573 6.837557029965159 2.5798729370587243 -0.8498858632725365 0.7709391122639884
Ni 8.39418751518308 2.3830850758495714 6.914714098810633 0.6373466488861023 1.0198805194285403 -0.1820436169007381
Ni 3.625095836313171 1.5655212025064837 5.165538278598217 -0.7990690377309851 0.2360519527963935 1.7394631315974236
Ni 5.186248660097651 3.4193090272180333 4.170544959095289 -0.10314057464593206 -1.0535593997382242 -0.1350857600939609
Ni 3.64345044669713 5.402821933001048 8.056976501912716 0.7916290365131721 -0.8474001207362052 0.04311662868381607
Ni 3.548922812016327 6.3288718486186015 3.3737786493322868 0.19939213548151466 -0.6930339151460774 -0.01336279446015118
Ni 4.8873346944257925 6.578973123815081 5.546205849197555 -0.28752518097502094 0.3608389020675076 1.226812414930526
Ni 6.181228067566433 9.254934342516929 1.0719723143113267 0.1952943112630572 -0.4817871943188219 0.18771058537852833
Ni 7.170002707805873 4.927262232426269 10.907161834107049 -1.6969954493515162 -0.830332623730957 -0.5881215933117032
Ni 4.538699118714316 1.8159378171436178 0.8558117650876095 0.6198721462504228 0.8020903410558122 -0.23766223470630682
Ni 4.485406753243761 1.3302687050890427 7.300010666904986 -0.20325367531944996 -0.18537988036282266 1.0073661890116137
Ni 6.52431737899817 3.3866157469737406 12.836158115414618 1.4090663480698573 -0.6135451755911304 -1.4838098596303348
Ni 5.979800362503868 5.724162097717078 3.127172077113409 -1.2911162192149184 2.370676156781962 -0.3992185302869705
Ni 1.073276335645326 8.771611726888397 4.821602188021431 -0.2607288867177832 -0.02724135221445631 0.5931193036366108
Ni 5.095301055537217 7.962617666579558 3.3935439399787013 1.1790446606279437 0.35144331978522053 -0.8360343021014246
Ni 3.007132554214741 7.6567940572816005 13.233401410965048 -0.44738172025575856 -0.8673487959439902 0.030415636177379874
Ni 3.4595704540380257 1.8319552057909636 3.084683797361032 0.16702477489440268 -0.14095790260402175 -2.5830132824599192
Ni 3.9511382685707197 9.07876161677499 1.4110633071293563 -1.9758241309938038 -0.5176630822798247 0.062374191361847416
Ni 9.207930216480595 1.8006716783401837 4.3182351135946115 -0.1455727756682138 -0.43774728248978806 0.36379721336488313
P 2.978612884214401 5.411067131905212 12.12328322649294 -0.308021758266476 0.024660993081789786 -0.23633323148223812
Ni 1.47449012574117 7.163176536384654 1.6459559465968743 1.7121582731348837 0.8193259882078082 1.1484809289084736
P 6.529149492191723 2.7023198860647626 1.2685725435250546 -0.008600082964185188 0.06143445315639743 0.7579573552923398
Ni 0.33123254846313904 0.35196333427932136 11.32754918966361 0.47771096736691926 -0.6243132127409119 -0.4643684846217422
P 8.225156300303016 4.2744168433778285 9.004322959401742 0.5579054747396391 -0.7735672939154548 -0.7126588884658565
P 0.4399309811255742 7.0251320588935755 6.313121571026869 -0.24390050230653482 0.618652929131341 0.333548956003303
P 0.6814726454461797 1.4469813968888094 0.020136278223654887 -0.5104933040042627 0.40113965856908335 -0.3496589741912881
Ni 1.5071463072277385 7.4509516000498754 11.241120213793959 -0.22719167419228614 0.3205628281562802 0.6727237428338156
