# total energy = -381169.8187197544 ev
CRYSTAL
PRIMVEC
9.24223266526575 0.00000000000000 0.00000000000000
0.00000000000000 9.24223266526575 0.00000000000000
0.00000000000000 0.00000000000000 13.52694172481345
PRIMCOORD
 96 1
Ni 7.9694480178075 9.081723017748446 11.219989379945574 -1.5570027388742411 0.906240073692549 -1.4098021977946171
Ni 4.700146771377503 8.75286588755078 5.328749846659676 -0.7304254684206581 0.41762891447335815 0.5210440829369155
Ni 9.16366465442802 1.8297587803460722 1.760978083282078 -0.47119039263958207 -0.922985668582004 -0.39826645078634637
Ni 8.824641068066633 5.077802891161022 5.387984241385937 -0.3207291785308154 0.5223682010649778 -0.2521442303725658
Ni 2.216703344170078 2.0701769841522646 1.191089065015244 0.2822240804770817 0.2518380119860566 -0.21652982360306577
Ni 6.128663253640232 8.428389575736386 1.56756957277692 -0.5551456526063149 -0.9836552185479188 0.5853702558188112
Ni 5.816238813496283 0.40394472697631845 13.111056512075308 0.9632038926721025 0.11494630903160849 -0.49631958360704204
Ni 8.585313447739821 6.683807213576523 0.16990273963135274 0.7365169260303768 -0.1917125074490698 0.47076821750049885
Ni 5.95195176104905 2.855471027169393 12.163832079505756 0.027019208901321208 -1.349533739921863 -1.6052556603433579
Ni 6.136842629735587 7.035603565772691 13.330057689637696 0.08725398532266262 -1.4260027188138795 0.22515561759886382
Ni 1.7904330794582337 1.6148953504423178 12.199665140589714 -1.0470197988474936 2.4731464448337475 -2.2821926699275727
Ni 6.557826337242298 3.436798232843699 9.76037832939447 -0.5560080006066102 -0.6910066003034036 -0.29736556410421044
Ni 1.4945892050940226 0.28730589963326264 2.618274665743812 2.1558807993715 1.8170613389978771 0.8338318951334671
Ni 2.7510800068337553 2.9132627093436954 8.233646486803918 -2.5705765993584633 0.4375441653400465 0.17135914060369845
Ni 6.526467441093664 5.645765828096475 1.6911382263304815 -0.2931160447992371 0.5210764788367478 -0.3355757566253446
Ni 4.0284674971063685 1.1164524892009475 7.501812291412061 -0.34069199480598744 -2.133200069944533 0.2985829814510793
Ni 4.178875594932147 6.497326680835296 1.8079702163406481 0.7424921697772051 -1.2132254202747106 -0.9478240677819225
Ni 5.168737220429046 4.455116693366134 13.565358469100387 -1.071589774877374 0.35332870973339153 1.7179262859669124
Ni 3.5210596699751737 5.219246023096975 7.425561097514308 -0.5244644214723743 -0.13631654717726846 -0.3587676213607757
Ni 5.886017671710897 0.9189542906481121 10.496217184291543 2.5689118100615307 -0.6363603737134331 0.7104508250709441
Ni 6.679084432576833 1.181277510593968 2.2751096348306414 1.20130372913646 1.5956680166549229 0.6074228647434765
Ni 3.574156297848413 8.863458446146286 11.37634762729699 -0.3578600219448418 0.22699524191076392 -0.4837425182729798
Ni 3.8943072446767877 4.419016531752056 9.884690982694556 0.6450406750962504 -0.16033245047589162 -0.651478203191478
Ni 1.2684687355471689 9.174958663002622 13.364429553703939 0.037240115298381025 -1.8462482449744784 1.4161991024598966
P 7.809834656037118 6.9056577715346155 11.30749576503985 -0.7217685640766086 -0.07703873535255766 -0.026912251009811712
Ni 0.7421725570870723 5.325069589528409 2.0132688594409185 -0.46049023261325855 -0.39185823326715735 -0.022098631671252266
P 3.632151309145989 9.445561999382184 2.1281664501101156 0.5200048430391238 0.16408857508421418 0.032043144478473846
Ni 5.7865712459639775 7.896674676141027 11.349672694769968 -0.3768800146907703 0.2946535644896861 0.6458932529045328
P 3.321455166549873 3.6801369822387415 11.785334916530513 -0.20824675765866718 -1.22349749162468 1.065383903176978
P 5.40808332522161 1.639156211742101 6.090965109961876 1.289333930503515 0.8771868650803344 -1.8850639322900957
P 5.4139151741664335 5.414552888234885 8.790037223955197 0.7287869043759707 0.8042531530350858 -0.5579424986251617
Ni 0.9702403651009219 6.856073192154297 4.09657998073342 1.1388752874979096 -0.6050355954582225 1.14559820804404
Ni 6.537632058408002 1.6402375529886055 8.185517559101587 0.3918466633029316 1.3519832299036199 0.5319291052805354
Ni 9.062120241818223 8.862062868981992 3.9017518632584927 -0.10594487686394659 0.5048283924090016 1.265722461732162
Ni 8.495691515540203 1.763972566733937 12.760992154320121 -0.686740625938198 0.7790835957479938 -0.3662235634181887
Ni 6.471004801604141 9.092499461281989 7.04500753772413 -0.6613916056504481 -1.6445922531594515 -1.022738814812942
Ni 2.1256950770390444 6.205179699621529 9.164029722626625 -1.5037873311935264 -0.9350017192062736 -0.07208961887739843
Ni 4.885231726954438 3.2166574879676864 7.704526806200171 1.3283725324632154 1.628551654756821 0.4915661280824567
Ni 2.051008593167217 7.521948344179236 1.717623693083544 -0.9953519381595567 -1.4653611660068442 -0.5736223712542637
Ni 8.109615721606552 8.912682578444436 13.385301288208053 -1.0401492969799053 -0.6346796435769004 2.0548752687907
Ni 4.038615468804335 1.7979747414851375 9.93599923850627 -2.5861029771288364 1.645180521562754 0.4259124946383891
Ni 2.2836263524259746 5.347047619307793 0.08914133609005985 0.3325577957346273 0.452081439724273 0.04548075804061845
Ni 0.9763402387991531 6.163062844405105 6.805593964631571 0.3222497289403998 -0.420865676243101 1.381555287133782
Ni 0.36835935773344053 5.828835976906418 11.541876942331369 2.5628730600666185 1.1035347032150866 1.4008599009996647
Ni 5.723548459981798 7.13191687457461 3.41966498153797 -0.0694858627059642 -1.4707327147314024 1.5508752858202643
Ni 1.2729050073277004 1.2106955378386188 9.682206599505061 -1.0337328519306004 2.321242584741183 0.8942451061142018
Ni 0.6862422606140183 3.577002905574254 -0.2542593717614516 0.9686425471891704 0.29918050582576217 1.4733112740918564
Ni 4.799084874316239 4.325096961265049 3.17148607478571 0.4180508325021252 -0.33308975697869736 -0.1789454375913886
Ni 4.073403233350005 5.725775838104941 11.987115965798136 -0.7863199655954328 1.65094339218846 -0.1282921342108952
Ni 8.391226557341557 0.1543212592255226 8.843900957157153 0.09878512589071374 0.21682241514282014 -0.5874189108177238
Ni 8.077766987115483 3.797060470354381 2.059882985174856 -0.07483092906796145 -0.0950112606705783 -0.7927572365803444
Ni 6.53424015894247 7.620415093241289 9.290519845992325 0.6564615153386824 -0.39612240786015007 -1.9639366355275985
Ni 4.6858675215839165 2.2169806111563615 1.3441894252778326 0.40561646339351437 -0.6924232781452719 0.8501195765498972
Ni 6.135068121023374 5.102008299063547 11.280008440243018 1.0795928476875085 1.5889494669841668 -0.041422528810844794
Ni 4.799824252946327 1.7047021272994576 3.8845049324883876 0.19416765385778173 -0.4637213379560465 0.386083021346277
Ni 3.8028183814361967 1.3429981014601022 12.903674669684763 0.3595793186287936 1.237507689860843 -0.4968399748868863
P 6.701062462356217 2.7046932400285706 0.5958060876980157 1.246783458735814 -0.4179729280763382 0.6547144507405885
Ni 4.011008919203401 6.046120871823713 5.05221854211338 0.45647442658564613 -0.6747639131922959 1.096105757740867
P 8.246234407981177 2.171536552104539 10.262417343447932 -0.24389664565179284 -2.678719255204677 0.60048782818654
Ni 8.031435673707556 7.2744598322228216 7.123828996584728 -0.13361406064444084 0.10178637461088276 -0.6370131768060835
P 6.909705869534351 6.269228373452956 5.41640410747997 -0.8682769641852143 0.35596357625307723 0.368595663194791
P 2.3691632176943522 7.153830208723862 11.978134363889136 -0.5484687548067715 -0.18701227375992308 0.7104117443028928
P 4.459284940393258 9.093737920487387 9.113303727486107 1.0373313679151361 -1.0013148406112111 0.7623670543242612
Ni 0.8284395587526626 8.482512091458874 11.033196459733135 1.6707383154272002 -0.5607881956040729 0.6143190776426776
Ni 3.2968153737021693 7.729769192631396 3.7713245486875713 -0.3480749175336199 1.809567344613677 -1.0128459811792623
Ni 7.5904332897911955 4.625321654012534 13.36459129277927 -0.22008797326796933 -0.13744860389918262 -0.20865376328909874
Ni 7.063108450811988 4.567927387851905 7.666569880001284 0.3792534000189533 0.7791370746937485 -0.6544210878698858
Ni 2.271685387550044 0.6075150725287567 5.103322544578529 -0.12109381669024305 -0.7315174159332564 -0.8922311610079666
Ni 2.6498036189773666 2.7924759678858426 3.61584616190596 -0.039989395908744035 0.18327208999120048 -1.4656776688059985
Ni 1.9209981032990087 4.58648579146713 5.3500818443610205 0.6264233171053791 0.6082679863525912 -0.21191417920792538
Ni 5.514563090187249 4.103819421745276 5.583570221956706 0.156610264429298 0.33477665776281695 -0.3550822020893885
Ni 0.3787032647683804 3.138348048808425 3.8713162661741816 -1.0789999512985158 -0.009310478767648482 0.12168105665228075
Ni 8.358222543740975 5.147350693553733 9.83230138563634 -1.0919022611824807 -0.5077756479627835 -2.6042307970777987
Ni 8.722773177306173 2.599285574076561 8.243534751758066 0.36912788154917714 0.5423754974248401 -0.8658758109428895
Ni 8.64375208621545 0.8738484973195555 6.22263642907792 0.13801424659466552 -1.0710498432135038 0.37862682217854793
Ni 3.805859076052436 8.204829204696214 13.76109324962046 0.27129817759319724 0.4821183524059955 -0.5291163184220887
Ni 9.096750888404998 7.1436360258615155 9.279509573967017 0.5349324108832336 1.0244005187860807 -0.0520013327679556
Ni 2.2972401614524816 8.588178539931414 9.235478652321952 0.8085237553859818 -1.1576955055282063 -0.8190675923400991
Ni 7.77188604784782 3.0957875664139487 5.769741139896584 -0.6029522305666326 -1.0268623500630123 -0.09752168579725785
Ni 8.591588923862698 3.7923839005190705 11.508410817086983 -0.5370345448279009 -1.3469659791946869 -0.02125685249624726
Ni 3.336843484288593 2.7208209363973785 5.745866603931024 1.4986569519454964 0.029408535069104194 0.7594452526917759
Ni 6.7911834751311435 8.878236776515182 4.354485413364496 0.28470828035151613 0.4330272513062994 0.25315364547368663
Ni 1.8148787854155386 0.713749918323178 7.382585638863694 -1.483074009905575 0.5232300348446408 0.6131736511843247
Ni 1.0682172758205408 2.663916508579183 6.209704696837671 -0.9243360119623113 0.3291012046445945 0.5952708027619747
Ni 7.124347485849078 4.922986248253339 3.728187350961626 -0.40147055954594085 -0.35663540550912126 1.6047028731636814
Ni 2.735867291519682 5.4129077707829385 3.3497983221110332 -1.0967264220440016 -0.7266901697479421 -1.6320663527782988
Ni 1.639267118536614 3.9459898109199822 10.335895867482852 -1.0244557975040485 -0.668757559097216 0.1900348626363308
Ni 8.291992702950788 6.878245308824079 2.832393171677752 -1.1051185027624388 0.24472376953877853 -0.6661108655029883
P 7.97645363032759 1.5045523321344667 4.187900635335666 0.22501163582183184 1.0082113106207282 -0.697262094294812
Ni 5.118089784267975 6.92191485916369 6.869481823610954 1.9504409150340085 -0.4767414043647982 0.97532767251883
P 3.4289330926661306 3.933475827605732 1.4728671851653063 -1.23020781376532 1.3457105095210307 0.7064337334917512
Ni 2.7430300219986656 7.68303122097692 6.922926883663623 1.3924655062883824 0.21002056172963832 -0.16637582845649412
P 0.9628465788000357 4.177239719713076 8.133276761992676 0.5069238414854496 1.341920189240663 -0.5417877432421702
P 0.7881498929758459 8.356771513179428 6.40566960895636 -1.1070648278555322 -0.1569787035123103 -1.085996694331323
P -0.07220309589801706 8.540303773633175 1.6448087613691285 -0.2785605155825654 -0.8485972263680999 -0.27422512143200517
Ni 4.166417065015153 7.0710475288525645 9.779099396308313 0.39585012803536984 -0.9617249941337307 -0.262114197101084
