# total energy = -381169.76465209515 ev
CRYSTAL
PRIMVEC
9.21964795863574 0.00000000000000 0.00000000000000

0.00000000000000 9.21964795863574 0.00000000000000

0.00000000000000 0.00000000000000 13.49388672375695

PRIMCOORD
 96 1
Ni 5.316722141476843 8.769360507752426 0.6704288403490856 1.2836384227806343 2.5194990639563577 -1.9680226326715138
Ni 8.906843900548173 2.666460531613627 2.49592377833558 -0.49008362999965915 0.9967760722005929 -1.0610981313174306
Ni 0.11580615613122573 7.411647466357554 11.902782387274815 0.09432554745746335 0.05365172388718501 0.06838465922198544
Ni 3.9093705145929496 5.214319509785429 0.8469482232935196 -0.6134621289590209 -1.4807170796376241 0.7186829831727494
Ni 2.112857540478064 3.575729888352838 9.666210998471257 -1.2679104705224165 1.028799676295041 0.38156662153316223
Ni 0.622270930348461 1.99140711576653 8.181127596305696 -0.19366268919690519 -1.7799083840966634 2.118979041249144
Ni 4.531217341127797 8.720275101150724 6.311549832788515 -0.279561446043254 -0.46933354193650134 -1.430876501966413
Ni 6.035854694995377 7.015368550776354 4.964373927232315 -0.052340975495561465 1.10480559950771 0.5438875631939923
Ni 2.4119798041492864 7.597718404756414 6.57217084590213 -0.049243824627476486 0.8031972009667459 -1.0315864950115587
Ni 2.0443739942276067 1.9057289257684822 3.4420071900260663 0.5841204425721102 0.7319953840109393 -3.3587503303331827
Ni 0.8783319055009182 7.401155506794681 0.7954832255115221 1.1153856890164018 -0.6058915157006145 -1.8159665632718016
Ni 6.264446650533052 4.32220791820132 0.4825997150533542 0.0047336580302434605 -0.8760247264514333 1.1361853993705724
Ni 4.722423623530629 6.083096171972672 3.094607160928633 -0.2608008776062992 -0.34164330297566325 0.487811803246347
Ni 7.824411112780949 8.216707140373432 0.05668239665425576 -0.0349600610149527 -1.1800175660641743 2.347759400084789
Ni 8.31154966060478 7.241471201321079 7.69942310908499 -0.140304585290739 -1.3650146091662814 -1.6489448737011925
Ni 0.6392719614854889 2.550698629793387 11.455311375496029 -1.1063809144146302 -1.6691763702567186 -0.01326612098128683
Ni 7.229006237060091 1.1754313783741663 3.3742547618716863 -2.5681834165359385 -0.33574750631651856 -2.353513014739115
Ni 8.092131254948528 5.463471280635234 5.479003621826423 -0.30981124606673094 -0.02193125285545255 0.3459951521864557
Ni 9.125690688020859 0.515762789348305 4.124663127714591 1.4107344798008994 1.283511667394783 1.260679499991616
Ni 1.3210188418691815 4.691076819915718 0.8839402174535506 1.8968583538218622 -0.03303507607809794 0.013520145973621877
Ni 9.212548992978526 4.881241282080761 12.1204656551545 1.5251017764005863 -0.28526543840656676 1.3979175305418894
Ni 8.494015716587924 5.17712744926115 1.189596445748857 -1.999783470022879 1.3318880018156416 0.3112214961506963
Ni 0.4787274628421005 3.49354594499304 4.43888164322083 -0.7702387437628542 0.4056236624823659 1.1646778503833104
Ni 9.225272107386932 9.128806929086107 7.078852281850232 -0.7258476192419886 1.038542871724734 -2.0110778119897756
P 5.139262354423962 0.9807308493330843 4.8924385447249685 0.24383108252118008 0.1971431915463379 -1.525362743371457
Ni 6.697447424584307 8.56498856783133 11.609748779223384 -0.9730481324560338 0.08987471077496134 0.1897589832671248
P 4.558728771123942 8.452564178631267 8.349504186028751 0.32383250004648745 0.2304289501826612 2.1878591520503097
Ni 0.4343643600085046 5.393070047575394 3.4019164721322204 0.5291273741656822 1.5028959297275084 -2.2228348967945464
P 2.1811105955254706 6.288178024799163 8.059372001241323 -0.5785928278856616 -2.527024168688809 1.3096101642540479
P 4.297978682936619 8.870075943837508 12.3104457243571 -0.9449236063056758 0.6835480871428293 -1.1227917516724857
P 8.041727438665376 5.389087159586676 10.565497320223932 -0.6569993901200233 0.2872721844239504 -1.6196258130221008
Ni 3.039764084074723 1.6577664895264184 12.200754038860408 0.5599425597743259 -1.0116776719027738 -0.27781489566579254
Ni 6.679976191393055 3.1541706976210238 9.20647416683092 -2.152346818076312 -0.7327060369247187 -1.5660280823013029
Ni 6.165298554628714 8.162486389767759 2.6008793305919857 0.9043526268618489 0.23964789767776792 1.8435627277225153
Ni 1.0547646237530053 7.897135697167541 4.446910112805495 0.6223442619399991 -2.798326974267697 0.9702592568569871
Ni 8.845828269276563 3.512022119829593 9.524673726396252 0.4325433696913454 1.072057972763044 1.0296401699184654
Ni 5.170332568595212 1.4311475386868597 7.597692589741673 0.6000692525918827 -0.1575893405131157 0.5205483742474196
Ni 4.787034917569833 7.5638085389635785 10.472254408941755 0.2728282410844785 1.5065445822236894 -1.28225799749334
Ni 8.79070399315493 7.56145752869246 2.428211916632937 -1.5340939525968675 0.36574508111987336 2.086113400869375
Ni 6.982887730442433 1.2980619180453206 10.516190642067302 2.364373354492386 0.3727166273417 -1.6114754160008247
Ni 5.925707558881456 2.0045358946923044 12.341468918322928 -1.3229323352842506 -1.1429399444855866 1.6911559598516037
Ni 4.927708308615805 4.558461401328403 12.253704321954864 -0.9305328848016424 -0.5307034604035505 0.038616941041249624
Ni 7.055096014534191 3.7063723022420376 11.608197112444444 0.7343872812818837 0.9699473820435232 -1.4115250940229949
Ni 4.19669162866797 4.615862930536177 8.562289976826012 -0.6939620833873016 0.4769761460834237 -1.491128504778935
Ni 2.2778062650293474 3.7993063553121256 12.208999170175941 1.464970872546961 2.0346872238785987 0.5858605651916685
Ni 5.339743602837558 6.678777637137191 7.428586725852164 0.5530126654237121 -0.5105120730573401 0.23057447462159
Ni 2.8750366310783684 0.5622666944758369 0.8913159359511766 1.752085962567757 0.272085449381183 -0.4178258609755126
Ni 3.727125730164733 7.549564182615039 1.4907912863179125 -0.5691239691632779 -1.803410580983662 0.07219966209270147
Ni 4.034047816147195 2.685453006745014 5.628880065627807 -0.10852575021724535 0.05907289490275632 0.01259917682124927
Ni 3.0308579039888395 4.334257998296817 4.106297588655503 -0.7960014545492549 0.08166106461591742 -0.8668392032974231
Ni 6.858616093405558 8.716061721958955 8.779973244705696 -2.856275268647707 1.206751896735225 -0.9051931204852733
Ni 2.0239432539891826 3.4880418150641868 7.054361208578865 0.771074352290272 0.025594817749968822 -0.6822712773129348
Ni 4.607998570688084 6.7430201452515135 12.80567174751358 -0.45609030377334997 1.378148832555394 -1.0854259094295178
Ni 1.2422000700739257 0.12316159140298324 12.891911414082257 -0.11213455061442623 -0.3518562389529231 -0.7357844187397264
Ni 2.3871881703491407 7.993563996875879 10.945917519070425 0.6606984362381654 0.23142293866481436 0.969341373028408
Ni 0.21749242116355869 5.057428757692801 7.7559487717211715 1.254479541828491 1.2025093194087872 0.15406821473373467
P 1.3244669902668218 1.9416302355556767 5.395746511425221 -0.4822649052861887 0.12041735944850875 3.099075595911527
Ni 2.044733560504366 8.56393752794542 2.4778827708903863 -1.4815915118227774 0.4325798793562357 1.6662861931931174
P 9.182151813120186 0.6194958162637293 10.280830542843244 0.12055157103352786 -0.22542764031332788 0.7583558762823391
Ni 7.223520546427481 2.3093559009029425 5.260929440866364 -1.2184038791518566 2.5577815044763237 0.33731613635521907
P 2.4354345889717366 6.443648951080997 3.22059918430508 0.3030145348598717 0.303748841922735 0.21791796219984405
P 6.756075166992312 3.951900751379885 6.815438637320455 -0.3551873602086851 0.5914578567737879 0.023175923895831053
P 2.9258922101194997 3.5310883521459564 1.965654794632069 -0.19729205841937636 -0.9158169187477068 -0.23049785574738366
Ni 3.4922367549597113 5.2419139166146715 6.175139607034172 0.7375736494296652 0.8168389601198965 0.7110131253323174
Ni 3.459682177440815 5.745140750411449 10.683973486451299 -1.7454951967241166 -1.1081205228135562 0.11403125341650683
Ni 1.1817376176896368 5.709995451770261 5.5105799946795715 1.0807835255615001 -0.4433515160504429 1.281172477738645
Ni 4.758656840650216 1.1934096922121298 2.6442079889062895 -0.28887012503868964 -0.3702380838942204 0.5378737528997447
Ni 8.323046561812953 0.9877930997945612 12.648346749994404 -0.1505342334385472 1.1374534674497185 -0.4419870316027485
Ni 5.077711983561273 3.654428804722507 2.8007778972442696 -0.19367785870555676 0.07106889092236793 -0.5753156997962866
Ni 4.685849279430526 0.8020835716020851 10.47929822010699 -0.4745986469901826 -0.06363171791803235 -0.7979938023889354
Ni 7.039265878708663 0.13298604844182108 5.737196179624694 -0.5193911207145249 -0.9684219465379321 1.1908987317530522
Ni 0.07325563611842137 0.4768383569418961 1.7312249579035244 0.02603653327307774 0.5940441294437252 -1.4810793480730493
Ni 2.1812488902473013 0.631502564013052 7.25168196161623 2.01471360897015 0.9863595048529593 1.2800833584395246
Ni 4.298522642175819 3.3357516673844536 10.495829049189792 0.733138239366131 -1.5184498183017074 0.21491465659714598
Ni 4.016087941605476 8.309779488165349 3.8500079662296187 0.9840737941425761 -0.5027910502639986 0.05448090465669972
Ni 8.115143496661121 7.451513224837222 9.930083781477514 0.8465210605653614 -0.9464837517039442 1.4980393729661556
Ni 7.293580652506806 5.99962147787579 3.119557372676477 -0.8607040369339629 -0.879135247055957 0.7872177948193539
Ni 7.164772948593891 5.298089232622216 8.484969397850586 0.2881247622322328 0.8058765475711217 -0.9380525902174555
Ni 2.101969136045944 6.249934924388972 12.6764814282036 0.41127648989276916 -0.28930566991421147 -0.23193124575980054
Ni 6.161702891861121 6.481578583455039 1.0192781981313022 0.26424178496704814 0.20893632752652402 0.5179749570932887
Ni 1.0820640018423433 8.348584987110984 8.971329807372918 -0.09418799343833456 -0.3373210214512255 0.202513968939948
Ni 4.395301288512794 2.4699713908368706 0.5434807394623836 -0.620798514719434 1.0251068008244861 0.8577904628315937
Ni 1.0409351515699565 6.0296129932167615 9.951849526764006 0.18689400301450393 -0.17909456157474318 0.23038061344322905
Ni 2.1986463662535765 1.0997749458847679 9.964385482315535 0.06393870763548988 0.3282643105655959 -0.42848539757188786
Ni 2.5355507479288875 0.36732829851320636 5.035769960324523 1.2710001651913336 -1.1513471947126752 -0.1251456181621135
Ni 8.811226929874575 3.1342931362699216 6.692819161227047 -0.490041206797498 0.547463967691341 -0.7357905893873135
Ni 6.9361348948156065 6.300467815745833 12.247119649266109 0.4607511995841291 -0.49485996834238 -0.1827470707256659
Ni 5.665565967470187 5.496892505077603 10.15384003157518 1.0013636915712754 -0.5933432467219588 0.6849326261951817
P 7.1844753366306735 3.8015836083982677 3.359317087984369 0.6236807213632356 -0.31784851454891067 -0.11919428567468504
Ni 5.786573849071863 4.689232890291311 4.938371753633747 -0.6555695996520322 -0.9930921955911025 0.5897565578119649
P 8.152870296776479 7.761367158922491 4.858460453536031 -0.14249953605952875 -1.2596243192542242 -0.1594420774511383
Ni 8.168008958992855 3.2449473530305557 0.05287929180391736 1.1529201956267499 -2.0386310390176954 0.531670195192194
P 7.43997944503656 1.2711313258808636 7.7731129906299605 1.1974995248990217 1.0587586845509767 -0.5245538958623869
P 7.132817648202925 0.9455671113956524 1.186116950547602 -0.14564090990198789 -0.14990354183308377 -0.7242401655455526
P 3.4908814666857726 2.4625864526911228 8.497235217712138 -0.1611300066765225 -0.40836702955545795 -0.19824028126525858
Ni 1.368241879550232 2.2831905395326144 0.613874596803726 0.09908774473279709 0.7938779804483488 -0.16392556714378864
