# total energy = -381174.3451941381 ev
CRYSTAL
PRIMVEC
9.19881695491739 0.00000000000000 0.00000000000000
0.00000000000000 9.19881695491739 0.00000000000000
0.00000000000000 0.00000000000000 13.46339844418372
PRIMCOORD
 96 1
Ni 4.297043413810339 5.851864268766945 3.532903199824561 -0.0652563980056489 -0.4193219859050649 -0.1676251274825629
Ni 4.190567106326653 8.328038640575912 7.739031025091983 -0.44111054253506615 -1.533880808144797 -0.023297537075359875
Ni 8.755167313179802 8.39256834226041 12.34378222865397 0.16122513749349007 -1.588847908409296 -1.782366358718853
Ni 8.865093177061448 2.3869734427662617 1.4537773688292779 -0.3761588202540296 -0.47459350478386003 0.35774046564784195
Ni 0.4146008036482076 5.9716788609894085 12.77840793716276 0.6671927857132574 0.2816201283444956 -1.1836921867022838
Ni 7.7631300860289825 7.375878285385505 5.100446938658547 -0.9285737041927428 2.0182054241734924 -0.27190392949799624
Ni 0.6672509136433008 6.870329697334665 8.644498184879609 0.012088555733417891 -0.020972231376292914 0.7326193907481835
Ni 2.9617063339345786 7.114539892676084 9.873491420237364 -0.9814551255728067 -0.6691815340085121 -0.5901589354567062
Ni 9.057946376750044 8.948765617050357 0.985421437920386 -1.2934803485717208 0.012846002724732715 2.519667985434054
Ni 3.070031603647572 2.8203665097888466 4.906708812768662 -0.9053867245533181 -0.6000016325787408 -0.7088441427054566
Ni 5.133519445638772 1.0411313138065807 2.113969110259794 -0.19339015226180886 0.9295232125902058 1.0883220000303901
Ni 7.798600724617068 1.2898765259591838 12.633716983961625 -2.361782196726442 0.8768688196192834 1.3107267943569942
Ni 3.3563907787635268 0.38282992928214643 3.852174822503875 0.3788939597970055 1.8975299259675902 0.7821290674425369
Ni 3.2998640479222954 3.4175077193183103 12.682117479810968 -0.21629251078127912 0.49353739287621445 0.840315960195914
Ni 8.125857840387232 5.686773098969128 6.770258526170711 0.36454000506817863 -0.3162783418483133 0.7194270604276255
Ni 9.032272478332164 1.166336412826923 10.651823569185202 -0.9081442326937973 -1.1979574383720466 1.7926602844456931
Ni 8.643088926105827 0.878607533850552 5.276373395072782 -0.8779455976232299 -0.010257673172266205 -1.127132802250001
Ni 7.241097217804427 5.9859922203366756 11.542966331045085 -1.4954764973349857 0.5233812157105243 0.5053490407991619
Ni 7.275519191247533 3.613626499063641 10.844431160458262 0.3862331737708961 0.01280332241225537 3.6688881065013974
Ni 7.0356968316443185 2.7530587653518586 8.956580012143869 -0.13651246523815844 0.1275395723155868 -0.8659976812327345
Ni 6.481928044558535 5.352092537830555 8.984018243674093 0.6634731707698251 0.13516160763721882 -0.16160694631294106
Ni 5.681814936573127 3.954562255803847 13.061461977308618 -0.14125383657788576 0.8312389375953104 -1.0614812256884623
Ni 4.453496894387666 3.395982487395042 3.1763119763278547 0.875194517240654 0.05717284966656606 0.07327052655937703
Ni 2.14184336571872 6.623277067521328 3.7105130397610004 0.21251581734766625 0.4604077002017813 -0.36184008963851233
P 6.854562924891725 7.629342490690516 8.144535118548346 0.42923795946719623 -1.488202589381392 -0.23064106619346728
Ni 1.9146877772088138 0.7840105787197319 5.594365462298879 0.08983254468311626 0.03678143049440762 0.909959431525665
P 6.610453916537979 1.1848628303882316 10.754414296342226 0.893969483855312 -0.3879761246039318 0.20275359575457982
Ni 3.7439277427359023 8.368954978864243 2.1427402503821895 0.0757783805828953 -1.3118814767867277 -1.3671324268402327
P 6.155931166725759 0.8119998193919231 4.701607388163043 0.29325874102468846 -0.7114448135530973 -1.150061643132032
P 4.991802469993529 6.117682485385182 12.279548728878844 1.2301653905631589 0.9624996675162262 0.8480462389606361
P 6.571450932198383 2.2862647935799627 0.9323727798100037 0.9948875969286287 -0.1395571656017532 0.3055236744349706
Ni 0.41780199198551404 1.6005757710191415 7.237182201263169 0.11411198605577123 1.7141804457712349 -0.8060264428854248
Ni 0.804613169291759 0.9290253302814236 3.079455791726798 0.8322578657781279 -2.521683987422818 -0.5837113800591495
Ni 8.11525160431564 4.353146999066755 13.532734853107623 -0.34370584193164677 -1.3603575700102444 -0.7646422235116831
Ni 5.31347590380753 6.596168153641896 1.2853589869004156 2.311626144697341 0.29588152335951623 -0.4694950072150301
Ni 4.413068093403579 5.11594050623477 10.474537527609318 -0.07740511755304089 -0.9065262374744001 -0.00013164048185783782
Ni 0.8484538115238544 1.2734934327731409 13.120499065325857 1.3572671040103788 1.8294010915101526 -0.9941327210404751
Ni 4.154719316239056 8.330246356670605 13.165951340307078 0.20944566306277476 -0.7936761488501879 0.7403578970430217
Ni 2.831837434664195 6.084474755794157 12.520382038477088 0.10936058741371488 -0.276616247372001 -1.5723162293028599
Ni 1.481938627380514 6.405439880694443 6.311870433429362 -0.07716883317251871 0.38016228498646787 -0.6595368118298963
Ni 7.936307016023616 0.6713269094831298 8.63372728998262 1.6393641719912928 -0.1475134443343524 -0.682769814215908
Ni 6.433321495207018 5.655773085472797 4.5090264734594605 0.44309312018273367 -1.6559351889760967 -1.0591242954205116
Ni 5.058107543370845 2.730218102588835 7.812662036376858 -0.16938890425120504 1.6924885626200983 0.9243797207160532
Ni 5.541790543267151 7.880976131400344 3.759721191748321 0.6543907488525826 0.855153796539695 0.2453308069951581
Ni 2.5331242482350143 2.2488899998602028 2.2271016817689837 0.42759425321618616 -0.16954342755119833 -0.4911974318891283
Ni 5.393018074935948 2.7501979332458175 5.27545811277519 0.9579269605438794 1.5363992036912766 -0.5763533970321816
Ni 4.005578895225405 -0.3205401395520569 10.846975553257398 0.9363240375621229 1.7798106821765347 0.347725247503685
Ni 0.8902762332927167 3.897216830244167 5.840139456540706 1.2860187500873528 -0.03392159244810932 0.37037409525145243
Ni 1.8695491818893795 4.432054451817948 10.68748830281328 -0.1333816329186606 0.28053666547232975 0.7584849456610357
Ni 6.475240504555024 8.835040641722424 0.9169518828885651 0.6939194030748244 -0.182555266429834 0.0721163583502758
Ni 7.3247328625250905 2.1871935338305626 6.770528051510604 -0.18012917348684462 1.5612656279156532 -0.5267244211511445
Ni 2.680093748422217 2.792751660971047 7.186048736864934 -0.06728062752452928 -0.3448697803327609 0.9063781419323099
Ni 5.8128244891591025 0.19506183566499613 9.003862851720275 -0.8834241042392978 0.7824167738862847 0.9815607979127353
Ni 8.27210983284366 4.578315643091437 2.4405105580625945 2.959183929788491 -1.7833361788312903 2.749034555790472
Ni 1.0263212183380075 0.19195723490683245 8.789592966149732 1.6997799540751888 -1.0903218040692384 1.0832744103041536
Ni 5.045974303667087 2.623815385641638 10.95519411669248 -0.9354238943453568 0.44275759122018593 -1.1717720382259302
P 2.951182887216537 0.9180373433017897 -0.4266254973106417 -0.3059805594667311 -0.019324925580857043 -0.604830678536268
Ni 4.452521819779176 1.1208482624591622 6.471047683738517 -1.7268899229181034 -1.8620078218015803 -1.2136008013362583
P 0.9532458156036308 6.873540084489033 10.849574219077192 -0.13215521671072725 0.19554782203475998 0.10882194130142549
Ni 1.817888625273536 4.887901831286986 7.985115019468774 -0.30479759490222347 -1.116658127970922 1.043305840331016
P 0.18905592800572188 3.3936827831297354 12.023864849016958 0.3576239946746357 -0.21410861575608287 -0.5704866538387594
P 8.729852168627309 3.7516179537990872 7.77435908201562 0.2083578293152347 0.277841892248986 -0.2412841477296103
P 2.117632079213574 8.348202447574117 7.170538611418002 -0.4449255454057821 0.014526475750949177 -0.0348603022122948
Ni 6.959944573145125 2.487442922708968 3.1818993378108438 0.051256484182131086 -1.1328388514958425 0.4246189726379461
Ni 3.8092025486023595 1.1531729056123092 8.95989158628591 -2.426795111262717 0.8856943883307133 0.2945044405063315
Ni 1.7313461543615252 9.011805110370936 11.197764162951882 -0.9161465341729834 -2.586217905440146 -0.03833771923793398
Ni 4.974379910479568 1.6045128647213458 13.084726705538161 0.44171500888828447 -1.096189061483293 -0.01117015768420657
Ni 6.558121846276666 9.2952206640273 6.767969860485877 -0.1941077471541238 -1.7843561354553719 -1.3913393631037394
Ni 3.3697658587705486 7.8045247628044985 5.36537930919379 0.43228034583794583 -0.3055511852387963 0.6040840301782305
Ni 1.7585286587774471 8.103164358697189 13.465956960533362 0.6317336735746991 -0.5579962346812325 -0.17916398136009787
Ni 5.588824094901197 6.809893469242413 6.336939049684614 -0.19245555626268143 1.0779242017358341 0.5078797776408156
Ni 7.969459552712274 3.7008588812552436 5.04096554777725 -1.4273486913188127 0.31564096537463054 -0.2308974051786475
Ni 0.6434075798206038 2.65520174945454 9.39501495079771 0.901421826368299 2.4997532487879983 -1.5381843206161574
Ni 8.943062350472397 8.188041843721118 6.941190024920698 -0.1764614948272703 0.525057832081999 0.08512794011859533
Ni 7.584903005467735 8.16966260723279 10.216645931652737 1.3878760871454872 -0.743511612180655 -0.4756646263608517
Ni 4.1501383053425664 5.479551347030897 8.043168753942169 0.2362275591423093 0.27159822533211936 0.7618384355143009
Ni 5.362910346694556 7.281130469654881 9.983783397038046 0.21009820904510912 -1.2082297668323319 -0.034131137355754126
Ni 9.208475819139942 5.771494204103016 4.467936277528672 0.20210079266192935 -0.7032630490732533 -0.5582440890259805
Ni 8.770179782623723 5.148559511533876 10.120099747186643 1.5208795107891224 0.22873896407474797 -1.0899988735121808
Ni 6.333293558483251 4.304310479288708 1.8225266688358062 -3.7588011267134616 0.7210291148074228 -0.5128736313109813
Ni 3.220505853135102 6.271035964612875 1.2581893608283796 -2.9103000596035944 -1.0074543778500455 0.947831266870774
Ni 1.8614450240584397 4.393281437904883 3.2134439212771984 -0.38041553864785455 -0.7889383770548865 0.7487170676409944
Ni 3.638408112226583 4.969449344534752 5.820644403542851 -0.22740250465151157 0.19477777663795487 -0.704336227532774
Ni 0.3430514846642883 6.266151392753365 1.8968448317551545 0.9958095945222656 2.124127675329619 -0.42175784904006725
Ni 5.97814562938345 4.597568767200582 6.740262103615759 0.4408549748808343 -0.7664391675111059 -0.5525714641212355
Ni 7.665622625179991 6.6371304860155345 0.3194969936973139 -1.0141839832643953 1.2014058019319631 0.7610038554281475
Ni 6.2574125165452 8.327091162418604 12.114406045705485 -0.08246170614034184 -0.07992634131299783 -0.12533536557541639
Ni 1.3663830874573974 4.361407536787736 0.8727258102216043 0.14636184722841244 -0.8902552682285183 -0.9221917119257989
P 7.245163094945488 6.457330407736817 2.4627652561788174 -0.5812305226188248 1.3471192169430992 1.0319122537820937
Ni 0.7041814044990035 8.165651922994094 4.5838432122635275 0.23648698345128305 0.14123763862796965 -0.17473191373067326
P 0.30496562238569574 2.6197955025858826 3.960191011963611 -0.34097790147752244 2.816559438115323 0.596234966447457
Ni 2.440731329672064 1.863661938970195 11.017839900642839 0.6854995544422452 1.796682775341525 -0.5851074890757278
P 3.514159690180608 4.090437982615212 1.4456998875678158 -0.16000694881567284 0.5427403369634266 -1.0674664967376195
P 1.5727861446771785 8.15240562642593 2.1707846839567484 -0.0896872773545036 -0.20785055066151303 0.9717962623268037
P 3.346502050422709 3.4327869544570055 9.384285450577497 -0.05425516179913882 -0.3872608437044621 -0.665686633481376
Ni 7.852082647011035 9.075617304324659 3.066693352936053 -1.4094227029680115 -0.3899844132832122 0.6318763698001505
