# total energy = -340893.3613309677 ev
CRYSTAL
PRIMVEC
9.05246661072620 0.00000000000000 0.00000000000000
0.00000000000000 9.05246661072620 0.00000000000000
0.00000000000000 0.00000000000000 13.24919992214921
PRIMCOORD
 96 1
Ni 6.2762562499727075 1.9533774860729687 11.292385591357098 0.5396100188645611 0.6633482151561866 0.04471071264381332
Ni 4.592388804103667 0.3437004367340676 6.202348290405296 -0.48812599205265617 0.4344056197110648 -0.8579802102448967
Ni 2.535767934699857 1.5996885575223951 4.712952272075182 0.2793012504033319 0.011160387492193684 0.6121467525817069
Ni 3.365507984916565 4.442814895925194 4.873611831040762 -0.056757616506018384 -0.2106345411645534 -0.2744812033068692
Ni 4.962173018543082 4.809847160471353 2.4989714678376735 0.624317583616286 -0.7665258136876412 0.6340759485546306
Ni 7.324079276763137 6.319726195326035 2.5809841008900554 -0.7621780782419066 -1.6466149400164354 -1.5360618749565158
Ni 5.220430842571628 4.43776361947639 11.475317839524537 0.09036244904465728 -0.46549771313017896 -1.0426489234733076
Ni 5.601702637322032 7.791485292679079 12.51145775272209 0.14608391097667744 -0.03385860042065782 -0.24334874356812278
Ni 2.092866946287342 6.411400526145099 0.6423123470591696 -1.3447255198999422 0.22487253914080627 -1.842104140899118
Ni 2.88649670662183 1.5560737727010017 0.5267603246827394 -0.16192653443588886 -0.9330592507679221 -0.23596376395796137
Ni 0.7705423491247575 8.773904247170927 4.359105830603087 -0.19403009983865294 0.5890644168409468 1.7116545940255878
Ni 8.410637808794485 2.265687589090419 1.656348852183164 0.7431889387339137 0.555895643398462 -0.21872348882027493
Ni 6.721384145206738 0.9657714681310048 4.745333850901377 -0.5988767749456783 -0.34206187857032055 0.2970755436676174
Ni 0.690660666746297 7.261137475421678 2.5909608244997817 0.7427899035232821 0.24048427753613422 -1.1388030394990774
Ni 7.531742864102856 3.720464258812717 3.8851295343169983 0.4795284801916322 -0.054379603192145055 -0.4903289132412459
Ni 7.582011211988534 3.577833592634661 12.684651357155436 0.5709545946141135 0.28432081510511037 -0.2893406369172049
Ni 8.275321535753765 9.023381178447968 6.720298754442918 0.1289341386702683 -1.3584174155647377 -0.6350138869878676
Ni 6.807980042176736 0.8181329773445642 0.38143926538535594 -0.42227824031991146 -0.3255713371144651 0.13201663425033394
Ni 1.6792868976914515 6.377489985684131 9.352756086543627 -0.015087747571057887 1.0422110646049405 -1.012025799270812
Ni 0.09098000661902253 4.817568914612624 1.1429979465033158 -0.2842675932696717 -0.2588985183772638 1.418525436600228
Ni 6.541384896267637 1.7425907977030752 7.063625324300039 -1.0519866559344655 0.6404137178472004 -0.6631003608114386
Ni 3.4558425506560186 4.306620533609323 0.49592400193147435 0.24248408157498236 0.19670121891291287 -0.4720385995724903
Ni 6.0476633594974425 5.66236321704145 4.65945219355828 -0.16508204934573506 -0.4596229995169568 0.201526151105382
Ni 5.398139817421933 3.1707079528344635 9.127334275172332 0.30473871663983 -0.7939399440345358 -0.025302740430846744
P 0.23534150444046825 5.551742073305994 12.366909774085507 0.9302045549279464 0.2186352999818428 0.14959398101246493
P 4.297033971316701 5.989311158800327 12.585216346588057 -2.2374487900529787 1.04184185419098 -0.3355197065764286
P 2.489727088788357 8.425329962336436 1.3602028338018866 -0.8073888704505902 0.9255742552447865 -0.13054802012460745
P 6.567519367786807 7.937248112354063 5.876417845909584 -1.2336906301075978 0.22490930591601266 -0.25149939769971524
P 4.772722994312669 0.954691248823951 12.64864064440751 0.1301484706933436 -0.5287591921929862 0.4205586865256435
P 4.0119174784286535 6.202840744596721 8.073108438646708 0.48323986760494836 0.7434984995545325 0.7891324953435636
P 4.4850808632002215 1.1365553059144022 4.0072735629837855 1.4829819644124007 -1.0686587172735078 -0.27962752339449903
P 0.14690886196605762 5.4349199898439595 3.484182203076495 0.5063114047124312 -0.440106526750584 0.31347326829935046
Ni 1.3993484157867666 1.1942738339387284 2.5683305628611346 0.4061525384026425 -0.21424385578236652 -0.5890001392619145
Ni 1.9972095300964612 6.525941387985093 4.846146646908735 0.224440079589078 0.18700198934727794 -1.0760357264638694
Ni 6.0205874314358425 5.5811716427236675 9.099100536612879 -0.4909354364769932 0.6119662611397847 0.945623460586178
Ni 8.682926956291931 2.254824628985464 10.14240819298635 0.1621903296202368 0.015041981934786999 0.8522098834200226
Ni 2.3680347782126008 5.294923591491354 7.001923710903896 -0.03848787166255307 -0.2878761365565365 0.4808546552022235
Ni 0.21974048323640238 -0.1548940428898748 9.534203730163387 1.3464147346769069 0.19897767365191538 0.27891532781882283
Ni 1.5685842817552078 0.9741721572788365 11.543378810815456 -0.5690247245812523 1.2128533816472724 0.24392132824214122
Ni 4.167638011533181 6.917007951763464 1.5832927297373167 1.4995244421521141 0.3728382405212288 -0.19860332103163214
Ni 5.781638518993854 8.09904285065061 7.964531341904332 -1.2673265729944883 -0.9265924120966559 0.015715353852727775
Ni 5.220593786973201 3.057597380741622 4.686175980663145 0.3715264636883408 0.03100159058783693 0.62126234172973
Ni 0.88286535660999 7.149955078747466 6.883131810676164 -0.9790123204592686 1.1270821515177234 0.43553124867507576
Ni 4.916557638569025 4.537277386504529 6.912531506953548 0.3012934384037069 0.004608959526921095 0.06271074876565973
Ni 7.968035551784857 7.247558775290485 8.701862906248218 0.13745426032613747 0.38832193797912473 1.3877902122999004
Ni 4.650342696263601 0.3737084587773298 10.459183877853613 -0.18238583073150524 -0.41099032611091796 -0.99874142345708
Ni 8.051073829320481 7.11571864948335 4.531636794470032 0.9736806238337102 0.7129879896705011 1.6994462248848536
Ni 7.033467936555334 6.0816191622921805 6.994676306020541 0.057280064668391674 -1.1836718749873099 -1.7717057936812133
Ni 2.4798146376925856 5.157950717034629 2.5741875088510557 -1.0562958248327807 -0.11841935518187348 1.103037194753378
Ni 2.2816108781109317 5.441111877103784 11.46709005249171 0.47426594624111224 -0.8437445262614889 0.5791343022114285
Ni 0.9873072865390776 3.3068842102168263 3.8829831944495945 -0.17307715173606966 0.7233719040079865 -0.4913864079714827
Ni 3.738442457786417 2.693262751288193 2.7169077944499778 -0.2699707170310253 0.4688355192541603 -0.29371176940170707
Ni 1.109524640186573 3.5046262939940194 8.341643528181216 -0.04733452341990558 -0.15403581883390247 -0.7831287123516448
Ni 3.3405412816086777 2.825627920167067 7.313478838194053 1.0371799299389364 -0.36101939350942985 0.5036091752899197
Ni 4.354390400670861 6.888266369819106 5.960550566675783 -0.14500764719336315 0.6519731405500255 0.3682951012352366
Ni 0.9302948509215733 7.600360562099153 11.71873233381634 -0.7893644088487115 -0.5386383989799111 -0.5412694088448549
P -0.025778709575733107 5.507231094275942 7.98436529656263 0.5164574920074977 -0.3639057139182894 0.49165663091373396
P 8.723590636951478 1.4824500605896707 8.082833503680668 0.48962263120284066 1.092368916406254 0.18705392563113593
P 1.9945571573375014 3.137820341116713 10.339702179659215 -0.4691324816692889 0.8295306966549519 1.2963178180205157
P 4.06625943635369 6.298507213254356 3.8118344267488427 -0.32427010180453825 0.2030670132299406 -0.2974563240458038
P 7.114641405939609 3.8933211114828103 10.364253374743086 -1.093160044848982 0.21677819216844602 -0.14422423206011936
P 6.2689599617688785 7.6584321363268915 10.297410865477273 0.5392732043504325 0.35100340403432456 -0.8352891964052841
P 2.421507699329241 8.40959677511776 5.9297060967044395 -0.008507523250378898 0.4998805614854229 -1.069064694462675
P 6.875701545964374 3.8660460291526193 1.6686973220824712 0.5823474098320873 0.3085601472684492 0.5849982171913731
Ni 5.311371923583607 2.8711799328738437 0.4262906171653634 -0.24123812498302322 -0.5053027609422589 -0.6330860738375355
Ni 1.6512876180209304 1.1911326279750458 6.877076615664326 -1.2592304262499154 -0.34688578232152517 0.377419432134008
Ni 6.959862329377511 0.6555542954271095 9.092833513878997 -0.2434988959927419 0.1428988283804765 1.9283289136263175
Ni 2.273445553098707 1.3604047038105036 9.188558823570533 0.704533945365877 0.3522658156865159 -0.13722003282814432
Ni 6.104422326045831 2.020764048590705 2.4861332594869676 0.6524624214816183 -0.33380092411310897 1.3761855381814363
Ni 3.9587885510486704 6.980574373310959 10.32396265571381 1.3338366409015803 -1.0408938884554138 -0.35216991353859994
Ni 8.281830259349983 7.165380482096502 0.43494749112233694 -0.4042504362839231 -0.6339620486845856 -0.5860472272811778
Ni 7.673196709602875 3.6354706484582002 7.94443214997014 0.4476861388700548 0.6282979084202728 0.8821699201172226
Ni 3.1744194642036567 8.280381864669323 12.263154926383057 0.584892030630812 -0.06062918364628268 1.4641974847160462
Ni 0.04943099471092132 4.727505922875796 10.179122282401071 0.796581495422441 -0.039667750903267164 0.3400301928522725
Ni -0.4465735741746648 2.250397972742695 5.86671903302921 0.6889530602084843 1.456125763451505 -0.34636102016630677
Ni 3.694782410631253 2.530010565844231 11.672214422906896 -0.624995326409601 1.1211706711292948 -1.0218504986707175
Ni 1.3392581414728584 3.394991869134764 12.797799949608644 -0.5736413974176573 -0.358694344920679 -1.1062459314986626
Ni 3.0567645538002424 8.439976853544616 8.013858233247582 0.989411918526038 -1.0194364899125863 0.24890952548535197
Ni 5.789668057004766 8.008255661573452 3.698527416127436 -1.194709363748394 -0.2575602591818145 0.05344526430333375
Ni 3.063137490395149 8.409533407850482 3.4762060746194314 0.19030122892384 -0.5851684242206503 1.1063791146424171
Ni 3.480438102826987 4.5465380599940035 9.361593104589007 -0.26306781926360495 -0.24551875463624812 0.3011448286409846
Ni 7.461468564690552 6.058743578804496 11.361837926788127 -0.9301665026011592 0.2537696817911307 0.008302349218108282
Ni 0.4853018374421794 0.04519262977663813 13.678606775278746 0.7255943655806021 0.5200513800063431 0.47017789221466766
Ni 4.602971137739243 0.30694017973890064 1.9018164459348008 0.16168510784904414 -0.1570064714264522 -1.2920801257900845
Ni 6.034673069705267 5.272111375270949 0.3806109646773531 0.8207781472733026 2.097111037531459 -0.292759947011399
Ni 7.744023209487181 8.985206926145805 11.55796595574306 0.5859050452763587 -0.7592480490793053 -0.6107665844047288
Ni 0.2045486335296231 5.074342134093494 5.689378493575798 -0.7419751209314706 -1.0221469468652138 0.23910642335200114
Ni 7.875428816890117 8.887639439469803 2.533538312138315 0.3264894780533603 0.14290371347648292 -0.10636962310619101
P 8.554798341853989 1.4895834043919243 3.789231322510458 0.6159239602359521 0.480066097862657 -0.31294079283464815
P 1.9033807121899144 3.2031067313474915 1.6966395712124411 -1.0984274638955083 -0.11616115527531608 -0.30058741347561785
P 4.758356729573868 1.264213192081129 8.298914979855052 -0.38262000249834105 -0.5110810581869326 -0.15747981151844492
P 8.655507034493674 1.7041359189315355 12.595140565890608 0.411458266886272 -0.37028642063365264 -0.4951782709137472
P 6.3540712541912 7.861877274159186 1.2986007975400389 -0.3099516282993372 -0.20273894046656052 0.9612627097853315
P 1.742717532237633 3.4165910548101155 6.014871703927285 -0.3340973723076053 -1.0021787312734032 -0.45050046839039837
P 6.791097191680285 3.9937853875201337 5.967797066312464 0.5119331217745828 -0.4875883743816312 -0.0429829313194292
P 2.4611303463120633 8.494436493537457 10.14953610530855 -1.7636960360028593 -0.2943473461031769 0.6890708167332713
