# total energy = -340864.8539916119 ev
CRYSTAL
PRIMVEC
9.27945235617809 0.00000000000000 0.00000000000000
0.00000000000000 9.27945235617809 0.00000000000000
0.00000000000000 0.00000000000000 13.58141650468516
PRIMCOORD
 96 1
Ni 4.433249178726098 3.386833152449945 12.904410379248908 0.4758618299733224 -2.076639657050985 -1.4795459421476584
Ni 3.3656760006244144 7.127269123962906 1.0160295309393623 1.1303898757347177 1.2582032705369814 3.3677579331484324
Ni 5.392586822225593 4.6388911267987245 3.7405937222063965 -0.9756871127407778 -0.7860173467533496 1.1028847283359136
Ni 6.540260234782532 2.169582404635186 8.4401307111787 0.7569417695436319 0.09686862559429124 -0.3127978394988806
Ni 1.288888121539802 5.420935549781293 8.600798864497984 0.8405910682341717 -0.41550415482087155 0.7376276425960522
Ni 6.759153241103781 0.734727566459076 0.8455400050358045 -2.004136347674936 -0.12275269244990474 -0.8964451990893143
Ni 8.63239632839321 2.434195273695202 6.866696528545362 0.02566603730753644 -1.2557077578086375 -0.8605708537902083
Ni 2.072370859668405 1.1598573337617295 13.342125868051987 0.8681386388351371 1.995123088432732 0.18847703123090767
Ni 8.632554079086646 8.306242129988053 6.6400087820778655 0.15878438926248137 -1.1575903474089098 -1.7644763658123095
Ni 2.0342787069298947 3.3938948158443436 12.325148905006753 1.1673037180419314 0.4407516165337506 1.6532833531755464
Ni 5.328976174960675 0.5494503049637788 12.026494364248508 -0.23478902692356984 -0.502635755633057 -0.9928199157663223
Ni 5.508375831207599 1.9654158895188139 2.7092753652373216 1.198525909281007 0.975731592825468 -0.10671903602580976
Ni 3.1914728378083224 8.465273387876627 12.531369890918814 2.9460965004769135 -0.1900055520602921 0.4171239498124817
Ni 1.8957921569982186 6.971893970381026 10.63316322036577 -1.754343391143366 -1.180165147385632 -0.338357690245856
Ni 4.093918157692761 5.5426170111357616 13.44420355793864 1.2188641066177266 -1.0211629856853899 -1.1126461785980515
Ni 3.2712111736139304 8.738840928652273 10.17635154614964 1.3129518270327711 0.14208301734740045 0.4417692591649876
Ni 4.0011514704998525 2.470032519462833 8.09065353672166 0.9604700386807071 -1.1863787323955117 -0.3708952578622451
Ni 7.211712142213928 8.518092031820013 2.424921388811677 -0.4132171585589077 -0.00947837180408045 0.9252942621105226
Ni 5.818662165743607 4.406756341681409 1.025775739957939 0.0616645668893325 0.14022436687210688 0.8491757245793891
Ni 8.233101484949092 5.143387123859528 1.1774298330652415 -0.965604274583479 2.85116725799718 -1.1053054219622642
Ni 9.279823733159562 6.048384293196608 12.380779223074322 0.4525635215670141 -0.35323203625452715 -1.2840523703896014
Ni 5.6427794220150505 8.173750106406944 6.850493676438977 0.7286058987134161 -0.5102547056308955 -0.7966324032650344
Ni 4.199527607221869 5.766159023187092 5.75261287834722 -0.22467842085212916 0.039113935282326186 -0.07233541633961736
Ni 7.774863558875249 2.864000957140348 10.650220710052476 0.8391777328264128 0.8983347028025431 -1.3133102388134545
P 3.4281638341301703 0.22366821260608055 7.248985847237082 2.6521037094996776 0.19289855733737102 -0.5760698043534916
P 6.961556660234692 0.9006367545814575 10.561059090177208 -0.9213648451491293 -0.40409385610140086 -0.8695272916525476
P 8.809921535224012 7.159144043489528 2.1813116326647783 0.4787568921329303 -0.7842643686179848 0.2442985090759018
P 3.1629014033913005 1.589783650090092 11.117693547309113 -0.7066561339152023 -0.5892765328517529 0.4403273845121385
P 8.171829259728048 4.4197661341636 5.806545056597213 1.6509364502099246 -1.7665386476579772 -0.13980501994650116
P 1.2189396081797796 8.413345571378526 7.314991521206461 1.2025764252012967 -1.3620357290436156 1.728116596236353
P 7.226382956703473 0.5403267472116464 7.032810792569211 -1.0338745197147874 2.2747030464187468 -0.024716014689441304
P 5.928753590856807 7.492814598464281 4.486906685180462 -0.6283308185407372 1.8981307927763824 0.39210531628095696
Ni 0.5509378012083546 5.156248445100838 4.337198493273955 -1.4026208495548296 0.057975548073519505 2.461569795739741
Ni 7.9496327682971994 1.4175941284784475 2.737592542654335 0.41826963338115064 0.4452708445603428 2.4166703641238896
Ni 5.644755945409277 4.758521829138524 9.173445944958894 -0.34366239028822104 -0.107793242926595 -0.09438391149922455
Ni 3.3067514768998003 5.135889326195041 11.244530672503169 0.4322374084151524 -0.43053430968111656 -0.8883847906786829
Ni 4.082161091305504 6.910092816364344 3.5038563286217737 -0.30214293088819577 0.6863385054037728 -0.19844262708405178
Ni 6.851743618698142 2.4937136823833392 12.734710534757786 -1.2152043983779524 -0.1422722505400711 -0.9777727916252127
Ni 3.5624653509595157 2.9880301199912447 1.5806999939839463 0.11094258718885411 -0.11638406991939956 -0.31532214858263113
Ni 2.7737861194000804 4.397606801462123 3.920180823394933 0.8461819320583879 -0.15699644412412317 -0.7304640349680774
Ni 3.4485322324885215 1.6686682762606346 3.7208739575816443 -0.7907085815814318 0.23763523812311332 0.649966651642958
Ni 7.101026832137204 8.139880104580985 11.785464295911915 1.9605301809492106 0.7972386693904657 -0.655511235610271
Ni 8.57913227072718 7.793255433839373 0.12708210274151055 -0.5481473669116109 0.8527788685496153 0.6330356802155743
Ni 5.007730806957144 2.4464070332576573 10.3680947301853 0.20971357201218077 -0.010601943885562386 -0.10888184800508346
Ni 1.1055446979569787 8.867463420517922 11.954621292428568 -2.901688149564867 -0.7853208349069571 -0.16466861595740026
Ni 7.719771449055874 3.0067653346999057 1.1208279563151582 -0.08834850393842203 -1.7232690383360643 0.889898399109732
Ni 0.18984182420712997 8.504451236564078 3.724431699691253 0.5462807460165172 1.4690874658184956 0.7289488838751317
Ni 1.7440359899128104 3.104524367367435 7.66566388915259 -1.317248397525596 0.7616116642154754 -0.052246101788910024
Ni 6.580514499966371 6.382305393390346 2.84290319381117 0.6830225536566624 -0.5528393730706413 -0.9574291949718543
Ni 7.509591848683824 8.417632678458961 8.579679758427929 0.05308093898537955 -0.5596965052017908 2.081274584719835
Ni 7.338033329845924 9.142385761366608 4.9412722957030795 -0.9239482896055894 1.3039748203451413 -1.123086657205085
Ni 6.7902950838785525 5.923037448082892 5.602334000108577 -0.5387939507211688 1.0269849916838054 0.5759368783200532
Ni 0.10785971677370922 6.093018459986433 6.792678047294692 0.13212024970773376 -0.3793999528991466 -1.0942229388958573
Ni 0.2811024562503526 3.7995832020988964 2.5624874170498915 -0.9342129047563911 -1.0658873251759577 1.8242779113509742
Ni 5.6118602861015985 7.480881222478477 9.50518544585694 2.324245633233565 -1.5818755908565207 0.9408152405642572
Ni 3.55265696960882 7.260419988675424 7.588698253770433 -0.7659432017112938 0.6308540991832232 1.028377501155958
P 2.101304192735074 4.971652295423081 6.054989407525297 -0.25083579597378736 1.1641278914171111 0.9227069609993205
P 4.364339964052243 3.326470313579297 5.1132808679899 -0.010273356901550049 -1.4268923205076844 -0.30547662324711905
P 1.5558858099064676 3.5192138226003933 1.0814710141933934 0.748102316875131 -1.0705171106384852 -2.5855753867601408
P 7.2798140445154935 4.276203723684308 2.922856812916055 1.0449456899272842 -1.6152356543742052 -0.1640024431283111
P 0.3199239739596906 1.9001998969618707 9.104017080941956 -2.174169827488675 2.7269806613142262 -1.0166676689181975
P 0.00421751118627357 1.5222385149418294 4.618251768425766 -0.638059615792727 -0.9075071133304307 -0.754598723232752
P 3.9065474517010426 6.563078408615418 9.657270105562796 -3.3722151975888375 -2.51618491198146 -0.16511855901062533
P 8.504915209191832 0.8622578667589959 13.321020681160764 2.0963003687047057 0.17825946726795752 -0.02286173508952192
Ni 5.324206536347376 1.5223034711097148 6.217558920673113 -0.22825096869473593 -0.8515491099075722 0.36201826708758944
Ni 5.706798365192391 3.800167807609865 6.681513917466127 0.404440183697226 1.3158420040963725 0.8600196092724284
Ni 4.379892326534518 9.060578107641222 4.9280574273194215 -0.46582707144513974 -0.7949516731285019 -0.26926160677914274
Ni 5.195769633532827 0.21424121675539778 8.89114272754792 -0.5470533625164836 2.606518564670711 -0.5837010956465044
Ni 7.995148483079755 4.291459143684822 7.99353293038992 -0.5025992459681667 1.2704404360331216 1.2003850739769328
Ni 1.4099385801205253 3.021222721780685 5.398123871565196 -0.6484782400228897 0.27447426132833375 -1.628009666210422
Ni 2.1390994029918224 0.955152610397164 8.98221962643055 2.4120161531813293 0.8299718979574287 -1.4463208615459415
Ni 2.307948321683646 7.605782653869548 5.5416797864277 -0.5826364018274158 -0.18897865345767453 -0.7226075150381361
Ni 5.949817948156788 7.196456722213414 0.617347131363878 -0.4786417067113047 1.436818064261829 0.572691374799562
Ni 9.015628439464523 3.5192602198631686 12.79915447686215 0.19579130550413376 0.15144671795048756 0.2580909348743039
Ni 1.1191298164975827 5.8180868396851935 1.099277355701293 0.7637428516258653 -0.2486603855890234 -1.5795392294138602
Ni 1.604992672827831 6.646936821355472 3.119461502145311 1.1416785612746596 1.5235231190595568 0.020057947092139646
Ni 7.655687549710648 5.36779212499848 10.264114752524861 0.7508400275212682 0.9790372601599333 0.3772805925632986
Ni 3.6198773239176556 4.737958562276517 7.908743788558594 -0.9373167404926954 0.9887051222670005 -0.00949482686431268
Ni 0.8024610744942063 1.7978660941846982 11.192446033256887 -0.4110124375981051 -0.02387654950728146 -0.17540991363430436
Ni 2.5315367309977534 3.2188472228457417 9.75182401531781 0.5697814002416187 0.6872270786563133 1.6995035604853506
Ni 0.7327194929261617 1.0104303092676408 1.7947166479875118 0.28653504914760974 0.6044689243214751 -0.45664103407049744
Ni 1.6495433245446613 8.392763745611408 0.7277197238894968 -2.3998867169076474 0.20003234016867485 1.140245428372559
Ni 6.810654202784349 2.819645173927174 4.685290245464522 1.0640811252051545 -0.0007024253836633063 -0.33737295773508347
Ni 0.38225127293624434 9.092517983335728 9.632252701474364 -0.581912636287514 -1.0695241505975968 -0.3646071108606882
Ni 1.6276066987045057 1.0511299881741223 6.4704045159480605 -0.4604786626490327 -0.6543478114297892 -0.9888154225926197
Ni 0.6885817768480312 4.297648538539045 10.70514393383535 -1.1937829952793828 0.8316824528906323 -0.690739719795262
Ni 4.6155997008855305 9.231422108632383 2.083565591230826 -0.6043992474258042 -0.9047506336312159 -0.21198077077980268
Ni 6.8164631400838145 5.8410163669487405 12.666844330551118 -0.0499130827803592 -1.3587732562422599 -0.8358756650363733
P 6.638464681172704 6.33046109196524 7.759919000535329 0.5380676140781057 -0.5935373650106358 0.9590564461626321
P 5.851919723700933 4.175865003206472 11.387651381040842 0.921172012412033 0.7774334617390805 0.2947810912064859
P 2.6676384616227797 8.79758914277834 3.349462941120218 -0.1898577136285182 -0.35637083899382493 0.007693511989515783
P 4.300534448283668 1.1164573341617263 0.15737858738851732 -0.36280476754462676 0.6715266372019209 2.4330079249416485
P 4.033815143493654 5.172561722692628 2.2225448800931757 -0.7771984629101388 0.2321657303681098 -2.0848820995654354
P 8.796030194749092 7.3745758140077395 10.375292801532257 -0.1612642182615416 -2.0089080580319663 1.1082495921922526
P 5.169545900612235 7.452671686711102 11.83422225141721 -1.190362142523292 -0.40731981923786625 0.770662461563834
P 2.18485638354081 6.531973683650866 12.807357512920818 -0.6265089348406501 -0.638573579314668 -0.5280593379124842
