# total energy = -340888.51719891606 ev
CRYSTAL
PRIMVEC
9.10580028293066 0.00000000000000 0.00000000000000

0.00000000000000 9.10580028293066 0.00000000000000

0.00000000000000 0.00000000000000 13.32725914246940

PRIMCOORD
 96 1
Ni 6.7831656865169325 2.3060621649901547 11.508048053532644 -1.1719826115748395 -0.2761758174004727 -1.2104535139565282
Ni 4.654338820672958 0.31803464853878805 5.849014370755126 -0.3890343906651171 -0.2649462672332405 0.3040923413050827
Ni 2.9163055909498525 1.7808578090431055 4.699711202947186 -0.19898847228519279 -0.38242357021681883 0.3482903759785357
Ni 3.3885688233233355 4.523989287828857 4.694700280982526 0.5337869844248807 -0.21895514521510678 0.31336296797373125
Ni 3.7495318573067773 2.602601661085228 2.5456931402737872 -0.3061052579700535 0.5364707019046309 -0.48895414438090623
Ni 5.228778239427415 4.413217225862494 2.530859791408748 -0.24970862434787958 0.5680122241563379 -0.33488772941938455
Ni 5.296725722073777 4.6452967608675655 11.55189521423849 0.6932524589147867 0.15741656238067728 -1.7214188725012032
Ni 5.733421698052636 8.411519550322664 12.549760726036864 -0.5354497168392842 -0.9546981691939365 -0.5247536705780189
Ni 1.5117631953784985 6.673031030579147 0.11777624364038848 1.3646212303826046 0.21071913045855967 0.4627386623278031
Ni 2.6866664104541926 1.657629012118257 0.2879864177716035 0.40337240455434403 -0.1455429508715429 -1.1212215789718885
Ni 7.955428219474235 9.11955016686656 6.74963084477343 1.4132765294964629 -2.2964185837189675 -0.46005571617900126
Ni 8.763668169510922 2.5623267058795376 1.0722517059134091 0.4710068158738662 0.059961211044980596 0.06283056217297565
Ni 6.798153833988912 1.0053258940728527 4.811167110524208 0.27752024724350915 -0.30984081375308575 -1.252965933397442
Ni 0.7032819416309926 7.506830962361793 2.5136944470591556 0.521394781408115 0.39416194169966956 -0.8754300302902277
Ni 8.030104888622292 3.757945616884001 3.2810912399446774 -0.31597880833002356 -1.4045669175376068 0.9885300301417169
Ni 7.677136747397294 4.305868944849634 12.363858526062112 0.7977603462218906 -1.0261933490204456 -0.05624622408723861
Ni 8.488891536391566 7.340959702125109 9.318619354231643 0.392061350416899 0.8034771941010098 0.002351788061628208
Ni 6.909754523792425 1.0759595878396486 0.19641757828619966 0.503479591690591 -0.5057259645226064 -0.19111164064027733
Ni 2.125913009713335 6.734267538324629 9.114685848288472 -1.085730328043814 -0.41514651437113664 0.6391649330417637
Ni 9.371780838175088 5.091134960456306 1.316245270172634 -0.08168111922057546 -1.4181703672536543 -0.2966777940085664
Ni 6.772694016047446 1.946565164872441 7.195081137264779 -1.9998678022065686 1.559153980889289 -1.963124424038948
Ni 3.4702751703865635 4.689614691454518 0.4739386996486013 -0.467707319186988 0.0144763392393041 -0.7091842996536948
Ni 6.1523340458341815 5.55059543745579 4.523538550708649 -0.04064219900139452 -1.199664136650508 1.1483708856931707
Ni 5.539049282538129 2.9180265872270117 9.045477212285567 1.0505743489679713 -1.2607278367310482 0.45000578814216696
P 0.003650515383667466 5.808508128219066 12.025079043033248 1.0046032815544956 1.4652297826353025 0.8952208397639098
P 3.9191729189124773 6.190132223328828 12.251629536030428 0.26091426325571193 -0.19413371529605275 0.9171688047899107
P 2.3932502038991497 8.467611280837486 1.1386912680121652 -0.8298160891058547 0.43263104430914523 0.5341309980278608
P 6.5590901500707135 7.935695949989556 5.543886283714992 -0.4924649857476422 0.723546739022954 0.4201308549596055
P 4.7378663278178355 1.3046335534920335 12.555517413054961 -0.11533608827085945 -0.26610403498676755 0.4885522809567973
P 4.312042677526428 6.004774550218488 8.251785599561142 0.19343411812586683 0.5392840029837099 -1.838209948051034
P 4.818580142636565 1.1852747217406912 3.750436973867358 0.8576277120014844 -0.37536820603193416 -0.5933545595758684
P 0.26299554855116114 5.538229760501387 3.4354746223863133 0.6609059242632811 -0.11871348938352458 0.3609584583645074
Ni 0.8102359414861757 9.232735265941109 4.512276496763725 -0.11347075292734651 -0.9475515308468262 0.6985070224455067
Ni 1.8019923717906539 6.558953563064589 4.787511151643615 0.5144862272137397 0.10098110510076803 -0.7450517029742653
Ni 6.535405963208856 5.90303544225711 9.021528046631829 -1.3920237907652735 0.3471629472423118 -0.15556999609024177
Ni 8.746066657321773 2.2730263211090236 10.052138927278312 0.3807027308709702 0.9443499931903929 -0.41102169356948565
Ni 2.5623084942787213 5.557534057366877 7.042350457597241 -0.15114409910840418 -1.1666745690983649 -0.430856983127858
Ni 0.844453718260298 0.3882886304285601 9.093442015936025 0.2017511226319945 -1.0735199020205513 -0.008601625626081959
Ni 1.8330795743844197 1.2337266857129898 11.296358226801727 -0.49171910872055313 0.44257144335130877 0.17319670803306947
Ni 4.271030152487669 7.1003116089358755 1.6922683874512812 0.2026348107885284 -0.6836360188709452 -1.2722633481744734
Ni 5.92264933633648 8.003743596440408 7.740299131929121 -0.6889831421154715 0.15590989592816373 0.47176014910012304
Ni 5.374024861739413 3.1044132157834827 4.781100668156207 -0.17686078714821798 -0.3267640718709856 -0.11903950526437564
Ni 1.023109522270165 7.554445192696532 6.895004037711101 -0.7300282329822396 1.7900405874346592 -0.5362205335670378
Ni 5.526474172174336 4.538421981475934 6.955189736089471 -0.7317459870042946 0.2835209449116343 0.4191294102782846
Ni 0.848454806959683 7.817475343289244 11.367525520472446 1.2623018660863872 -0.09526657121449399 -0.5821769456924941
Ni 4.953154766870092 0.7040240643642649 10.507038308853302 -0.21901299503623572 -0.9554553590749352 -0.8020358336687928
Ni 8.353661294528644 7.117421407902977 4.412455980948365 -0.17841656167111208 0.7824388853734718 0.7623490566021321
Ni 7.258907334646367 6.262896674391154 6.566047892162658 1.3730215386311577 -0.7931434162751696 1.039312145790591
Ni 2.530656732059644 5.674170254796152 2.341786041151802 -1.194705507093652 -0.7153881144715615 1.428465321421759
Ni 2.036120711887581 5.600486117892593 11.212715986571705 1.9831934268746814 0.7816770675067828 -0.3396267867662667
Ni 1.3274982183171495 3.516059134839245 3.876059685719535 -0.5326816671758439 0.244676718350927 -1.467318546843531
Ni 1.5990513980919838 1.1353658297030724 2.3575918895004424 -0.7399143817476999 0.053254488448766346 0.42944904703673786
Ni 1.4143493426110387 3.28613767453093 8.197797308940627 -1.1883764795518308 0.548375937982649 -0.352320065963219
Ni 3.749586492109227 3.0143659555462974 7.074788960971591 -0.39895267822009356 -0.9030341651607414 -0.8311337794760139
Ni 4.469764246397728 6.787991760733305 5.942731268556836 -0.1573090902685355 0.3186895223929673 -0.21370546678039323
Ni 0.30256935712541605 0.13430145022128076 0.2790845872924982 0.8384154007390915 0.24277333068062704 -0.44542999584602644
P 0.40041118251206337 5.97516248729086 8.010562019786107 -0.8438052042960952 -2.4752647767283302 -0.3059607619723892
P 8.742296855952759 1.640555636352788 7.759117179052811 1.8672546720228165 1.1168453042810635 1.6428374752518737
P 1.8998706203789344 3.5721872885556984 10.340607041891511 0.8251685630315144 -1.6230147840989921 0.1265558682460788
P 4.195078671282455 6.28144518982276 3.6933299466070175 -0.37717851976779554 -0.43168384990452746 0.11934546654056864
P 7.0801877900336425 4.1231883770593205 10.030015474606426 -0.16160257543756684 -1.2299062233645013 2.077388362291551
P 6.4588808165779215 7.864606966202348 10.031668177380524 -0.15048024027216023 1.019923456851334 0.7685608418397989
P 2.5603689587917637 8.48876405518585 5.639883273938928 0.7595840922624854 0.7251333667837835 0.14379357228060397
P 7.088792771419438 4.054093563561518 1.1208794118335872 -0.5625303751061603 -0.7726818059867079 1.2588972112802126
Ni 5.108299394225858 3.080974885532647 0.3465977232593869 0.8075194824911834 -0.262557969506722 -0.13088997684505846
Ni 1.7268330952209576 1.1996709921861346 6.829140872778187 -0.26161026088147205 -0.09324491279877489 -0.084271505655571
Ni 7.087244785350036 0.6316202029981051 9.191104457054632 0.24964074722442167 -0.03234190666581527 0.18566115904866734
Ni 3.033123904387293 1.7875596781435776 9.10059917505691 0.5945766049084276 -1.2747372636362626 0.27312083262423287
Ni 6.423149655775948 2.03180456249407 2.1744359989288182 -0.3922307861152277 0.9020334918103691 2.0068100378523566
Ni 4.296562816832402 7.073759094945418 10.07544795516335 1.2034344023262178 0.21721296571301943 1.5533224618091763
Ni 8.213040418824038 7.111202146224143 0.4091108642221056 -1.0367150744873757 0.42888186167935816 -0.036589111977943435
Ni 7.8033704584568655 4.080664289152793 8.02882097076473 1.2779025487381215 -0.26002800399601667 -0.8865292255271828
Ni 3.243750173630526 8.239638461816536 12.442888678385355 -0.00044325818500568826 0.7855974856071115 -0.6000065176747472
Ni 0.18480950392576243 4.877412719074268 9.948799019605161 -1.1848288714098885 0.20588134275028414 -0.32402250457010645
Ni 8.733327642550632 2.489434773611496 5.591678077157692 0.7888861836607124 -1.0281892964045518 0.0930245692578527
Ni 3.8673427029887173 2.938751388956189 11.28019269933696 -1.0096971511376354 -1.1807760414967536 0.6780865498076257
Ni 1.3177003770778724 3.899777564042904 12.53592628347661 -0.7928850204074602 -1.782944856930142 1.0216262984750535
Ni 3.278625389194124 8.348170496882469 7.910274376409803 0.9388748290084348 0.9079488288535394 -0.7418465657734062
Ni 6.027202136624009 7.628238599204991 3.5290713236226345 -0.9173199856557943 1.606641484947291 -1.0288143315830605
Ni 3.1710039341690157 8.582927137207566 3.293925865620106 -0.09019455600822532 -0.49434471926885826 1.8093125482903938
Ni 3.779781326262985 4.162470800020512 9.240641832435594 -1.828014238464955 2.092831436319499 0.28808670990544577
Ni 7.080643080054055 6.517467536404602 11.569340106660617 0.3221777380518839 -0.06866156703245595 -1.016444754274114
Ni 7.9962768401056445 9.283727748227308 2.284132665866966 -0.5177224747628503 -1.9599807362036437 -0.3247436990068472
Ni 4.438085166777426 0.3794259548912102 1.4717696094054231 1.0888403344277053 0.6856355657994772 -0.6389427897286286
Ni 5.928258509387963 5.636481346906405 0.16973029844970028 -0.6930295442707032 1.483500298809716 1.6417362717678952
Ni 7.999982900871801 8.882790250451649 11.567807600451907 -0.9414173929246302 1.2414995846290555 -0.46821716894387105
Ni 0.2897156092691302 4.843502718353945 6.064475820015139 -0.9161285364508546 0.8055060516055805 -0.2637519898148232
Ni 7.2645165076978495 5.7641901976321135 2.4732191642444836 0.27504633178171983 1.9393368347010471 -1.1945430133738588
P 8.782089203736811 1.599233514100149 3.5171299769672553 -0.4960915267566359 1.8304372460841507 0.09386223466779964
P 1.8725350075533675 3.2216503960397027 1.6171692091642793 -0.27474911225627524 1.4316390911640506 -1.019534191832715
P 4.98386863164712 0.9585858205773048 8.039762500535284 -0.6163343083004934 0.45264913930228495 0.27990777363907926
P 8.884975642549628 1.9072918477116583 12.242020184859602 -0.2019879212331489 -0.7677877111192003 0.5603071422025963
P 6.219088668627063 7.912357783543212 1.297053885232206 1.8669607949314815 0.08510094353540183 -0.3075571599252316
P 1.8246840264080133 3.3836152679012472 5.955805376783001 1.6984699770145133 -0.6869573699346944 0.9961158129087748
P 7.158943857764598 3.8800452945582267 5.73741185979153 0.11456090066773172 1.2060576988816778 -0.08239100080340649
P 2.7492778940613207 8.608760292965771 10.122026855991672 -1.2021619633716973 1.4477961605398872 0.42905104026737073
