# total energy = -381173.5271323185 ev
CRYSTAL
PRIMVEC
9.14719569793941 0.00000000000000 0.00000000000000
0.00000000000000 9.14719569793941 0.00000000000000
0.00000000000000 0.00000000000000 13.38784551664466
PRIMCOORD
 96 1
Ni 0.4430773596670848 -0.05663120406937625 12.159042684123564 1.065947231879616 0.9226547676051464 -0.20155649012268514
Ni 5.303653905424429 0.2589982761742427 8.021809919219208 -0.6950892550132093 -0.391959534731712 -2.263694354013069
Ni 9.162105753744784 5.926413291551494 3.120211859067084 -1.8849752292310311 2.5457999066344157 -0.7426587772620564
Ni 0.8324652534419689 0.8564482861743584 4.962272324775952 0.4283594135169848 -0.25543909907375356 -0.9162648049184027
Ni 6.932257238810746 5.085795142471104 2.329243774202772 -0.39245344364899504 0.6032692475864191 0.7500378433349469
Ni 3.703626411794009 7.563688166579486 9.190341317816008 1.1079078925821177 -0.47886256447285913 1.961084510790784
Ni 5.350322898521288 2.231613923728177 3.865231749865513 0.504477436827486 -0.5939155742856611 -0.4741651589971899
Ni 4.412634707350764 8.457524700967113 11.791384868749482 2.2215007513641547 -1.3483577173358907 0.7942574752749547
Ni 3.523984632995657 3.9475729772389534 2.4329327271915497 -1.6287223760067304 -1.071008191342291 2.2231495998214874
Ni 8.230052235202184 7.330516997815862 12.397506420391274 1.531857092846549 0.41470042797265355 2.357734766129946
Ni 3.115233040379781 4.879663084564853 8.228853037829586 0.1164966842378639 -0.5243044988557423 1.9426108774666284
Ni 1.4800437259997878 6.9026203243392015 8.51713331727738 0.0908869540895596 -0.4083947974695999 -2.4960135792399076
Ni 8.534059288431129 5.479289212451629 0.8202080110370709 0.8701731527666627 -0.6550034427359172 -2.1705502284582168
Ni 2.5237296223852055 5.507810169032577 6.09442806973726 0.4402548794029902 0.7984409172286829 -2.5136937701284903
Ni 1.2966698913050185 4.188656470390814 9.562281850275143 -1.178423482104177 1.0702479161374987 -0.6027866515230458
Ni 6.689152215381661 2.562495438289652 12.713861273263777 1.6613077661419196 1.9811889948501427 0.21540342330810647
Ni 7.8110557832628125 4.864414709125326 9.382576955825602 1.3086182326544238 -0.4247493275682233 -1.5324386763816318
Ni 7.261556288494574 7.899500019690393 9.137927885741332 0.14543753564193018 1.3139039065333953 -0.23426914986435785
Ni 0.5956315474701951 4.416677767905216 11.796379237669687 -1.5302025879622614 1.3494429799802696 0.715621056417974
Ni 4.065087001996957 3.636239020154544 5.498040049172375 -0.41992413826543806 -0.5760551490654724 -0.14268671236967037
Ni 0.4535993790240655 0.21361446409073406 7.873124080530301 -0.28867909207380604 -0.1369932615293189 -0.31541599384801805
Ni 1.8535877618869674 7.033077631188944 12.161907585855813 -0.05057102807933226 -0.13230742601787537 -0.6972968041874894
Ni 3.5089100542767966 0.6709394959741392 10.469121123527371 -1.0514323260928924 -0.5622691510249735 -0.1677120307694144
Ni 5.6328248943667125 3.5124957550400207 8.444396645519717 1.1036632583731507 1.9302862944630046 -0.21027073006723143
P 5.33519343662748 4.38450708019027 3.7208835114366066 0.6791401878831207 0.8438286013348629 0.5862377460254291
Ni 8.57363920476396 7.9290546093995165 5.247179118403653 0.22381298752804032 -0.6097743956947885 -0.07853614583369055
P 7.764295318207709 5.2485694921689845 11.927057906658384 2.067928245319916 -0.328274337867925 0.8842070051519094
Ni 7.090476284988001 6.080067887012298 4.955698235136849 -1.574263582837218 -0.5402563941993083 -0.034692152065546704
P 2.4035171748589597 1.6263256816260037 12.032928465851317 -1.4598656901099119 0.5521228066195911 0.39263650619407864
P 3.751887016964339 7.143712964686887 0.02355677340696559 0.07812734043104609 -1.5581111414470714 1.2838520814533374
P 5.46867846529515 8.960666207296528 9.888677580004261 0.7728599834357851 -1.1684709988771553 4.003776864362047
Ni 2.070714749174329 1.9836517393162547 6.761129669885886 -0.29494229937469846 1.6154426281786889 0.26548285646300085
Ni 7.590983398919946 0.7891322426623245 4.682586750524906 -0.735193836343579 1.325762348533878 -0.47812311520367334
Ni 8.104955185105629 3.814947784978792 3.7620248540966887 -0.1789204978907241 -0.8838048846174843 1.7119708397144258
Ni 6.563780749410368 6.802531707626967 11.126423979966269 -1.9178519253543935 0.5832840627137438 -1.3177695601363886
Ni 3.7712607777207374 1.5783211979387612 1.5970894143315746 0.2424714831694921 0.6852043917993296 0.6909788323892616
Ni 0.9770943107826884 1.0426156744739457 1.2008658211170036 -0.45401259530871485 0.07101155532187126 0.5144510031004301
Ni 1.033139179599711 4.342018355585232 7.178710135911618 -1.5966686900052953 -1.2651048827528213 1.0673795934507682
Ni 3.112287643324276 0.20335405453433547 5.865523153106208 0.7051661796332371 -0.8681679494111758 -0.9627418654340193
Ni 4.525575134196492 2.363745167413813 12.185657365094677 -1.218799057707746 -0.08642866120788986 0.11745647704797191
Ni 5.461067998369124 1.5305270997554834 6.200112026135373 -0.34982378190392655 0.48958175066257625 -0.6170133366453889
Ni 5.727635579088182 3.1345336235695833 1.3987754646965667 -0.20201543203697467 -0.4862940810502399 0.5394848061406065
Ni 5.648786751080554 8.189731396007565 5.447688395036553 -0.8232240377106339 0.26431454718651254 0.5060874616270833
Ni 8.325969730618423 2.7677768069842204 1.3432428388457187 -1.044665182572388 0.5108164916716363 -1.175270281187176
Ni 5.767718591191364 2.0519538505381756 10.158590290236356 0.17014583702188762 -1.704104806702788 0.48820801024350113
Ni 4.51891597563622 6.451187916005972 4.1395488348871305 -0.3469297481855832 -0.6692715226191571 0.07318362327252556
Ni 2.650070691113901 3.706992579857444 11.358957589180923 -0.01523455756156731 1.7856663696263635 2.9638599951079216
Ni 1.2507692626574227 1.8418976456231917 9.890712831075222 -0.04823929462236208 -0.24673668620374928 0.7335051357872465
Ni 4.861816905511154 5.310486860705369 6.979646116218997 1.7603518021209748 0.1962978128269071 -2.241237053450818
Ni 4.832710528397433 5.4539697744092726 1.6286847434291551 0.4036490552544984 3.574670545376708 0.5517034596939854
Ni 7.105175828678054 0.6109787126246263 11.828763969766925 0.177148750702282 -2.15252165309128 -2.5903540390957067
Ni 1.6012623650667344 3.5008971107344906 4.814845140232503 -0.48814964620173995 -0.26134775124870474 -0.08979089281190343
Ni 2.7843698202099554 0.3903117605531637 8.37619972704978 0.15410472439862494 0.6393140570251182 -1.8594770849599267
Ni 9.020873050213721 8.540736741383052 2.8983210121942964 -0.3928702194714395 1.2036552600877721 0.5902882619457188
Ni 4.409323422462276 5.918071048959504 11.711486857380779 -1.609194076165816 -0.07553129756909573 -0.6672807174413734
Ni 7.413619271881905 -0.08686177154993407 6.763740279574212 -0.4889163491644354 0.1445538474853962 1.9218283935036382
P 7.920575158870158 4.201197275866273 7.309924830575633 0.38289356787470186 -0.062333310821582964 -0.12213099970550578
Ni 3.5902652139403513 2.6901811448045563 9.857256962346927 0.7149980781219945 1.562835029285302 -3.2837494513462606
P 7.868390406691097 7.41211913176668 1.5159858025531951 -0.8821028143247132 -0.05628839017908371 -0.4856752165193184
Ni 7.0201617906846785 1.0512963633114443 2.4236153935246625 -0.8220629275229971 1.163765880092002 0.21485037901811385
P 1.4412870572911662 7.778866801156218 6.462326456361527 -0.13602961206446895 0.4090406585837149 0.030671203831611697
P 0.0632071231476458 2.046602740980813 3.1775922184744907 0.40521717107256666 -1.191192094623755 0.5751272379345643
P 6.280748216207118 6.985137177872474 7.257698001295778 0.3134107904925312 0.7157596388783674 -1.0900482386928774
Ni 5.6751489694469095 5.9502966198493965 9.07098870669727 -0.6693404281838794 0.4882563469829333 0.3754995894034759
Ni 6.435436444796096 8.123395931887922 3.222654963984558 0.32845482930984726 -1.1186080526084412 -0.29647364841756035
Ni 0.8770834452349626 7.545841987525787 0.8639508161896551 -0.3196161479722947 0.34014229295010456 0.3183588785264259
Ni 2.88110141605458 6.760975996996033 2.2299061422677333 -0.11029235519936488 -2.190875056058498 -0.04047122064116901
Ni 0.8320216144444782 4.036547751024359 2.320113958050288 1.5708743546500106 -0.45037731254897273 0.31315419439703485
Ni 1.936918715848625 5.306151089884532 0.43701276883540763 -0.9005466228521974 0.3920148134496797 0.21920634199396444
Ni -0.11701367314640078 6.662982088127621 10.234057399947648 0.3301733546628507 -0.3789124717397668 0.7628653341169184
Ni 1.442229218461095 8.546353119619326 10.097862971876745 -0.2945679467544152 0.29591803302440645 0.6272969779595843
Ni 6.019824455311807 4.933274799292545 -0.19718701510942332 1.7113005531202783 0.23975099891453547 -0.27977947559133104
Ni 2.287576467782779 8.81618624924775 2.410990433847618 0.0647725163906949 1.8250135039654183 1.5084235444139569
Ni 3.8534757737917995 4.242734692105557 13.49842906520965 0.3802677002160806 -1.1585995053997142 -1.6919211201524025
Ni 8.04517826039219 0.4445903058564655 0.5403696786157541 -0.41839047522973105 -1.3871515502746368 -0.29168394033840084
Ni 5.575810422792289 0.8135076900955874 13.688804163588532 0.743243703231249 0.14154180013194978 -0.20226431482298712
Ni 8.774145737238113 2.559284772555235 6.042014637662584 0.14475927862798293 0.06978513911393787 0.4461072244187092
Ni 2.1372880403854095 2.9079667301912857 0.8542145409540032 -0.751225435885145 0.1620651168962822 -2.1314303796386196
Ni 4.506146490265146 8.584560956578473 1.6684466889588951 0.5037007065624616 -2.2030533432922446 0.14495802490235035
Ni 2.9509676977624983 1.7677779178568567 3.9229999503758806 -0.1056124332251923 -0.43876955310671534 -0.047699362958492045
Ni 0.04528502236860348 2.252387205445732 12.438968829624796 0.852062559208881 -0.21552657914953205 0.5078877480606157
Ni 0.17112848364444314 5.670685137884528 5.395315210623505 0.13224880486579804 -0.8569288861622468 0.9832631253158228
Ni 7.297623681630778 2.0194538637735464 8.053270784538169 1.0759562793761859 -0.6362619004623559 -0.038291953601663084
Ni 7.943516325998132 2.6982306771301605 10.465305828148951 1.3028126817162402 0.1839536894392574 0.26489638783191155
Ni 8.466699338379138 6.423124319216251 7.694062233947226 -0.13894292905652197 -0.1485053759339765 -1.3884227036775767
Ni 6.288660540595354 4.3620690088326475 10.818999534377273 -3.294003267863785 -1.489766591434402 0.9356488658719693
Ni 6.066155002163156 7.580610478854905 13.394941350529013 -0.08573009247896848 -0.3766357598904481 1.0379702870507157
Ni 1.5004053839052378 7.459227190263116 4.322988529391837 1.855426826149953 0.45525649501814497 0.025742141961110503
P 1.9179291373168577 5.403495547849401 3.86023829566489 1.6938458479789409 -0.6180286652837808 -0.3952011815974613
Ni 2.7247941338046564 9.05723315361631 -0.043991608879012004 -0.5560722781856423 0.7118088817607354 0.4068084268190864
P 2.2815484657344 6.1509860962400404 10.280567231837159 0.7952746036855594 -1.3883964784253313 0.47391859020402255
Ni 6.590563738784652 3.5372023309621325 5.738244496805495 -0.6056999685150988 0.9407478776614314 -0.3227140701713281
P 4.4298497298925685 0.09229063227180496 3.6848710014753507 -0.1781036584163836 0.17971933964293563 1.2080263925722743
P 3.9424322531855562 2.6442439273736618 7.7612282634477365 -1.5453160465649323 -0.8484447599506356 -2.0461111494448243
P 8.42021328919877 0.8047666297656467 9.694112151218151 0.28951701459406914 -0.9070134615234637 -0.22131721768938015
Ni 3.6263691958598536 7.287305644740685 6.938933777043086 0.5509025610592447 0.8926520505954691 -0.0580141146209388
