# total energy = -340863.5730142199 ev
CRYSTAL
PRIMVEC
9.32989047366327 0.00000000000000 0.00000000000000
0.00000000000000 9.32989047366327 0.00000000000000
0.00000000000000 0.00000000000000 13.65523778798927
PRIMCOORD
 96 1
Ni 8.849625105465645 9.101438851450478 2.8277815994275457 -0.3378550395778246 -1.3650488048383265 0.6489670067338501
Ni 2.241272957732735 5.5583942547393885 1.526546429155902 1.5729340653925168 -0.6839800324739252 2.7059222979820303
Ni 0.6476446155115883 3.98876145802763 13.289769467341737 0.15684423481697501 -0.8286935454656372 0.8832189302070274
Ni 6.589580407943304 0.449235163043509 7.259547719588396 0.27021034384565723 0.46618676877740356 -0.06895904366821672
Ni 8.210191726628427 8.744766465557401 5.263219842416485 -0.48458095501387516 -0.6964015460667297 -0.2541643461263881
Ni 0.0994892878958602 1.4847681122553655 13.533364512739759 -1.5684176655794022 0.8434578482590055 0.781215554489332
Ni 8.970801723948455 8.493736430378892 0.5086535040097561 0.017111205758989886 0.8841463271173031 -0.25269033268402286
Ni 1.9500310942772865 7.751114462042147 8.828220470562407 -0.5671439626187716 1.5970366148676753 0.3126895960557905
Ni 7.835493992189861 6.1073836745704195 3.1890713481545587 -0.7701693239774995 1.1700439997912302 1.389996733032916
Ni 3.4040012378221687 3.4750950038245563 13.196776582236883 -0.8703585293045915 1.4616436079459407 -2.4711651527376604
Ni 4.574277399367762 2.00118688417113 7.6751309004017205 0.3509553244052085 0.8600232088168542 -0.2030708698846825
Ni 8.371953369010235 5.469629676032471 8.899446721010625 1.2660142819409679 -1.1470819916784178 0.05384352818301695
Ni 3.8798816352916905 6.098408319859882 13.134604990568889 -0.7530645459764127 0.04500253285261927 0.5794685456223956
Ni 2.3392554683045286 1.0214550773587066 7.566380763144448 -0.10826375480511032 -2.5465840930986077 1.3365126450718465
Ni 8.85758350210607 1.348859596591747 6.319807555635899 0.05357304813044968 1.251362336355748 -0.5623241726326251
Ni 1.7799378596329927 9.34500497418779 13.020706619705303 0.4257502580289119 -1.3247333930487315 -0.15810304692474064
Ni 8.446135328785168 3.033362005773504 9.65579669030484 -0.6492310590285142 1.7476703499985644 -0.24658267712438822
Ni 6.898166537933979 3.7405956992484315 3.343389603854386 3.220490543386615 -1.027776120126533 -1.8153453847480348
Ni 1.7339041796519197 3.2239623398499826 2.6176547374158448 1.710815385953744 -1.979067834742082 -0.3025489080773628
Ni 3.785519122253877 6.510183039350086 7.950189135706547 0.7579573552923398 0.007863719018792908 -0.17510652346127265
Ni 6.223475502702664 0.10839186946009613 3.5378805022908373 -0.8582077528746703 -1.527710160557711 -0.649020742789921
Ni 3.8702065387897915 3.5280048131420805 4.9824545130613105 -1.2362010552342775 -1.1413528025041244 -0.7088145750191018
Ni 2.631971454467113 5.325846732743392 5.783866920730187 -0.11541167870380124 1.336345523366363 1.2294776204675149
Ni 4.5143701721366165 0.5341838165148652 5.248582177130246 0.3303332772794827 -1.0859930947868974 1.99908670106617
P 7.5737439127676875 1.4226963504162735 4.110581838958492 3.1647767947640784 1.5134901603035869 1.6290512201010587
P 5.065141601062984 6.657660619297558 10.557096772196125 -0.8675994785022155 -0.024843027185608827 -0.3855909122012069
P 5.71936285642432 6.959958403056527 2.8950883628550814 -0.9227928358449076 -0.914298168110335 -2.5296227826539206
P 3.0581888445310303 7.736298595846374 0.9010491078354511 -0.008535548274836914 -0.15328685648301987 -1.0241868601133781
P 1.9415782134376327 2.2065937545528302 0.613953447741087 0.45953326801662797 -0.30129960905129405 0.11806197184245473
P 1.4801684762134788 1.6063272562507853 4.164424637331166 -0.7173640072510097 -0.10846995727864545 -1.0158623994080829
P 8.351306321219779 0.041301559493355275 12.036381707774378 0.16945806692624366 1.0770934783044226 -0.18352997163827747
P 8.114532358803956 4.879971263287476 5.112698852171116 -2.2633505975204056 2.6518018619885426 -4.557853966494531
Ni 0.21814963489693104 1.2309764294736156 8.646482599520793 -1.0342853819999607 0.5452258223894416 -0.4565883264556911
Ni 4.971264242333848 4.880605695844977 1.9454482520383927 0.36217638993200857 1.0496515800433859 -0.00045508525954760334
Ni 7.04101649216791 7.276988083996306 1.1780320995610505 -0.7903748523910968 0.4217105407418995 0.46493207043469603
Ni 3.24492660391919 4.303467996220086 8.132322594107544 0.036735921968452864 -1.6043930552327466 -1.5961213021422576
Ni 6.676348390072201 5.1476178335381935 11.198537943480027 -0.6340211840572952 0.49563387039392703 0.5301966959704612
Ni 5.86039348200071 4.951970028673357 8.914699226084208 -1.1709600838475964 -0.05346711868020469 -0.4362799539156421
Ni 2.259811450258554 5.160614371076426 11.789372855423565 0.054127892192655166 -0.3470724444110345 -0.5008506387081761
Ni 5.542393492443575 4.975807899032425 4.516701711785435 -0.13570385329393406 1.5251503702503346 0.9771899225385494
Ni 3.8730988048607546 4.199486366023682 10.274255542193242 1.1310974433247036 0.2925773986869477 1.1877846116041026
Ni 1.7859183194765007 0.6147399575145779 10.14003853568661 0.36358149780965127 -1.0349654387861207 1.1653075135475093
Ni 2.079632603928095 9.178802303903469 5.149841146456615 -0.5127124231427685 -1.4042396161051753 0.6696916408757112
Ni 6.001209520094414 2.49316134284198 5.406873100226899 0.6529285624847594 -0.9957748846295881 0.09639991348798882
Ni 6.901991793060092 3.0593364210688643 7.381393291223747 0.1500146134896513 -0.10340771226438965 2.0762246810007534
Ni 6.90478143033499 5.603084430481046 6.903814853673855 -0.8102888177062044 -0.09088386876576607 -0.9635947003526181
Ni 8.002900218355325 5.571241514028796 13.564238986552764 0.697239982807625 -1.4134994441405462 -0.10561680410056648
Ni 4.5194736222682845 8.882652918017936 2.0779998730815836 -0.07956432998788877 -0.7860029485756465 -0.7821015566387111
Ni 1.9319497663884906 9.345191571998821 1.945051731689954 -0.4468682709544497 0.10110940314851619 -0.3492805078059469
Ni 8.797722924327683 1.9887594699565396 2.275262682000884 0.35312225014954024 0.7242303953535398 0.5513972413074762
Ni 2.732025200741339 7.603954098373426 11.362687104853963 0.23967592270222593 -0.25136132945995415 -0.16058596124759442
Ni 8.406669891752347 7.473531558354086 7.438390525591883 -1.5416990186376354 -1.030319198263361 0.48949484737572474
Ni 9.001879589375482 4.981937637124758 11.260354999307063 -0.6191406674010369 -0.05915157065949167 1.2053092507514274
Ni 0.05630029154393762 4.645343175698494 2.506910802547717 -0.7569777649878898 0.6287571074448783 -1.4882033607123404
Ni 3.481066133777513 6.7523776681763295 3.6942065504373467 1.61218966845903 0.7587484837350675 0.27646892316085936
Ni 3.435666886353941 1.1395341721784191 3.4195308406451312 0.21547618552757083 1.5485543509965718 -0.4744500372274604
P 0.8639459990902683 6.475774402996175 10.338148498667987 0.7612797347973534 1.0723855313057917 -0.6836871838238547
P 2.4016724360940263 2.773851100083688 10.803806135060237 0.3880974806731445 -1.4982190930771295 1.8510981168676122
P 1.0674234481059193 3.410802728034209 7.838461830374292 1.2106100941390505 -1.2041247435250229 1.1810017843543146
P 6.836953126025626 0.18827719132915638 1.094985810773144 -0.25770552651042716 -0.48001956089543774 0.21035480514060545
P 6.345976965643786 7.7060884102406355 6.733397871827424 0.2151630251625262 1.170693717560087 3.1226826938075063
P 5.2416911199689125 2.626746715758276 12.423958423130227 0.6849961324432655 -0.03151683966135862 -1.4386170651437804
P 3.63045634128804 7.658216741820916 5.933119045860553 -0.1249756682431525 -0.049216056713334594 -0.558309137935961
P 2.347185875273299 4.956578994605795 3.754603596922445 -0.5327773122134436 -0.43232096926789415 -0.7240411621608692
Ni 5.346064605568479 8.82949120165552 9.677399118887768 0.9382353956522228 0.3257873097800131 1.9989442619510351
Ni 5.993577669623292 2.9938592491784766 10.128991012284585 0.19643510973571976 -1.6376847274063409 0.7620891180725263
Ni 1.3647857197631477 5.731939548887735 7.892317690593738 -0.8536610140442525 -0.05545663830640772 -0.08962222844452307
Ni 5.255648636233947 8.318082580965909 13.407859758030112 -0.34741620090369846 -0.10951691048592106 0.017660136283924426
Ni 3.8451091332062712 1.0643352543333746 13.653271333118509 0.20935284623865236 -0.9430549285280534 2.7072644138322217
Ni 5.9905547850846075 7.283472357929594 4.843758226100905 -0.8164486666600133 0.31887078516583794 -0.18423316835288914
Ni 3.7504760533424637 0.7648672263786739 11.637048397334592 -0.4954646918059145 -0.20998610894727707 -3.876238834708357
Ni 8.88860538818979 4.24005273014158 6.719442221540498 1.3886106513186665 -0.8590533887044173 3.148537964307713
Ni 1.3984666246540425 6.326682751983295 13.413977367264728 -1.6664335174042588 2.3506963712259257 -0.6998517093988592
Ni 4.2923654264638085 8.823762648856903 7.748883685211284 -0.24652071353820126 -0.2166259828612979 -2.3676540821261867
Ni 1.3783980300777783 4.297198309769483 9.906711034840509 -1.0275413784079077 -0.5542663353251551 -2.7396693125254883
Ni 6.880672993149928 7.7340500922234625 11.582631810693 -0.9648877081324284 -0.6096615242660082 0.2921187138829743
Ni 9.142453050314847 7.394563364726237 12.093966725247256 0.7934740601417108 -0.36571988430889274 -1.3324369323405765
Ni 8.674670997844023 8.4222974584261 9.595153334709181 0.9520579033576119 0.9113192879876693 1.4009689157737033
Ni 0.08081831092420967 3.260442211906325 4.453751074256393 -0.3127039942334937 -0.9052530271889313 0.32111227290184696
Ni 4.046242913715387 2.715697892276223 1.4690033961905054 -1.9437215940323038 0.947697312396071 4.640830664598078
Ni 6.870083567373982 7.017813054366344 9.318511816977766 -1.1592661924494359 0.4226636486837882 -0.9592011992706124
Ni 6.133190151835853 0.7099542895597434 11.761161132373955 1.201421228550931 0.6311081241755583 0.1304621452790205
Ni 7.608255177917664 3.118842463006295 12.276495771007637 -0.44184176427413585 -0.2945291230966799 0.6185619120794315
Ni 5.968135058089366 2.2785645302670576 0.7412952579003234 3.2427542398808216 -0.539941948282683 -0.38969156463314175
Ni 1.1408123671839738 7.0875446563482125 3.7212025887480955 -0.0031835399343041943 0.21102380618317204 -0.08585864763703277
Ni 2.0803416756100086 2.436071742557386 6.052042495775177 -0.5896334019705394 1.9514621572096713 -0.7782094206731566
Ni 0.3431011270968745 6.589272521555104 5.813608745830241 0.24252187679145326 -0.667348080344199 -0.5673997873833195
Ni 0.34990541627607935 2.002688996549921 11.284743333208668 -0.007073619017329754 0.31711189349320223 0.2094767734110263
P 5.922875759024067 6.083797711256242 13.260055631913339 1.3208222309197832 0.5549034546885218 0.14116564773945364
P 4.9577545608152835 4.244419118919679 6.734107876498393 0.6663245241756911 -0.056503077293051075 0.8572081079655625
P 7.99106991713603 3.3873100636255455 0.908053056672458 -0.008281266172185737 1.0866222437304642 -1.067029152089885
P 0.2909806265200064 6.912898435114789 1.8159960206364083 -1.1908449956969813 -0.6396197611909953 -0.4998633350942424
P 7.326427174028674 1.2511476528459464 9.151877172760912 -0.35686809034521766 0.14031281282085514 0.06767529185978667
P 0.5370191702534644 8.826664244818417 7.339157809686188 1.8212684351006891 1.461911516895347 -0.86976023359896
P 3.661580856167826 0.8749440740723698 9.328726181153542 1.114545195392977 0.09937262296306756 -0.1495078490565619
P 5.164812821824598 2.6211674412084824 3.4897056124281964 -2.164698140552814 -0.5876623942870977 -2.0975692081148005
