# total energy = -381167.2626435815 ev
CRYSTAL
PRIMVEC
9.21476759879681 0.00000000000000 0.00000000000000
0.00000000000000 9.21476759879681 0.00000000000000
0.00000000000000 0.00000000000000 13.48674382382043
PRIMCOORD
 96 1
Ni 8.06340074847094 3.41042231845889 6.281639751017284 -0.9955612259568855 0.5670814848119524 -2.0090268429980176
Ni 4.365302602785195 4.75740017555594 11.324670075410497 0.35984208537187706 -0.8964266871465528 0.362243238614202
Ni 5.347633679555485 8.99244282466937 5.334074149148863 -0.05367974891164303 -0.2668419415940566 -0.10323339147005448
Ni 5.6955280125297225 6.263157691801137 1.0867601941281975 -0.4083012093145291 -1.1428543267503155 0.16574770795419197
Ni 3.4166054274652398 5.363999106672141 0.1843220732386068 -0.36139940255666786 1.4940289662551816 -0.9191763221382427
Ni 4.9111577864053375 5.536499554658518 8.652973553639255 1.4430378199192955 -0.3152380735092571 -0.7073043090221626
Ni 5.256997226222471 7.687484307466438 7.347227173813307 2.4116052908961563 -1.1055219088484445 -0.2923791666332126
Ni 7.322376788763646 8.279182959501764 4.172906550245004 -0.24379920084198012 0.1405634953790805 0.7478115251075894
Ni 2.6320048321528393 1.176513872732734 10.835087634085397 0.09145362522630701 -0.10693937956673194 -0.5952934284697942
Ni 5.763505352529482 0.9959136440957134 9.871932488525559 1.1312565946103872 -0.6904293876436949 -0.13047422946387852
Ni 4.062892362292836 8.673363069732174 9.68567992149138 -1.358458038994686 1.5806689721429295 -1.0180591499490852
Ni 6.507957205754455 6.196074184250878 3.4592827017603307 1.9883454033892662 -0.8929238161996171 -0.2217969855392761
Ni 7.136865089038125 8.769279584854514 1.7510380410630912 2.42669998044575 0.314222230650233 -1.0555244938843948
Ni 5.153478527895603 3.3953193144925615 2.6162936535301484 0.7057369645350425 -1.1006890062361754 -0.8092354367410257
Ni 0.05535402997323562 7.9255570411296885 0.3648688562240075 1.386719862053857 -0.6770982177524274 0.06464524678421125
Ni 3.768535828613517 3.1192264500391502 6.815121344810711 0.9351449296523572 1.3070783989711297 -0.45163226800199635
Ni 7.713036857801172 7.937020211925365 10.828735894833422 -1.2282157230359556 3.1643749313399696 -0.9754677976411199
Ni 0.9033291889088366 0.9441819392348414 0.29355116299801537 -1.7476310121201968 1.0954928067472167 -0.8069165587998619
Ni 0.4337639870688234 7.88827409174118 7.421539666483507 -0.23627820987458664 0.8120415387312532 -0.11435778351799014
Ni 8.370003708185191 4.048130304724771 11.036836675659039 0.12535567729039057 -0.5913601548536589 0.2335389565665526
Ni 6.5881625422541035 0.9650257433665287 7.367983437653549 -1.4784971891681697 0.42927446913208644 -1.6528856035164954
Ni 5.314128784850438 8.103190114625063 2.6746913212154513 -2.455443114016713 0.18808699488134062 1.7011475238466767
Ni 3.414495245703013 8.315175841437384 11.8649494032039 -0.008502895264688583 -0.06141465566205551 1.5301606789807325
Ni 6.357231253419348 2.92811217166108 11.77558643074224 0.4212701107703713 -0.5039457326937321 0.040462736000736764
P 4.074125163900496 5.396508806484958 6.611579109477553 0.1444908554579447 -0.9744606965328445 0.6026843216172266
Ni 1.9635195223680213 1.9735820485005602 2.275941607771555 0.41011229438133884 -0.21279889580572386 -0.25174031006592773
P 8.201972422446323 2.475012837903698 13.156992502249905 -0.4714683288913171 -0.16554356236318588 0.400629037481252
Ni 4.423751873168613 5.59541877818549 3.006370427783618 -1.7956337652517205 0.8651147644071487 -1.217293419696497
P 2.943076954114599 3.8521045552581996 2.782463556229846 -0.40943223759517866 0.3997839158721373 0.060133732067102895
P 2.974794183920641 3.0440523766057703 11.765484281109364 1.1574458514112453 1.0973928519834066 0.03276922401122098
P 7.4256098292973745 4.130897346595158 4.0484104336573985 0.5285519612781865 0.190193242591066 0.7347732038663927
Ni 7.785980957494557 0.20987923095710143 12.704107872575754 -0.25181718605045017 2.3842911764622357 -0.040649655200562254
Ni 3.3966831000856166 7.43320279773438 1.313083177725881 -0.45966156606437614 -1.878265164200707 -1.3602495836774702
Ni 1.4070765708666635 8.697819062731952 1.992450206475822 0.44661013219705664 0.45755069036896046 1.5983021118436604
Ni 8.67374087520052 1.9236840823762953 8.206495030345451 -0.37711707040224085 0.1885485078987914 -0.45740285193718644
Ni 4.589516326097403 2.962050160439597 9.575263969675312 -0.3441156757755558 0.8840293419234646 0.3311094933238749
Ni 4.1815324941210745 6.946552495434349 5.145340966698127 1.0812998030762861 -1.6655102342590413 -0.6520063077808061
Ni 2.188829803015186 3.3709001805628658 0.3728654314784187 0.08652044959074777 0.6465380855773833 1.0003483629328838
Ni 7.708014809502424 2.0683651472178615 1.9647487723552748 1.8459086022468725 -0.024312608603435547 -1.8799132413270916
Ni 5.923823877853574 7.498664506201006 9.55766376371089 0.060898892367901566 -0.08907535480211756 0.4113392248099045
Ni 0.9479692086858242 0.47253051402815516 9.232471853477254 0.3126204333807519 -0.765619756933604 0.9634064956012118
Ni 9.066483481697711 6.4366901937498255 9.465280190455962 -0.38365512863107476 1.5062928712241994 -1.023826391450166
Ni 1.5803787036273371 0.6988544191025905 4.194471870673556 -1.3920389602739254 0.6530134088890818 -0.5623352283762185
Ni 3.503251886461816 6.568986611043652 10.300918618634933 -1.3490480585346962 -0.17991705747603853 -0.903982902227256
Ni 0.9793639216286443 4.564783890072006 3.9902956593349788 -0.12848908071304968 -1.3106951697881104 -2.7929435984685966
Ni 1.1574393039650093 5.351983049825227 10.857274029844842 3.0724114563567797 -1.2201514579705826 0.6170434185523761
Ni 3.6772082677164555 1.1269844973092946 3.834955872902289 2.4698762587229077 -0.5293731716279012 -1.3679148135322121
Ni 8.50523042155058 0.9423850595683166 5.697623450663915 -1.472418844184574 -0.8021433057809346 1.6499892558053066
Ni 0.8251520227404803 2.885825603508864 12.063972716544937 0.04133973928905139 -1.3994221401118738 0.2907367459337831
Ni 0.0838037032164591 4.81326931103358 13.312414300113529 -0.09384475116630289 -1.2032258858598375 -0.2602519470813647
Ni 7.181114402672237 6.244212129778701 7.576070396327885 1.1631539575396161 0.34092005165639344 0.563019913148069
Ni 7.799609598657583 8.974087007768256 8.688820842248047 0.8947292448394719 -1.841106038651907 0.4952255792119149
Ni 6.39757350562471 1.2560741755059381 3.3967171947254426 -1.3574432245769266 -1.1975434907630795 1.8646509158513822
Ni 5.326246204140079 8.469062459032068 0.19246700625010038 -0.7160722850227796 0.1260385622900281 -0.26305444952716633
Ni 0.9545854117656438 3.3891454202537328 6.810656789946962 1.4854142280029774 -0.5814714349850373 0.8730059942297674
Ni 6.102442931473656 5.484297896654095 5.665916357102145 0.11127785904108578 -1.0693691130769711 -0.059369857317884855
P 6.9123288488626935 2.961911938926787 9.650304428979641 -0.015002386946103194 0.10330358258635756 -0.68985988829347
Ni 6.7648925685324555 3.987312839088548 0.9468450070483062 2.0347862113503083 -0.16918938664588926 0.33893181758177116
P 8.688760946259164 0.37621960685593164 3.090352897489977 1.1288040193048368 -0.07222768711715948 0.12553976827673863
Ni 3.0644262275939056 1.1762282149395942 13.236955490363762 0.2132364975637747 0.3449615687156188 0.1662742698816233
P 8.039976809433474 5.948869615974673 1.0848518157746732 -0.08956103618928446 -0.6655717051700666 1.8983745333560726
P 1.7444568540998504 6.987254123573016 12.815859044205562 0.6761939607706031 -1.0908959314051534 -0.08822329121446743
P 3.7129431361614964 0.18478004718438262 1.5300706803484039 0.14094221887473793 2.383894455244449 1.4272113944100002
Ni 1.2622941435823702 0.8819573785982167 6.999714332214425 0.42042678893346946 -0.08238920103119358 -1.703517309630434
Ni 5.642386448238192 1.4298278318751232 1.088882355088201 -0.9206117690331886 0.5721910381243759 0.44546187752522637
Ni 0.48802883152111937 8.276188160057556 4.961030872657296 -0.42671493593502646 -2.883674743706582 0.8341082887233054
Ni 0.2128712659710532 3.56292672092548 1.9935025329266793 0.05841263561093811 0.879483374423995 -0.7768148543184751
Ni 8.628846527839963 6.3675241487399035 11.755922116853194 1.1365042161625718 -1.7463886550726633 1.1582899445790955
Ni 9.06026351362128 2.3457388643566413 4.171598053257072 -0.09493978400269457 1.8828540691229703 -1.5290661603649731
Ni 1.417609050142755 5.799664100280472 1.4507822132170582 0.08069458693759006 0.3907611435482367 0.45310576722372936
Ni 3.3110410507487895 8.510593416247593 7.34999252554625 -3.387920781249552 0.41591887376078696 -0.44567245087413565
Ni 2.275513121081845 2.595597285678791 5.074886697188818 0.016273026128410684 1.4807232502852112 -0.3966782803636201
Ni 6.956513659124161 5.429184372113148 9.97035818484377 -1.1566488094312468 0.08692025613232773 0.07701019610746736
Ni 4.300780800605675 3.9437454182509626 4.633964678709962 -1.0499835094615078 1.0431130075939195 1.415652228817491
Ni 2.497321790071167 6.975302570098746 3.3295802415235647 -1.1124044949008907 -0.30375089880526396 1.9300674935839792
Ni 8.817970416433575 5.986972679672519 5.089573193663214 -1.5753326475316805 0.22367723328112443 0.6370851676945996
Ni 5.305614339661367 2.009353776015684 5.235068843953605 0.6726327257819061 1.2246305767878587 1.7712291111551108
Ni 7.286181181942573 7.317207304184566 13.234217782933378 -2.6350742648212164 0.1452886687688917 -1.2105722989225796
Ni 0.8615955068078588 8.409507416546173 11.428491018112043 0.05611149828158724 0.5239556001567557 -0.004042545500489813
Ni 8.93500717871322 7.051978650637991 2.817421619772898 0.18797000968750208 -0.48155193837956417 -0.45957646254973755
Ni 0.6075858327176611 5.588249689054432 7.411760955190604 -0.45483534832032635 -0.32481903232947285 -0.7778090999109444
Ni 2.899721472929989 4.606204270077282 8.653229724176327 -1.8683101098705244 0.12404158646465735 -0.26786935441730636
Ni 8.52410226543285 4.178463976536701 8.573158923282481 -0.6942233074684883 0.08579925515400708 0.4250730294562292
Ni 5.185969798173379 1.1149223666247772 12.363122772288493 -0.17835974029124765 -0.252814516966713 -1.6976289691704571
Ni 4.738832419001851 3.627448523105 13.547568716902994 -0.3967297024268458 -1.5772607177923288 -0.3840927303891256
Ni 2.6034114085362936 2.151251981066017 8.361929728883606 -0.1765532832101282 -1.4764467343970444 1.1330211427099777
Ni 1.159116391653766 3.0432414770639546 9.836084278440016 -0.3679369465648696 0.2400649306105285 -0.6043719937322946
Ni 1.9529778283244092 5.336004642944437 5.639319773607323 2.8304955885804413 0.8583489064382249 1.3841857827780935
P 5.243479162269693 6.960623445438366 12.103583316209159 -0.04334957063022857 -0.8919239141801929 -0.7688709168810501
Ni 6.203464427802431 3.3967752477608224 7.527976681684161 -0.7593642629421954 0.5075501622155388 0.799668618988197
P 7.611573052631406 8.140380916338366 6.346902420505463 -0.43671627012211245 -0.2328229043361345 0.7147731065953818
Ni 6.566517053348121 5.122249680768155 12.440724936963562 -0.15523832378243588 1.2256775299951344 -0.4578260555175341
P 2.8599321067758656 8.45424511285888 5.061534499051411 -0.9463703660545314 1.3087233907737204 0.1843342127071277
P 1.92778465392298 6.759188627437179 8.551364155142663 0.9732342803249109 0.24928799187069325 1.411803544495362
P 4.401590357281474 1.1121487216010644 7.541975756501518 0.8960487349818439 0.34740848759421455 0.4232478033220323
Ni 8.222152763316522 1.3271016035550303 10.526713596053682 0.25830742176048416 0.2322148384384904 0.7288167291726416
