# total energy = -340863.7380954815 ev
CRYSTAL
PRIMVEC
9.31067439938164 0.00000000000000 0.00000000000000
0.00000000000000 9.31067439938164 0.00000000000000
0.00000000000000 0.00000000000000 13.62711312088632
PRIMCOORD
 96 1
Ni 0.2341513607922134 6.873177187777305 1.5729369771006783 -0.7110722607050269 1.0192732248618446 -0.8460088968156333
Ni 5.1267646537236065 6.384888172226329 10.61557581798419 1.194686995150891 -0.2679714272128095 2.230586772825823
Ni 8.9510776674618 4.210799113873977 1.2714098510706284 -1.0993543465851519 1.8685253112051237 -0.6015844036848285
Ni 7.2108194892787285 6.545655589500349 2.67539719011195 2.1662384884567403 -0.0071479238986909156 -1.5662430265255864
Ni 8.929085854199435 1.3467145867463262 3.5196519146581386 -0.6145283654400061 1.0926064863383569 -0.3284941671882149
Ni 7.622816837652816 6.04322365932383 11.070966496117201 -1.2695444065814134 2.7774115642712682 3.451049077168605
Ni -0.06839062876264478 9.197708125339341 5.716601472207392 1.3043797690930439 -0.4137272654261068 2.527844093486943
Ni 4.945932732816904 9.103819283282746 7.378782195836894 -1.619582361378675 -0.7357803049746683 -0.9005759334282362
Ni 1.2109928839836348 2.867762243570764 2.3337112626580105 -0.0861376123300323 0.3652717410278806 0.10679179824527414
Ni 5.345016175604668 8.220254890830674 1.5447963943724103 0.050550459254041974 -0.19592037488283032 0.3903276555552439
Ni 5.289301099160136 5.683738515352677 5.961548560128188 -1.0547508489431643 1.1541088166182123 -0.8832382134807369
Ni 5.7662683344710475 1.4398958175379168 9.000163543634189 -0.18385984417387047 2.936957257179807 2.906914430960813
Ni 0.5412965478394139 -0.047176256824331526 1.527190839885618 1.6332387758198454 1.0975463468421356 -0.6791604995980948
Ni 5.177610247383965 5.921635560512142 8.258684699992573 0.5040850864850739 0.594151344445551 1.258720576493032
Ni 8.07272725275186 4.557537944400518 9.771852732954208 0.017152343409570458 -2.947668472949723 -2.659622386474226
Ni 8.77195891067037 8.44844090244541 3.516571943520463 -0.17686155847916635 -1.062676274437828 -0.9431613721989306
Ni 4.371845851384183 2.493873486086961 1.6370251431586071 0.6912228300792678 -0.505624920168368 -0.6370262894322062
Ni 2.9223227963723946 9.513461030998334 11.4860754719224 -0.7559369824282014 0.3166251836647708 0.9000110620637015
Ni 7.823461873979633 1.4419162339129943 12.638153200622265 0.44324764348272694 2.408883263979303 2.0195722226140314
Ni 2.611560412266588 6.800861178628796 11.033928632798961 0.6152297623824049 0.986389072539314 0.8251654777077208
Ni 5.386169357069379 3.977995007687633 9.668518211577263 0.024704701835531646 -1.0401513538624343 0.5710777504555391
Ni 7.083077034596411 5.111299623313451 4.7227484155648005 1.4785524678861375 -0.8127128537666648 0.005312413351848916
Ni 3.7268395619838808 1.1855840531652646 9.71684061243741 -0.805315275751013 0.5202074459682332 -1.053213329252715
Ni 2.3553865129860303 2.160355813406549 13.814077428952771 0.7155994591514192 -0.4499911328541476 -0.6946310844298681
P 2.857278424039256 1.7450252435473097 3.0931773984425392 0.7729877672629011 -0.5337430185608227 -0.02661554570499932
P 5.452042379436536 9.259940673961543 10.840927660269097 -1.1960139414924307 -0.7343044917600902 -0.4030214489728285
P 4.1518439226896895 3.049041076855363 11.751327278878996 -0.1666663631137194 -0.5105845781664884 0.07628257391282346
P 4.558599361298024 5.9724904648470405 12.91659544019901 -0.14538354247554314 0.7718762793662771 -0.13692538440586097
P 0.08218997949767837 8.278735237613445 7.909489713522504 -0.1297275811058411 -1.2394244472675817 -1.0851502871706278
P 0.5749173936016475 0.3666999856718338 11.077984882585096 0.3584328637291762 -0.013483893419047746 0.12379244656832876
P 8.400341957774213 6.8808212515742575 4.785665298765657 -2.309510383905919 -1.0267517926270768 0.17805017947062884
P 7.7994868870403495 6.357235468843933 -0.23457406541630796 -2.1573095613982267 0.46004028956003357 1.5127777076175948
Ni 1.8068201904661532 6.722968075431109 8.414646878136743 0.1907912811863811 -1.3299439907153934 -1.2561263334032948
Ni 6.949468854954193 9.210798933741916 8.321451681333343 3.6053283794718816 -2.5426127671556857 0.14570390192943938
Ni 8.691142255667271 8.698832872836922 12.75037196764483 1.7669909047040473 -1.4345920031447874 0.8407977849283391
Ni 3.2237931272877534 9.384135761644298 1.2883627272721998 -0.4652110351276956 0.42872271039367454 0.6241082958189574
Ni 7.706603597834024 8.488616463083472 1.3493699911249994 0.3946563648375848 -0.9475278766977423 -0.4771309264937332
Ni 2.7828395810957343 8.712389214966475 5.9674627005956955 1.3933826187860132 -0.6689689037770737 0.7691617086485915
Ni 5.760598133676475 4.948223158753628 0.8778215683960933 0.7975947671783038 0.46780296422458795 0.3726919447513517
Ni 8.656152740747729 8.012598916575593 10.457392112894889 1.7459531101971417 -2.5575711882377306 -2.0094898986773653
Ni 7.121613916515516 0.002914241130872085 5.454565572236748 -0.9142932830143286 -0.006892613354775226 -0.34062488901347787
Ni 5.858295041619737 7.459442431507728 4.2525723862630205 -0.021833808045639818 0.7408559197253628 0.716479033542895
Ni 1.8562226295728854 8.743226169041389 9.489635945919138 -1.0471640377348417 0.4279981735228242 0.20210413509603903
Ni 8.569302768643016 3.9372980492753586 12.130951411879147 -1.3389819325479455 1.24426403474807 -0.9114499000282624
Ni 3.617001534441076 3.7224728556248423 3.5980617602927687 -0.10247697292000416 1.7009372076080835 -0.13173355579227636
Ni 6.271335185542253 3.1771745798683395 13.099839756878906 -0.48971364825475017 0.38107554082935663 -0.5271854199479631
Ni 7.1363434036370474 4.935597884078029 7.475656971218316 1.6265770475289538 -0.6627676600623683 -0.3749501446579091
Ni 3.8070137804437514 2.1560915244674455 7.292113781885704 1.589174438510779 0.8052240015887875 0.7531465641672578
Ni 9.297797876639262 0.8347718025276804 8.82017610090822 0.41674651186840483 -0.318650955845548 1.0555795154920466
Ni 1.6125622768734527 0.4044314942432687 4.36011719466674 0.35284071435337944 0.7622829792508872 -1.8823390771597646
Ni 1.0189881536295002 2.405543116730464 11.37981181233532 0.29348062722750745 -0.3029109194024719 -0.5031330069844496
Ni 2.354101639899575 2.620023815423018 5.6026918866884525 -1.587766245309343 1.128844385624469 -0.9189012140999852
Ni 3.837897287891364 8.87384562215642 3.5506127007044292 -0.30039715184168264 -0.27727419267097414 -0.788441639924126
Ni 3.996653599464846 6.424728548580966 1.7274001366439842 -1.051573479656447 -0.15007631996552218 0.06460385202331455
Ni 0.8850615489180298 5.55598674999582 10.364101016143731 -1.6736876278635109 -0.5140614809714954 -2.1326177150785015
Ni 6.272014864783638 8.07887229794795 12.559510588124148 1.1441817873124875 -0.41075841260577 -0.11009438025594588
P 0.2840277132330079 4.824009449721793 8.294224475777403 0.7989240275126885 -0.8519275762929134 -1.186891153255556
P 3.4441861043129074 5.4154328071471145 9.6547821734291 -0.5115667395740996 -0.23964506946429048 -0.4250375482326035
P 2.377964898744384 5.06836810301169 5.461243188016497 -0.6146978011383348 -0.7886072189677128 -1.457258848614684
P 2.4763042432308726 0.6028456929504139 7.743321173948104 -0.5644769573095698 0.4544190867185141 0.8996580495996571
P 0.4266989034720025 2.8697454172476835 13.401393883865119 -0.2406431717115017 -1.1019257068567538 1.7078573317666845
P 6.3462581835618295 0.6433164019713778 0.9754290938637752 -1.4178029566119066 2.2468579991820206 -1.9353164006877444
P 1.9115652790358366 7.926968642835559 2.957846744010508 -0.36917544695766097 -0.032738627883601684 -0.13494640630261923
P 1.8995079555071486 8.914281881681587 13.242024929906936 -1.3296601409263873 -0.06537852540580998 0.8215165681012239
Ni 1.2588776831404245 2.6392503583471427 7.7696890042440465 0.7465794524727013 0.7266161219768971 0.4413367996132593
Ni 9.532547913804367 4.700400934535026 5.848893122469722 -0.39838883529682356 -0.4650521409523281 0.755902272535524
Ni 6.4165444656607225 0.6243812831603409 3.1153489077235155 -0.19691024959992537 0.17137302456076936 0.5561810358493646
Ni 3.272972110205537 4.502949459575269 0.41810142660220284 0.863217804494752 -0.9359522560450009 -0.04655265094855854
Ni 7.579689793185725 0.49279631309556166 10.780068436141475 -2.3420919173863664 1.721336340089726 -2.3894279834681686
Ni 8.200683852948586 2.542382100437899 7.9997837041393876 -1.1876568277769868 1.8528765489242736 0.8972810647270483
Ni 6.3794134955970865 3.340213801730004 2.813454010049154 -0.38508080533400774 0.8708493528980809 -0.5260271379738037
Ni 3.97391693223932 8.131691754610689 12.997731451338815 1.268607753699757 -0.3731377740395187 0.10833240325951665
Ni 2.698699015282025 3.373043240156378 9.902400493875284 0.5361598555324315 0.4047417740980449 -0.05979126112601961
Ni 1.8202461831521517 4.590898091275644 12.081935365765805 1.2508306322219942 -1.5818624782303983 1.2569519146283836
Ni 4.014148356924618 7.928365244016488 9.36834020228799 0.48327740571110317 1.034369714183651 -0.7279440967597012
Ni 5.163690788947371 1.1263774737684096 12.731866070930064 -0.7828705735942517 -0.15589729752267345 0.22439302840122644
Ni 2.247401309676591 6.755406465526822 -0.16290142387847978 0.14954744404524567 -0.8361782838784567 1.0775927865383441
Ni 7.528090034887665 7.395375680001241 6.935832441023601 0.56174207487691 -0.8505270964009609 -0.49865723060128314
Ni 0.2897230528488368 6.32064451790359 12.487832360181596 0.25526760649289587 0.34743599839804035 -0.5612790191975624
Ni 7.854699187059747 2.1139234794779256 1.302446984648143 0.7195833834998316 -0.4944506487191033 0.4316560819903857
Ni 6.324173263554071 1.7142255321705528 6.911126566132965 -0.38604496901949 1.2468125122015365 -1.6491117382963598
Ni 6.9681274467314065 2.366475526362607 4.77534907137586 -0.5473580382410961 -0.023268997830269603 0.5916226644864263
Ni 0.4598598019119834 5.411215071580709 3.420541646319777 -0.13674540718457096 -0.9698586789844587 0.9998225723364006
Ni 3.299675124784902 4.678818790952402 7.346431326081853 -0.5663358648951795 -0.5200701490594204 0.8924075386848308
Ni 9.100821246081019 2.190122039909418 5.911169431262259 0.43779021991258155 -0.25717690770046675 -0.07888093076761898
Ni 0.864351815539759 7.014057004234894 5.74104851034583 1.955936648041257 -0.25208792321333356 1.0202512725043977
Ni 3.6755191239220055 6.277927143116238 4.211745078407192 -0.6215395066505166 0.39029603098636007 -0.2423436993423762
Ni 4.396854323197354 1.8705796897128368 4.81342321277035 0.5877302714105554 0.8760090427221493 -0.4010854082923802
P 1.573727453369084 5.333247482986707 1.4268133887424266 1.0518907537865496 -1.544721864624359 0.13765532059335
P 5.026944911985332 9.302434592559946 5.195459741543694 0.7171709174035971 -1.4965249932041582 1.0771911802245513
P 7.1762303333643835 2.7837054738279106 10.525745498959376 -0.37920120662477924 -0.7655007148572365 0.19887045865008976
P 5.3838230670854195 3.8104587300233765 6.842405408424167 0.23417993258466122 -1.7984185270857094 0.6174861625167494
P 8.739595005970974 3.376702335250412 4.137968224423432 0.4205867115501014 1.4582160703216305 -0.7062699542203772
P 3.7831039682262446 6.98165585683734 7.076341692634518 -1.078463876289388 1.3591969740432397 -0.1347404609394002
P 7.1388200430645625 6.598111929856047 9.043879022732177 -0.7536499861662376 0.647960934066839 -0.1341118262164658
P 5.524209417792413 5.4443331409178075 3.1770386440200626 -2.0420140965573155 -1.2440652884737027 -0.23805407082808677
