# total energy = -340894.3853205131 ev
CRYSTAL
PRIMVEC
9.01656949801403 0.00000000000000 0.00000000000000

0.00000000000000 9.01656949801403 0.00000000000000

0.00000000000000 0.00000000000000 13.19666086915909

PRIMCOORD
 96 1
Ni 6.657546380471017 1.970093383643083 11.40446184976516 -1.0352911975566557 1.219438491063958 -0.08443657047852555
Ni 4.483408029291342 0.12972409020942222 5.893232522996353 0.09753942640907072 0.1731619981403921 -0.05839360944754459
Ni 2.6374367412341506 1.6730425018272166 4.605265162621591 0.5340546362639705 -0.8116309335563957 0.8902095025922475
Ni 3.2776221915242805 4.125702684522817 4.7771381085644 -0.5963087571081859 0.21293182183916232 0.027963832202777646
Ni 5.285882713814399 4.556379126166005 2.714170452556584 -1.519792448372531 -0.3053642660389709 0.04283329311544236
Ni 7.084291597816992 6.069873430884958 2.503511831299792 1.2258420805974566 0.38258220728187015 -0.025994881401864907
Ni 5.139138045380547 4.614409767397357 11.371734407490855 -0.3465978187674611 -0.23370659249266848 -0.22439482817343936
Ni 5.583510656077562 7.920515301937463 12.315757511451238 0.5396570700524125 0.26128964431725965 -0.12073129114450175
Ni 1.9028658415329267 6.5372563269179595 0.3085289747753928 -0.05335424725142424 0.2803633731192591 0.5379583421937509
Ni 2.63577769244817 1.5271994903422677 0.5751182782295435 0.09252294703108582 0.4223754280194081 -0.2652342307873045
Ni 0.4939231683239416 0.09021618767936965 4.988997736877129 -0.3696531579250279 -0.0410062672090326 -1.3532003901401728
Ni 8.694173030373602 2.497625814737358 1.4483595083871985 -0.049156921340625014 -0.18067553290861788 -0.7464681237058176
Ni 6.868804603598829 0.7497187364427828 4.8203707559503695 -0.11729321199723027 -0.6069798636687869 -0.47780969772831267
Ni 0.6468712365662407 7.316549411284738 2.4674590781979338 0.8601193680750865 0.7660272767846679 -0.5179091368523596
Ni 7.276804372977125 3.9232716829247587 3.8855057816199854 1.7579053974630112 -0.7749937419493362 -0.14703701891856613
Ni 7.477062381328328 4.028828661932752 12.556833529879249 1.7864883513070267 -0.35339041620926237 -0.4705676714539186
Ni 7.863449433641435 8.671541440956153 7.06968836187257 -0.34540456979030837 0.8048517058510332 0.09236508129698287
Ni 7.066249442269457 0.7369539790171727 0.420237057488798 -0.8566776893833892 -0.38839084354384723 -0.17688752662109536
Ni 1.876465326069067 6.2627198191161835 9.150471857533748 -0.3460972249819588 0.5346398193434793 0.7238318743635405
Ni 0.06576866116683239 4.91519350898168 1.5142246468475635 -0.06503194069966865 -0.17168644203613012 -1.1165912792887287
Ni 6.208611385612556 1.8821637979861296 6.783452855158788 0.9134836426288397 0.4548998830096746 1.2372256398440498
Ni 3.433455562003067 4.50336169757055 0.5860409505085462 0.31310071545128015 -0.6195091064840492 0.04498684912333543
Ni 6.133737792575709 5.8016485217254985 4.72007584689617 -1.4679636366266975 -0.3995728283025957 1.1489506694560407
Ni 5.164700019881928 2.7674376401268854 9.232687643105507 0.024992665389595665 0.6392775473602281 0.22357001827929884
P 0.20471399699267856 5.595421544372561 12.340896608843584 0.12430306765616013 -0.16098936733360014 0.12478360683700443
P 4.162544387454965 6.163880184377513 12.475344479808305 -1.122758327331389 1.2671486526557274 0.4567158531724908
P 2.505443180484341 8.306749072569257 1.5859352273076621 -0.2682982144246089 0.4036932782288725 -0.6483275733776384
P 6.324618568658328 7.67013418379678 5.916986675315185 -1.7616640931744951 1.0597480450474395 -0.5224551043518293
P 4.896934955766409 1.1139069946739153 12.53261772920258 -0.6160627998066617 -0.2764293281721755 0.15667916999402048
P 4.0544176861426 6.1190498008780905 8.09021254966257 -1.2499556858162086 -0.7641017776271809 0.6215827011836264
P 4.597765180120622 0.9707328877577174 3.7229235088786647 1.087839918187649 0.4418124536980972 0.2689463895315691
P 0.19538545419933523 5.607242266972672 3.524749229736375 -1.2764928128747886 -1.2432759598031877 1.2736908246496195
Ni 1.315869134658544 0.9391388282681803 2.566513307290444 1.1543065344513153 -0.18015591295972197 0.3775176482747692
Ni 1.7749658033311337 6.403549617965236 4.679298411382061 0.4389153346559602 0.5441037929698566 0.9678100239855462
Ni 5.941044686025796 5.519727443512213 9.015088066656066 0.1822179376950733 0.14008269908792004 0.5304728324499831
Ni 8.832568355460618 2.2722837100676925 10.095142351183444 -0.4711950206252724 -0.628596156386982 0.9345615463450614
Ni 2.2063635705334446 5.237021923753382 6.897366390769207 -0.08173382683538181 -0.16492932581795466 0.5264269445153836
Ni 0.41374602911365027 0.10613944939698447 9.001561409108634 0.6305910753298237 -0.6283961245610339 1.2424359804003957
Ni 1.6605816027933866 1.0262208563931656 11.402337545993548 -1.0386300321219017 1.1544451169117087 0.9260601937422698
Ni 4.1664936448911565 6.680989461142477 1.717664602571443 0.6701037887124652 1.0102257699475956 -0.44019291581680314
Ni 5.477962693639057 7.8166173717154495 8.020098803658978 0.390099855815154 0.44984997929059295 0.2608430436981443
Ni 5.162842606567189 2.833366796230623 4.8502480606091956 0.6086958179186291 -0.5500173302408141 -0.6805468384226602
Ni 0.69623875783254 7.277651930509093 6.804686876305437 -0.18622500197193734 -0.4924413315985584 0.39480214638682976
Ni 4.982195636854612 4.516029977702628 6.8443561754293425 -0.5199873595376271 0.017378086267131363 0.40099053458572875
Ni 8.394498326836429 6.9856683607460575 9.00654937534996 -0.6774005794841946 0.8769809197171156 1.38070733731119
Ni 4.717595388629738 0.3896194924749222 10.392264463898274 -0.5211590112482251 -0.447864573429448 0.4510085183750684
Ni 7.9201456225884135 7.321652789615526 4.65597975936955 1.866549418425676 -0.007342556408000258 -0.8442034681757784
Ni 7.28007738770164 6.120131789216773 7.075389538760479 -0.623203524616501 -0.8546652869390506 -0.37578806717817215
Ni 2.386289214686901 5.4255674083383445 2.5103220462348514 -1.1427836214133804 -1.4145469115684541 0.7833045758078767
Ni 2.4330761937654417 5.334815636431326 11.484433411191102 -0.8093164264906063 0.3317918641028802 -0.2541455770733107
Ni 0.9313124459517083 3.228517954087061 3.8906001433812833 0.4142044621728415 1.2026515014136063 -1.103167549683655
Ni 3.9267971615949664 2.6093591438453325 2.450672930780219 -1.1590646179615909 0.3553650234371299 0.020154620571003996
Ni 1.2121064529788659 3.19114427355506 8.401746747048655 0.29622656540376074 0.6613173007690869 -0.8909726060105172
Ni 3.708442898279294 2.489781399281908 7.050896929400498 -0.6459978968031971 -0.007973505123779815 -0.06686976523935581
Ni 4.020416202599494 6.665237514245154 5.98365609177397 0.18656438758922708 1.2125520483567698 -0.08070332868833842
Ni 0.7584557922776461 7.497809507722571 11.377752065967828 0.07053384435450433 -0.1582845668079274 -0.14847426558572493
P 0.1468285225300991 5.316403801534741 7.980535900055043 1.266406375173064 -0.010380829013691799 -0.5977606590633641
P 8.40565182329435 1.6535847448699046 7.861607348494829 -0.36455440324588184 0.3662911834313305 0.20915281441270428
P 1.848766424598788 3.457178156328687 10.645324404834145 0.39494432839164884 -2.1132125710790124 -1.4916568664785794
P 3.954586228760136 5.955903992543706 3.9740692321120172 0.7640189881053874 0.5991901924210391 -1.6056724361658024
P 6.852854292172746 4.015448072811042 10.346947185646444 0.7828255792889293 -1.2631683278517407 -0.4054503701292953
P 6.525417571178872 7.835741515601668 10.115478322008986 -0.8274319051443942 -0.2958537554453744 -0.5493832962012409
P 2.3185116618379142 8.392613863813224 5.863052261602695 0.3503593426924224 0.17194843744826518 -1.5104714280819214
P 6.957572730218261 3.9208191760237443 1.4716916852539437 -0.06995431770195049 0.44530452601175563 1.031597293644836
Ni 5.408679373685404 2.993870749704723 0.2547839090221728 0.039729971599770285 -0.23270154826692183 0.9035136759003214
Ni 1.3296194031293043 1.0393579981386722 7.025361102950635 1.0699776931952476 0.9282574585039045 -0.29093060711214414
Ni 6.691863443946239 0.9451979629648039 9.137420373198387 1.336581550636569 -1.0511947561607895 -0.6052019458327578
Ni 2.7680597834216285 1.4591243907001432 9.34228584855848 0.27268374508681426 0.47727747937392634 -0.9349847499254091
Ni 6.500162160040119 1.9041281612613898 2.5730322870310074 -0.8150710695861964 0.337317936127432 -0.11612875937548388
Ni 4.263602098287936 6.8929870429683895 10.227359522856581 -0.47374658340253245 0.4466936930497984 0.4200794328963798
Ni 8.140600746595029 7.137236893856536 0.38325108944482517 0.25802151508894916 -0.3714022794056507 -0.6506891316312794
Ni 7.528492893693715 3.7317056475609736 8.270347378228173 0.1948186571782193 -0.5110244939173845 -0.9736957933423618
Ni 3.1581977286421696 8.49242728805671 12.519275911329672 0.46207737459472037 -0.6369298730636579 -0.3370140317337679
Ni 9.039471575525232 4.635887235920212 10.105515012723616 0.14179608223460097 1.1670689763233062 1.0377651130184449
Ni 8.615611660415743 2.384855580138146 5.667015811086252 -0.31848331991943213 0.12382021448247063 0.8672714057388354
Ni 3.635994762434993 2.928302256380547 11.924832419714306 -1.2368705704974763 -1.1397430348148436 -1.2278100029571046
Ni 1.090058168375449 3.4078575212237303 12.761883844913868 -0.08932218070560101 0.17675588613923754 -0.5530769430027442
Ni 2.8247559723686058 8.071894487088672 7.897528459682147 1.1173970630194756 0.6782806680963027 0.7987458500636114
Ni 5.6606293749171765 7.95939474957413 3.4694677405422256 0.32157789968435585 0.12217573690051217 0.13196109842205014
Ni 3.2853223418679063 8.152881314239078 3.723319336279233 -1.0250070420218282 0.2645318054036412 0.3332715339722002
Ni 3.471289087579008 4.431463572465079 9.431257749648365 0.2788258534288101 -0.5430200729873744 -0.4435150382115007
Ni 7.316964173481233 6.071280015725246 11.166182771192645 0.002278254511215431 0.7512796861618481 0.5262266555791195
Ni 0.5816020933491001 8.945960733354571 0.4292410037805364 0.5795703613075824 0.38638641151930875 -0.4932401733507699
Ni 4.564701419804373 0.3448134537131196 1.5447349146845197 0.5004089231850672 -0.7691712217302882 -0.5692211568627745
Ni 5.9883726592736775 5.671737788527653 0.2637986751972981 0.23162991246929784 0.19413114419289146 0.560732402665473
Ni 7.9049166367214525 9.088882376325078 11.229210395234814 1.005521936714023 -1.6447676023950513 -0.3142299439597169
Ni -0.15829399229234084 5.016647948872168 5.6558911676506956 0.39217679294884067 -0.7123534414102958 -0.13182714394734715
Ni 7.897964861645416 -0.22799568107028514 2.58122744703958 -0.6126941404447448 -0.6382974428351459 -0.32531808345307844
P 8.529494405226083 1.5916228793413378 3.394379553151539 -1.3585721959750474 0.40503513696874766 2.8651748851301813
P 1.7619188272805173 3.285484640118709 1.7145106065641826 1.423446013830297 -0.005155576059010476 0.28465145897165167
P 4.698552393868922 0.8808746578870619 8.088853752640576 -0.6196003806462749 0.3108782538786646 0.685713213114948
P 8.72897698860123 1.6172299366901635 12.47539767756829 0.14885401752264688 0.7265505588462842 -0.020623589787622545
P 6.284215320778015 7.7163982018449575 1.2617579961840695 -0.4555516576610606 0.47307089749174663 0.8310275929154527
P 1.8441860072983642 3.265693270090303 6.1958060536242465 -1.1468953295889088 -1.4016625994066183 -1.1589651162692491
P 6.83437032472025 3.9483287295347536 6.070978862304312 0.6557495768733222 -0.014146980924343378 -1.021305424800525
P 2.3748201382968634 8.424848099736481 10.193734030261167 0.49577039597179134 -0.6121277264183136 -0.3865972419785342
