# total energy = -340870.6501903921 ev
CRYSTAL
PRIMVEC
9.26132365713287 0.00000000000000 0.00000000000000

0.00000000000000 9.26132365713287 0.00000000000000

0.00000000000000 0.00000000000000 13.55488332115287

PRIMCOORD
 96 1
Ni 0.6880746580939459 3.493037806399378 11.759850728701698 -0.249277450347732 -0.19693030420458343 0.40332612469744084
Ni 2.9395718543248606 3.7880572656342264 11.282840706426814 1.445086474918208 0.6130486955706861 -1.6088495483422036
Ni 1.8393544096938066 1.8038001888806663 9.829987256970211 1.4948632892310192 1.0225187283823356 0.9189639490171205
Ni 2.745361901094449 3.369426922004228 1.917338457866499 -0.9813833917946067 0.5241769721389424 1.0278265137484943
Ni 9.380146253235944 0.5344441197931656 10.545618056925948 -0.3721460995502107 -1.191652064979309 -0.09710619552639406
Ni 7.269110919459442 7.196928164310286 0.022668941465049046 1.4389212266477607 1.048606426608323 0.8539613188934906
Ni 8.365577528083902 5.2433631135465015 10.613161815147443 -0.2369490106893661 -1.4978254571831364 0.24243600194586637
Ni 1.1651393221773196 8.797655313396806 12.78077735241801 -1.4279958379845084 -0.30282735854973003 0.09977628615938945
Ni 2.6552770076718355 1.389050339785887 12.172908533997948 -0.27437090298125005 0.10269474535776507 -0.2731084913290587
Ni 7.834505456167283 8.396751142894276 2.5205710577559395 -0.5269329376175247 -2.26867123840237 -0.4000664801095626
Ni 2.3965341524810273 8.332107105052204 10.789185307473774 -0.08156516246800145 0.3074185774648383 -0.10498919781889661
Ni 7.5444130210201115 3.4582893207283956 12.195232954229796 -1.1072676878949574 0.3449286585951543 -1.4721961866508064
Ni 8.719221164903322 4.590236059578209 4.145883316134088 2.178436830295145 -0.8365575215947464 2.5075616890888233
Ni 0.3323777858605434 7.223109925768673 0.9864022620733767 0.8389008250159422 2.0531410597084125 0.2874722162498985
Ni 9.18017575680528 8.115456965046528 7.222719097918109 0.4719735506625098 -0.8380096806602406 0.14940989002611688
Ni 1.538203954319782 6.148703789657082 11.7628597326981 -0.7363438907876222 0.2046410425852798 -0.8529331347392923
Ni 1.242054613621219 8.65361394942005 5.435765256434968 0.7749209797298718 -0.12886420466428128 0.4880324038975853
Ni 2.2592072480222507 1.594346097213571 5.7160397625683315 0.19960116616852722 -1.5876803704637559 -1.754917775589597
Ni 4.416715902986651 4.701316373314287 0.6718886430600503 -1.1294853616425775 -0.5512134074314443 -1.270679034406489
Ni 6.246364445680673 3.8966370220325732 9.94941943221431 0.815630541634092 -0.574294971841256 0.4177464138878289
Ni 2.3966267657157583 7.175377064588437 7.244285015757515 -0.36100473822141055 0.43982036296873284 0.038006818261076485
Ni 7.721952591998986 7.236825945832298 4.564607199131165 0.16465344644874869 0.23680297202980505 -0.19889925500549616
Ni 2.456658664468239 0.15852792615334294 8.207535821412895 1.1525679544936538 -0.11110585223959575 -0.4035971189706404
Ni 1.236136627921923 1.734627363860259 0.7065630381432483 1.2641006098580228 -0.7827584734964197 0.4008915471140193
P 0.926034177278823 8.107649669358723 9.100409829996368 0.07637796184010717 0.22348671453687316 0.3655177956004157
P 7.9792692033749395 5.340125421193203 8.336388614893806 0.5599021934546938 -1.029621657975704 2.4137434202850816
P 2.97912696687837 7.602713052283128 12.9237406983425 0.23467564127415716 -0.9839925472826796 -0.7619973296896683
P 2.5501332022819994 4.667438452049773 8.928465950659927 0.3704003205036976 -1.5442351547959277 -0.698859520688919
P 5.25856094536582 4.1686513537603 12.076750064641688 0.3198478043671266 -1.195502806183967 0.32252920785403166
P 3.053588007601904 1.302586623841246 2.7569820836561183 0.499678729887262 0.24795590332283102 -0.5908809012243953
P 5.379810192275336 7.055341051053895 9.865148797668093 0.02074520296715137 -0.3013050083679327 -0.47295776895264996
P 0.6308415312950285 3.0275914726129787 5.85255074442913 -1.0109685616508912 1.2157648988671126 -0.31466111795986457
Ni 7.014970942034754 2.5493182058163684 5.019440982349766 -0.8317541866688319 -0.6440346024292392 -1.3190934211541347
Ni 1.050734193314407 7.660568540019436 3.3566768579788433 -1.0179038553181436 0.7783094365861305 -0.5881210790910709
Ni 5.242233232082786 9.21058068176739 2.394036373540339 -0.6707943870215867 -0.4524614487715111 -0.6466638125219701
Ni 4.198593212548755 6.12919018109931 11.659680254016905 -1.1507735815973925 0.47117805134440793 0.5218706926032689
Ni 4.236184924525972 5.0741957789872885 3.0819600720616736 -0.019287901695334526 -0.9698442808067557 1.0417436380502187
Ni 4.934479453072458 0.9991671442163178 4.675987579747771 0.3927146677301817 0.3619766152163766 0.023594756600804526
Ni 4.070694335385571 1.8469764789121483 0.6207374273859022 -1.3487210142125803 -0.21130534197933287 -0.8298140322233256
Ni 8.881572165386352 1.0703959830477483 5.7514180182354835 0.24291319869260097 0.29700792365447554 -0.030458059379541096
Ni 2.373918000559775 6.429386720155608 4.843687920668849 0.2873436610918342 -0.31168429471972775 -0.28636432789770033
Ni 0.6450280265910868 5.093913136661468 7.2196563782455625 0.45360533256796715 -0.8273545149392396 -1.126247057210938
Ni 0.2868870910931396 1.0506971480205147 8.16777973814002 -0.6468378762059892 0.3042851740421792 -0.41289499933279855
Ni 4.86762195892032 8.947494265867709 12.564481921101352 -1.2335718451415465 -0.1772240840249077 -0.8331950328804166
Ni 6.488112772298385 5.905742229664397 11.662336401588982 -0.2910859017430858 -2.9242588357765316 0.6786799604172505
Ni 7.312685446400268 0.9544256905178858 11.704939415697481 -0.9847438236264071 0.5454520794676349 0.7784513614806334
Ni 4.247965327983725 2.6322626188412404 6.5604548222112795 0.13663176442484212 1.552594068283584 -0.8420406561965047
Ni 4.882514167065027 0.739945478601952 7.6199048470461985 0.5043735642597701 -0.25013131370759506 0.8731625744122897
Ni 3.282138948270483 6.598294737657575 9.465605115583758 0.02205029493182009 0.08004615472031375 -0.46515138553435376
Ni 7.213515194650565 1.238340822908515 2.699848053018363 0.1505342334385472 2.1171563862181086 0.34659061967860955
Ni 6.731407739936102 7.9658680683093985 11.315359065405483 0.14346215708311424 2.0350340656950565 1.6363289847093947
Ni 2.1092849436400907 2.723903414607331 7.594774245802006 -0.7931233616705116 1.8187739508136096 1.6539338422753516
Ni 6.680016655984001 4.896859957124821 0.6254764466070752 0.3882951985062474 -0.4816108166419577 0.06222198205469929
Ni 8.609465220423894 3.071545713816199 0.547706335006611 -0.3649853201357134 0.2782671527118627 2.017600443599641
Ni 3.1475441342362642 5.02666666692346 6.641133915514637 0.5581535861947033 -0.888364736074025 0.2911056992374277
Ni 7.634488653119252 4.021368526567966 6.608019127304305 0.48044225025515325 0.376753516415235 0.36643053722267216
P 1.1321227039958024 5.6792380414833685 2.5090499713554326 1.4546838887986562 -0.5193852071772538 -0.2697747989701354
P 2.490212439411195 3.65910259759511 13.278567006169434 -0.6202056183304415 -0.8910461395609299 1.2276557367674275
P 4.607045361681843 3.269691729522668 4.431158936942913 0.15020461801327034 0.5710109017733456 0.1846309180119401
P 7.539310031786447 3.3988501466781913 2.748686716221284 0.21659307274083342 -0.012781468035384439 -0.8471548374946184
P 0.35915597655059645 0.31199916969038616 2.473820822996197 0.09115512014928172 0.8792787146123566 -0.27436061856860494
P 3.612036551704936 9.00697974653528 6.168637862300532 -0.5588336429808634 -0.5206026245241228 0.47137294096403337
P 6.034974737407705 2.8487090097305083 7.7883238666687875 -1.069062637580146 1.346126771122843 -0.38014737258813247
P 7.432712198611338 1.8662678157065666 9.013725694553067 1.1830933767760206 -1.210987017862495 1.341102321325058
Ni 0.5933100179203865 2.561256051773164 3.050377106753788 -0.5478596604678629 -0.9116239637122816 0.265393124962672
Ni 6.014090452975918 0.12246711094622544 9.847229062880038 -1.021429866193531 1.364154060938199 -1.9924529977997363
Ni 2.1666495812323254 5.763154893472913 0.34600860174821724 0.363776901649909 -0.7568216990259998 1.9389532261093834
Ni 7.370013038698611 6.593960438272175 6.812101651357016 -0.8209516967366893 0.14414941295812594 -0.46521797710623103
Ni 6.435693681440773 4.942416407288884 3.851294508440739 -0.9229928676708555 0.5994573300394966 0.5417509764669638
Ni 2.3418738213429307 3.9207627696799374 4.620005657750066 -0.0056445998802870535 -0.2820693000667723 -0.3794621735956497
Ni 5.020609761372068 7.03389182589025 0.37501877139528167 -0.9756588306060037 -0.3842889055603317 1.2960504232917422
Ni 6.232666948263993 2.337678441809627 0.3997483573330902 1.4666875981277516 -0.3768725584916026 -1.3187586635225352
Ni 5.317342565449436 7.577077708909652 7.648925204149084 -0.5081803396003699 0.3607579123179271 0.22262950874290047
Ni 3.1059330078717315 8.768750722837336 4.0483421311833006 -0.06628535349079552 0.5052546813131428 -1.082960735718477
Ni 5.200260914102803 3.0301846431854402 2.2587719658190166 0.8530776307369565 -0.009764021365299313 2.2574306324915447
Ni 8.938640440627449 5.404593493889289 13.480060064179073 -0.16890116598150912 -1.1429098625785994 -1.890127205745616
Ni 8.37075460790535 0.3685691857286313 0.5419717235120822 1.5209455881403677 0.1965664931072615 -0.013302630646177089
Ni 3.2407871389631966 6.865835850147806 2.397140769168514 -0.7996598772374486 1.3009843702582498 -0.589478878670546
Ni 4.983453331598087 5.1748663651396285 8.219775586514913 0.36772483055406346 -0.17768354015982948 0.27033915611403764
Ni 9.178582809167912 3.1712809062977585 9.263054414433494 -0.1861869496451503 1.1829028580317693 0.024205907822242183
Ni 7.895991382705037 7.383516048322356 9.417282308098288 0.5391436207511038 0.19756742356795004 -1.0832255593440894
Ni 3.085854458582102 9.008933885788098 0.9131563069895102 -0.44948565397263884 0.057982747162371104 1.2034883954926048
Ni 7.387646598591347 0.12464166969770378 7.5814768375593635 -1.9525600182595404 -0.013874701099563201 0.16671778517694513
Ni 4.995335609614043 1.789102468528894 11.659747861678259 0.38654453436372777 2.0820556858602335 -0.5147011714380232
Ni 5.131690075108146 7.60404668286325 4.464843296546839 0.5182966020987654 -0.7247088776518552 0.35312970634870794
Ni 4.1396726726130435 2.775655690174882 9.422432530081664 -0.435841837936959 -0.15005960779497385 -1.228774166642587
Ni 8.257646064328668 5.788577226406508 2.3032318752838665 -1.2613467012619695 0.5996488772250125 -0.5090468013657232
Ni 0.8177702320109075 5.953095376582237 9.452429956810958 1.5033055064611014 0.28527777970174095 -1.175506565567698
P 6.936647929422947 0.12657080337714557 5.386805269894551 -0.29146873900380127 -0.11517616565422746 -0.5148464387666359
P 5.171717515158782 5.952919411436248 6.088771913198111 0.03974539821873801 0.08061976783559664 -0.1367844879526225
P 0.30910130157566057 6.619206806059782 5.645906538303766 0.07763008907965341 0.0028747504446337588 -0.5485949959719907
P 8.627691505018909 7.107222985150068 11.760284158640237 1.6031591828256455 -0.2226480206856617 0.718228412133834
P 6.359389637346097 0.11252322793318335 0.3888394444141536 -1.3175049936210923 -0.11351394746045611 0.6266513739557852
P 5.97447977248157 6.98966900630631 2.472464965239739 -0.033900252291870644 -1.0605204044370897 0.12457046238493386
P 3.7715258032347845 0.569851085563084 10.157622319080192 0.7608963833160057 1.4003125131366272 -0.3489598912417345
P 9.216007817322613 1.5247935579307677 12.4627657315289 0.6847665329309626 0.8998372554899986 -0.2428358084874463
