# total energy = -381170.9724320892 ev
CRYSTAL
PRIMVEC
9.21239769487224 0.00000000000000 0.00000000000000
0.00000000000000 9.21239769487224 0.00000000000000
0.00000000000000 0.00000000000000 13.48327522987389
PRIMCOORD
 96 1
Ni 2.2954347512514466 0.9156027202564289 2.6067354937100014 -0.11916934597402055 -0.43261793168302265 1.8602931531033189
Ni 6.450963180241134 2.4140535861624848 5.531136575563556 -1.9926018646727743 -0.4926529333887321 1.7312430576804765
Ni 8.234464982128927 2.000859117116982 4.23349203088225 0.8610611631630654 0.5874129972804528 -1.0131331734023779
Ni 8.824767800130994 3.1371254821963848 12.074138059155555 -0.9075950450585465 0.08304251834447633 1.6780497614869485
Ni 6.18010025821144 1.9183068198478135 9.733509126457497 0.6045355158933523 -0.7776599759275897 0.0034355080441102123
Ni 4.473485128905779 0.2019136514481342 1.683562024888033 -1.3850609862941954 2.167582146968828 -0.6716562208012498
Ni 6.730319933102452 4.875118038630579 12.24220720332688 -0.25880235911903166 0.018324509340800696 0.09452249395961786
Ni 0.5309924793067609 8.30510564895852 11.79363252028046 0.8594475388190426 -0.3829380479593921 1.4930668594522287
Ni 6.738196533277113 6.437688114917523 0.6046640250339723 0.2739965503609668 1.1139494707905073 -0.27067211397342417
Ni 0.5265309150206926 7.1373236707826075 7.416043846951447 -0.4818275606384541 0.9169949982162078 -1.0456275464856573
Ni 8.182608394546275 4.521076376276889 0.7460190578760796 -0.30090108806129473 0.9631216173709414 -0.694094752310424
Ni 5.3429420270161305 8.184395599732104 13.323215763531836 -0.3459293319455268 -0.689186259265213 0.11721685023334005
Ni 7.815982596708856 0.8350522770433467 11.482977566912245 0.7391134831129593 0.02307307976937962 0.01900045236190276
Ni 3.003453589173772 3.977250105504256 7.546481267083624 0.07056289782022686 -0.1363085767574685 -0.4402361103499128
Ni 6.82110811406302 8.4421124300083 9.308556874016764 1.5652588082354464 0.9719363874490938 -0.251109104239832
Ni 1.7407102138043995 7.845876827781108 9.401240966457971 -1.3909189877368693 0.8359178311282184 0.32950435362028413
Ni 6.828229297612744 5.857786094105156 3.025848928383832 -1.3496422404752693 -0.34585862660859146 -0.1426103506057802
Ni 8.009737748607657 8.419274895700715 0.2219266645702793 0.4220787227145957 1.7670541538418147 0.13884419869512862
Ni 1.49823068959708 5.712405243396 11.211572955888082 -0.28929718527377923 -0.11622620418529661 -0.1552835751980745
Ni 3.1879318564224164 4.935201297506767 0.4657852847380041 0.664522695080262 1.2653082570128789 0.5095124281482322
Ni 8.922170482758705 4.872778089572844 2.9647025587940115 0.1573106329304323 -0.4262606220064272 0.1361928771152106
Ni 2.610102625129696 1.957560847151008 0.6672834570424223 2.3449633253968907 -1.0358671246647837 -1.2261773524496882
Ni 8.45766295760459 7.4279011242436175 2.1812433947543757 0.6902761498952821 -1.5674200775528233 1.023181301666999
Ni 3.2776237620370376 3.1190968195743825 2.8843962441243547 -0.0004219180287670153 0.07176488854812801 -0.5680718737496797
P 3.222966605503395 0.08199494719833005 5.212620683097055 -0.33325816423576154 -0.5266107783914156 7.970419799986273e-05
Ni 4.627424297231613 3.328172189122846 12.88823120981601 0.5893917182733786 0.45022381769024394 -0.21298710055712997
P 7.923030659901328 8.021170334358247 6.300411410610296 0.23628798006659948 0.9868364444893779 0.17237832589683216
Ni 7.208019611999391 2.107732144750017 0.3166199809858643 2.174701274512113 1.524355385152865 0.6307499695051911
P 6.861928249003283 6.43181060507959 8.527726928327828 -0.3570213280936303 -0.9671294529787536 0.4278449357744115
P 4.759456383434238 2.5042890232511477 1.3804851900036532 0.5954214694072261 -0.9865176276973785 0.84511055337108
P 8.88652771541863 8.81161249597963 9.993898473354356 0.4372803701556985 0.5643229482302087 -1.3279272173956806
Ni 9.099850000382904 0.38457984003671325 2.3097259440595774 0.14880619500384695 1.6844350961880024 -0.24171737861228693
Ni 1.2465848295139854 3.613203779069066 0.9485296727058725 -1.3089799868692165 1.2862033552943333 1.0657695686511708
Ni 0.38756926314393847 0.4382107354481843 6.8057372282251 0.015318632634941359 0.05708748904161135 0.6351054182604094
Ni 1.9265887655285392 1.1188641455122275 8.7196607891687 -0.1656929434568566 0.07507415542701909 0.9998318283077814
Ni 5.1385649803788676 0.6806110330338637 8.191035896113268 -1.4259507825300215 -1.5635150860714622 -0.6636235803047603
Ni 0.684933490112169 4.8859241813263425 5.70114677196506 -0.11174888514023333 -0.10017994935571134 0.07605605972431417
Ni 5.5969646857484205 1.1995371136169155 12.842981753982208 -2.9146699065365156 -1.959254399560581 -0.05432381025354514
Ni 5.213489412215734 9.030581980835212 11.012977610150958 0.8738649997959531 1.1602069590961501 -0.06104621657904325
Ni 4.478699346097425 7.340079335395612 3.8213081618825484 -1.2401366428432579 1.4190021191263305 0.09097488581767559
Ni 2.6128663444892264 7.125550226311009 12.62088558129121 1.3822353439199422 -0.6704812266565421 1.0427407118561656
Ni 3.6863594305158323 2.808049418057118 5.1688673206765445 0.6393081434878474 1.8747818336377973 -0.3413594531866573
Ni 2.687569678777329 8.416630937513432 7.335629747226768 0.24278232954169152 0.06194584557517719 -0.19390103045995638
Ni 4.818784225685488 7.463764989132455 8.510535672671763 0.6045206034950169 0.5896909946813521 0.3050637040794166
Ni 5.421726453558472 4.955127714088981 7.454377555707918 -0.17968591530183892 1.9097457513074914 -0.13458953718383274
Ni 8.936145690320062 6.57253919486687 9.888647748985367 -1.6799132970582487 -0.2044960323669833 -0.10542037181904425
Ni 3.6161609587837638 7.230562349575293 1.5342622201270626 0.9878286331993181 -1.7123369648045927 0.23856572035718268
Ni 7.920202453756742 5.5761907285626195 6.827998066426329 -1.491389985970438 0.880878712109625 -0.045889820553579035
Ni 7.086121163448377 3.3449203284415994 7.790650345059403 -0.38457352668028605 0.6232014677339718 -0.6391978431622282
Ni 4.576028329542216 7.338743537705172 6.330452118808604 -1.7492338378309422 -0.6833434273311909 -0.8101209246697725
Ni 7.432885031488637 1.0282878497025558 7.778758060655344 0.14318602060359212 -1.329763242163155 -0.8760933749058395
Ni 6.330861149273815 7.120750567023291 5.0211852129806855 2.1806256104163477 -0.5631821497575462 0.06271023454502749
Ni 7.394285084433865 3.986057157863293 10.136874888220722 -0.42102251353593945 0.7361250899085967 -0.8240367634199162
Ni 4.661666780096193 1.0989193041342842 4.016532691240832 -0.026230908672070955 -0.08721850409903688 -1.4794821787892585
Ni 1.1484083054656058 3.2936533343223133 4.116120554642146 0.5012316761966787 -0.6238306166775386 -0.38284625957653423
Ni 5.045188115618206 3.8764480480643226 9.375662743785519 -0.9105518136940255 -0.09338992301707141 0.27479230678938477
P 4.919162512823627 2.6667128100107407 7.487815796238874 0.396236307730195 1.029560722830782 -0.8585587084561859
Ni 3.571268943987127 7.342078425732338 10.591004647179801 0.017858882558291825 0.41405225286569336 1.6739069429631688
P 8.828185599738946 5.8943224640381455 12.468565031270273 -1.0225927761533808 0.8484339613173582 -0.23782447131578396
Ni 1.0502778434065516 0.8946500425520436 4.678319110477149 1.0668103512108595 -0.6571071193424812 -0.39129053368914546
P 2.4544223136073566 6.107165704313436 6.805318985362025 0.04270242396453291 -0.2675680211268037 0.9297160453273021
P 3.566893055001204 0.11918723985931516 9.798188450628581 -1.4493750749912329 1.0609778036894824 -1.0497174002843146
P 8.683210094535854 2.7217200376632578 1.6990406957809754 0.5103205258718244 -1.8184443353883328 1.9578469776900926
Ni 5.563744779046867 4.601251874896862 1.1979148103528714 0.4224857283450273 -0.6808458577203178 0.30470914895347523
Ni 6.137419218902427 8.215828301247829 2.3063274904871416 1.4921327776737334 -1.342143875215695 0.45144457747122246
Ni 2.9802014969622572 5.15193216968113 4.9455173406361075 -0.5335183041445264 -0.21317607663948449 -0.24000785212034798
Ni 5.783810539248396 6.797478313539037 10.595305915743015 -1.1142389770064682 -3.994896274042965 -1.2382985611932544
Ni 3.1716166998033226 1.559529984991461 6.858133662322648 -0.8671636765163775 -1.0572833855570305 0.5159738675028598
Ni 1.004446164027675 6.317982217058404 0.592487077535882 -0.5749246350054551 -0.39698938384613564 0.42093766713161695
Ni 4.251797986679992 5.296585240958944 2.9376282427082665 0.6799300307742677 -0.34054364215358124 0.012029163250392185
Ni 4.18451984507116 4.933801013031272 11.17523557374898 -1.3453019612287025 8.613195590307747e-05 0.24093216370683024
Ni 0.5729402117457111 4.994483077768691 8.123147893765767 0.7741956715280731 -1.6746823876766126 1.4508961396214497
Ni 0.49125111615650235 1.309487082136894 13.197969529596643 -0.11419297580535172 -1.055146798830002 1.7111791970510657
Ni 5.838928315675295 0.07459186427393501 5.650651776786869 0.1645791415673875 0.10108292078595495 1.5900468138134036
Ni 5.893069577928492 3.380369635426508 3.428473092118918 -1.0896024094047105 0.23778847587152596 -0.6636953140829601
Ni 6.633009374453392 1.3409658456419435 2.478792790919695 -0.00829026503325024 -0.24172586325271916 0.06936656351928053
Ni 1.3563137004852015 1.6830037535774076 11.113118217424176 0.061862027612119265 -0.27325864375367775 -0.8224761038010158
Ni 7.478302152963584 4.259112630584882 4.814837634440079 1.519420409745093 1.6225764110099927 0.44271182558391503
Ni 2.2252823415087035 3.774614202063498 9.944306293166948 1.7174796853477972 -0.846119968472201 -1.3256093678957817
Ni 1.9756447841602012 5.319800483578997 2.6411170837823446 0.08849454259798308 -0.2287461631635996 0.35829119594498937
Ni 8.692763351121965 6.87449395969128 4.580565435490778 0.941542862758901 -1.4379640049408138 0.07986797727123664
Ni 3.350972873838971 5.874856667349188 9.003281961001772 -1.3973099788648773 -1.8778725567479788 -1.2923490631807548
Ni 2.080426597477858 8.607990865967306 0.8691915810518374 -2.1382263195145303 1.5976647353699776 -0.521066965755051
Ni 3.169700521047382 0.118442878111815 12.245456416053901 -0.5451096085265515 0.6978035686205789 0.020049462451707405
Ni 9.040651131701766 2.4940264120294255 8.741571556251055 1.4372114430455054 -0.14884836109569202 0.5282657974963353
Ni 1.8277213116402766 7.5096980048878486 5.155478942859194 0.16430891862513639 0.252174569389869 -1.095937607594119
Ni 3.99177805693752 2.142555008680098 11.051135362108205 -0.6318966815151247 -0.3756471707249337 -0.9860663990925728
Ni 5.24196493401676 5.186294413717956 5.239519963623362 0.4341364252100781 -1.195618762936541 -1.371758612758334
P 8.779111156311554 2.662336921024818 6.513756726569235 -0.2061860184748965 0.12681503544473643 -1.0089728713771011
Ni 2.2273551310283515 3.6054561524645163 12.361790576294396 -0.25455978179259386 -0.7232965706853607 -1.2731727473626202
P 6.586219605696544 2.5943402123825083 11.664300587892093 -0.22582281886921754 2.0867605475350706 0.3201756200201905
Ni 7.674028758005517 8.921111057004218 4.2460052309024165 0.4107992931460344 0.8653749600470708 -0.8060048456188699
P 4.794509557310947 6.1736976416951945 12.75856302490557 0.2757862952715379 -0.16753873841634373 0.9478166115827548
P 1.451910753131353 7.405266262689065 2.680933988595097 -0.25136929987975415 0.843853026814895 0.36553116533685437
P 0.2529171709884785 3.9836250848269064 10.366198187036892 0.9589728853098906 1.1783280941768932 -1.8180833525044882
Ni 7.197462204045985 7.810685467936423 11.672377097100428 2.7087240290968837 -0.14322355870974687 1.480592895354934
