# total energy = -340892.58754533494 ev
CRYSTAL
PRIMVEC
9.03670209221719 0.00000000000000 0.00000000000000

0.00000000000000 9.03670209221719 0.00000000000000

0.00000000000000 0.00000000000000 13.22612695580920

PRIMCOORD
 96 1
Ni 6.486544721379731 2.0594734306870466 11.346483076294778 -0.44669317882916615 -0.9880536047259305 0.15826425509295325
Ni 4.931536145145599 0.3966750725685214 6.029487309477431 -1.3354006429545904 -0.8506883045691735 -0.26201083875400033
Ni 2.9207253549219545 1.6713470782445008 4.747187423612934 -0.054987154869156916 -1.7188135736678718 0.36721935167255465
Ni 3.4899110693560917 4.176483543236764 4.859529895983022 0.5957163749398257 0.9202160762566669 -0.8214587182800949
Ni 5.036370925464249 4.625435937083053 2.4714602911852226 0.3645037525136045 -0.07922751547376032 0.25874682329074794
Ni 7.296856756238187 6.265696760324007 2.847108765456577 0.32399190844248715 -0.21470125503475926 -2.0194945752985607
Ni 5.2047427577974155 4.705419786802936 11.544001887374584 -0.8659192625863151 -1.2647536700609896 -0.3612669907438617
Ni 5.41388818971663 7.947535449632205 12.768688279409103 -0.02511967788576319 -0.16654192172071317 -0.8233255962855046
Ni 1.8553795152059083 6.382649758072818 0.39382218573578315 -0.7662260230590352 -0.5724427491238657 0.3865044251544118
Ni 2.572071316972285 1.2918959597564332 0.38957132109808873 0.005930506551822044 1.0995294387104355 -0.7290854094529959
Ni 0.36001769075983253 9.102489226736383 4.810262700153418 1.181764887772584 -0.15328248560764568 0.31109011277915455
Ni 8.374745538380083 2.4390329895995455 1.3686663582323448 2.2990840463662727 -0.745145291129336 -0.07360322730844744
Ni 6.958838916584789 0.6808567598429559 4.691439105083171 0.18170731660724193 0.384459369699925 -0.15876510598877172
Ni 0.7481341028301389 7.697345317065864 2.7816658729826846 -0.3722422588084428 -0.678149027614445 -0.27442181082384354
Ni 7.7921674315287195 3.7224525228462904 3.7313419266390198 0.11855742342163453 0.25161921110703117 -0.08253961056612881
Ni 7.42796122937524 3.836360152008998 12.542547521970942 1.3614346051245068 0.11328203395530813 0.8282533726044252
Ni 7.818608821685807 8.579472023003735 7.013828152143535 0.3798552952690103 0.38034020532522883 0.2862105759286555
Ni 6.8832920875645405 0.7763114434483253 0.2643669107202839 -0.7138791340262027 0.5014638468121428 0.4895529543071698
Ni 1.9195400996609042 6.4646849391548535 9.010192870492565 0.20754433227500385 0.14715580388461752 0.21228647494567954
Ni -0.06353343733370345 5.014041234733503 1.321534535093827 -0.48543661814595107 -0.746570710721953 0.20376635328981035
Ni 6.4755199448959155 1.7620032730687993 7.156114640379829 0.9864299530795786 -0.29170888003906537 -0.37195995168133356
Ni 3.4616261919836777 4.324929447580739 0.5099844720564515 -0.6125601859700418 0.3462134388448489 0.5510874233765412
Ni 6.095291670032759 5.564032994043357 4.6326490326481204 -0.48488460229722297 -0.0573890794424302 1.737498808782201
Ni 5.52535590932964 2.9728580889671474 9.313930884642925 -1.3641908277134054 0.06420147437857329 -0.43641442261097746
P 0.2614724550581803 5.4264040220363725 12.374191955701441 -0.8146661208382938 1.78939035544517 0.07693923366021589
P 3.930766578178201 6.146728578021187 12.688034810068357 0.491456856198102 0.042656401217945894 -0.26379261324477155
P 2.1760288135462775 8.433167817042273 1.3691154823235299 0.9567771632101522 -0.6939877944189146 -0.04032029688560152
P 6.386101778250537 7.705532569110403 5.750138450451803 0.4496106095862773 -0.12845154260689493 -0.27318073932789083
P 4.618902401511087 1.0465043159711636 12.375594451857413 0.32754208768759074 0.16486813356271604 0.8779548535946106
P 4.0555092130819705 6.138288298319642 8.213252443636655 -1.1483387469036546 0.8164658930511939 -0.24843927071715277
P 4.845886283249198 1.0505437217812175 3.664999882312554 -0.3857945435715808 -0.21111456612476542 0.6012110795058098
P 0.323541042991862 5.65824061276777 3.424548603530319 -0.4039434465664656 -0.7793785012805933 1.146334314879116
Ni 1.682281487707958 1.1462695064476642 2.6384802328938166 -1.4354854614933343 0.4177916653034676 0.027280432982507857
Ni 2.0415446138477917 6.613600752004695 4.694719427922209 0.6457024770499654 0.0546822220342284 0.041989199947592204
Ni 5.747008136866562 5.520006181724379 9.27755906261857 1.5254697012629663 0.0063616805519696885 -0.09412217319740564
Ni 8.547924896196356 2.4875871896385164 10.01793154207006 -0.16956425348680476 -0.7491269014849034 0.11963291587400042
Ni 2.5905604093377668 5.406414837132929 6.739545268279242 -0.2017315822479687 -0.30397252789776685 1.010729963277524
Ni 0.49693185963577596 -0.20647418279739854 8.957632700441074 0.2751643454168229 -0.6520451314385416 0.8624690992541855
Ni 1.333654559864396 1.284061139091295 11.284319602989719 0.18261234492001455 -1.1143454206773453 0.6812225243334461
Ni 4.041240260567261 6.832758849779704 1.7327017667173452 0.22857672746527088 0.7563249618952393 -0.9563799277717336
Ni 5.567430794008861 8.007484930938464 8.330475638776338 -0.49406292636238136 -0.6712777544159085 -0.8514853465491723
Ni 5.381907301211528 2.7096460687670536 5.149050466820276 -1.2665912374903605 -0.6729705687372991 -1.1509198773672695
Ni 0.8837750003892219 7.400372178059592 6.836425943465878 0.16054508070732995 -0.03833180570066302 0.10422943683473662
Ni 5.157056081153892 4.522408497171587 7.103858103516744 -0.9278926189653182 -0.4891503195521124 -0.8467334336864837
Ni 7.959753070784761 6.948799140622888 9.237378270686078 1.0917773055688424 0.384961249037008 0.19061516061983302
Ni 4.518712486038898 0.22538077079693972 10.384374327977431 -0.0851996738967952 0.5920088441812513 -0.45704444015650314
Ni 8.345294926445035 6.935280234377158 4.881538783791493 -0.3777863285551235 0.4913550405129151 0.7532290965787352
Ni 7.257980864079681 6.127236411729718 7.166946935110281 -0.7521656883112272 -0.23479648312273757 -1.4824019235392147
Ni 2.2122117684980807 5.259098520543444 2.591183038108041 1.1283214232414633 -0.5633500427939782 -0.30970403106490535
Ni 2.6595375559779053 5.1396965765428995 11.146159272903022 -0.775556813541658 -0.25222753411499144 0.47114025612793703
Ni 1.35789099472472 3.2693522827655164 3.8545429001754625 -1.0248959703652607 0.8445837343333327 0.10246360318356548
Ni 3.712629627733251 2.702073312460957 2.727266734066884 0.1688579714483995 0.17327152713506289 -0.6226078000140309
Ni 0.8834551011371506 3.429319982205282 8.265839723794254 0.3715660586770246 -0.21896311563490675 -1.9035643050871283
Ni 3.551360643200313 2.2444095378520457 6.9431213807337215 1.1528338065605308 1.0639898510429289 0.7405129345636473
Ni 4.436361020385605 6.94299757791583 6.200884629652221 -0.6756478584591461 0.00301487556692384 -0.7146833750950531
Ni 0.8102686586886828 7.214948088984654 11.280391348614705 -0.7505885736320944 0.23521043073170458 0.13603938225648182
P 0.16124729644805152 5.539290503869021 7.903205907795025 0.3363180341080079 0.2474288271747674 0.4443529607317637
P 8.575776011871046 1.4033907894755515 7.935689236933324 -0.9037718146577146 1.1940840714595693 0.694936531485429
P 1.841390700454312 3.2210782204896584 10.313390129815115 -0.07059246550658164 0.03334437978840064 -0.19312584285682868
P 4.183785198481783 6.192011491923156 3.808847008990451 -1.8629257056301591 -0.7307720531267996 0.28928921485397924
P 7.067125717081158 4.105292404597826 10.270074505946365 0.4833267708917999 -0.09248875135904071 0.8162910580362265
P 6.331140556468102 7.635940926731822 10.420269915804491 -1.1700154605461397 0.7707226253778082 0.10274591031067466
P 2.538861436990297 8.503247441330792 5.7834414084647605 0.038990265220268334 0.30063703576663064 -0.32399833620039037
P 6.92393013662005 3.904984867269736 1.5679437115283408 -0.9477998994122064 2.397548298582458 -0.3493658684309015
Ni 5.224668685786608 2.870381887879872 0.2271031662049851 0.3615996914929321 -0.22262282387468113 0.06511755843493947
Ni 1.4276362610379114 1.0571314775653995 6.931587837925283 -0.28621571813497804 0.27970722759249894 -0.7483329448286983
Ni 6.975430301522729 0.5290193812249027 9.428813573955306 0.5222013364698104 0.5898897409557197 -0.2730583548174136
Ni 2.3899727342465633 1.4344318609689193 9.143605317329593 0.7807306444331135 0.985054927108923 0.5226638779285256
Ni 6.190068600985435 2.067723939645837 2.286890170452678 0.17778998383070668 -0.485344572652777 1.6153762937171279
Ni 4.1690824842693495 6.865164463280495 10.381623555877697 -0.45914580277022216 0.588376903855619 0.589092698975721
Ni 7.958777106964883 7.261387700747221 0.4358555015856378 1.6738827745934526 -1.2139450720495544 -0.79807916301389
Ni 7.333889161181366 3.782320673834227 7.882348295825929 1.8317364245115484 0.4930992768975314 1.2050459697877118
Ni 2.9228851267085383 8.0966410332248 12.541383594748718 0.7153143238108326 1.3695199532358027 -1.5325201803518447
Ni 0.2715998870298302 4.830650403616645 10.161818430236917 -0.2530407740449061 0.6187611725744311 0.4217429366417318
Ni 8.551693200945332 2.3584979010554714 5.908653048204193 0.5612304253478141 0.8109459916742291 -0.635904517122937
Ni 3.2646712711109123 2.7594834804951245 11.881717901179982 1.1227516424631696 0.17502167705695018 -0.9244152019396789
Ni 1.123027108811291 3.5887274061188212 12.747261355211746 0.02743469917218501 -1.569549208080684 0.14354417527395924
Ni 3.0792110352278304 8.617317731130147 7.975777854505049 0.9860016072929083 -1.2834623022140865 -0.3040095517832893
Ni 5.504155806353384 7.959436786213504 3.716779281308143 0.1786772715316665 -0.10182005606229562 -0.6078183004096822
Ni 3.023237702817373 8.498358585529363 3.3957287533973792 1.4654218440414504 -0.6172239099942983 1.181752803587726
Ni 3.2239428550350437 4.177622167693289 8.827302672668498 0.4680533896724971 -0.7136857870684742 0.3343477977555145
Ni 7.276361516020731 6.0029275385236724 11.48115072104459 0.7181319957652859 0.22687568561376412 -0.03783738256274774
Ni 0.4061166188556454 0.0752974160440575 0.3190579351118446 -0.12514844637559092 0.21037897351032153 -0.5087457251855367
Ni 4.561971178684823 0.4671468897254004 1.425895792225794 0.3317548402173576 -0.9387760986470414 0.33811574943837897
Ni 5.967991648452826 5.632838443344813 0.3871937647924395 0.24960449466984752 0.1719713202664006 0.9428114450586794
Ni 7.72131065086511 8.646117700518609 11.717462286624174 0.8757372771180015 -0.0024443477754345 -1.429958618137834
Ni 9.514472472553745 4.978825206899542 5.751976515645908 -0.772953828701172 -0.9708763216156958 -0.2590820951429796
Ni 7.94931567993328 9.109718588365116 2.3579141301039517 0.02021658415719099 0.2578029713202399 0.398951649778829
P 8.801919480319818 1.6957371370394354 3.578791552230333 -1.0286459243259962 0.33408477390211494 0.5716590768803058
P 1.8861585223402344 3.0493989552113474 1.6160876452948811 -0.30899697769555173 1.3670118421019684 -0.6305072573667657
P 4.81311920166697 1.2270666593507795 8.29850830532429 -0.716364876562534 -1.9017586193369573 1.2354628915166723
P 8.586159182510311 1.8034817354136488 12.344896775041413 -1.077438777458983 -0.3784923534832127 0.17634142430963826
P 6.388966412795923 7.824898366302802 1.541901743601241 -2.412336769745542 0.2981248108677382 0.7865809325663033
P 1.9192961087059344 3.2690450348962954 6.097720735540013 -1.1553133784492748 0.16823422182147157 -0.1398618413263656
P 6.877535708367663 3.9131088624000236 5.8181992755055 1.4629985793119384 0.6769537217547632 0.1857246652967511
P 2.3375960092464005 8.344382219539408 10.251610716346581 0.21491954169315244 0.9132216472167047 -0.47007556230884845
