# total energy = -381171.30690965767 ev
CRYSTAL
PRIMVEC
9.24047903646346 0.00000000000000 0.00000000000000
0.00000000000000 9.24047903646346 0.00000000000000
0.00000000000000 0.00000000000000 13.52437511179671
PRIMCOORD
 96 1
Ni 2.2412967067560445 5.683264316613501 13.100331754926081 0.12823325594850174 0.19959525263125624 -0.7193139318885289
Ni 2.7702864185360476 8.669186557360286 9.472188818588616 -0.885993664738687 0.48091379057493305 0.46675189725225424
Ni 6.19584293736478 4.70480845690101 5.819944864446469 1.3621452580382865 1.2538388229206987 -0.7106390298223504
Ni 0.8138607483160836 1.1685879593785928 4.59208015515788 1.0290907251728987 -1.8096496199148382 1.8298188957738615
Ni 2.1553417693972734 0.6828695635159898 13.026367263354963 -0.6123511552830293 -1.474170793878674 -1.5127260284440527
Ni 9.062082491735431 8.754781116030928 11.760918753086012 -0.7968743440725116 0.6158586542156556 -1.3285409397202796
Ni 6.148771936407398 9.024261210440072 6.49270072349684 -0.21972904726665382 -0.06264261453188566 -1.0081226075616636
Ni 5.981297491697617 3.4725628364318366 12.011186967226113 0.23245240837059322 -0.9445829351368055 0.8099833706506436
Ni 2.1242290759886533 7.887820878138577 11.747056186215914 0.7510953380651838 -0.048591021534825994 0.09653489640395632
Ni 1.6885312420385963 3.4311562492135335 4.328989852103669 -0.5802568458516458 0.4201233987604377 -0.05912688806914333
Ni 0.23019974145081162 6.528084366383769 11.944539087071966 -0.391117755556707 -2.41216887670911 0.034503433093508326
Ni 9.536266921482015 1.8058668467022898 11.875888795078897 -0.9135306938166912 0.43494555137493485 1.7974733895636203
Ni 7.731961715761625 2.2191472781547787 10.295403703981489 0.8750356230652866 0.965384445263189 0.014418746528491296
Ni 5.520622642516346 5.65563528385681 11.528894016996588 -0.45134764688204204 -0.13764426484975648 -2.1236293955369616
Ni 1.9425889766915805 5.8494543347168655 4.26150386048764 -1.457259619945632 -0.5071719529405136 0.010383400116853085
Ni 4.495003377054643 8.7540418776963 2.615113823762382 -0.09426358387127637 0.4823890895688789 0.46684162875258306
Ni 1.3923646437494128 0.1307296792392194 7.732697257904579 -0.9517118328721029 -0.955504981365948 -0.7533399111249864
Ni 4.040168510716925 6.33415442977352 3.4716129151718405 0.21222939645549901 1.4673038915555117 2.3440834938950985
Ni 8.60089017571992 0.5859535697505344 6.655791484882282 -0.6435432646151175 0.09912759683179702 -0.1794668573124974
Ni 7.02904770480222 7.848271627236024 13.296192027637627 -0.16816685891864586 1.5723658515938728 -0.3466266151228675
Ni 3.0630987228818602 1.0795097400560216 5.497739519867962 -1.140069822026643 -0.8652484617715356 2.0747154434450783
Ni 8.381789173815617 5.181940599506919 3.837257752388875 -0.10031184694788531 0.40193618632844974 -0.43484322146911564
Ni 8.28497667341701 6.056893851892426 6.231708009217135 -1.3145878199742973 -0.20039923658979036 -1.636661428348149
Ni 4.91319050295322 8.862469660427736 8.802907379710991 2.4247973641063982 -0.3623643375730985 -0.185876360383267
P 5.7892156509239365 6.669546862193856 9.429775943187302 0.23352301572695267 0.24142555840348096 0.9144904866267992
Ni 3.6210758178584306 4.307541775872381 11.116400874370479 -0.2799149727279308 -0.25916462755445685 0.9158997082695001
P 3.010446472498042 1.3284297682833475 10.490655029114881 1.8207357025256707 0.023819471017100913 1.0261946345720263
Ni 1.0208419377241749 0.8635763744155958 1.5886813961325892 -0.1798574078826967 0.49249172522051954 0.30136105841684874
P 8.812866768174256 0.07237143295999762 9.077749724189937 0.49909328969743727 1.369244845197545 -0.3930064879389877
P 5.76576331475789 5.1047825983302095 3.6262504862008202 0.40490015405278007 1.2199807367206732 0.6677193476406887
P 4.221180257429565 8.215710041462447 4.96397340439835 -0.15358227623625165 0.21607268146098918 -0.7002106354001747
Ni 5.144858556546184 1.1181719049570216 4.627825100780857 -0.2498065833783246 -0.71300598739263 -1.3249537365896538
Ni 0.7233465585284992 7.995306131993363 0.327073229012026 0.4174759338352616 -1.7348266612666767 1.2204908435878723
Ni 5.284916499520479 3.4120007358675077 7.6054595557485545 0.9452408804357785 -0.44084880423324724 0.9229162487966492
Ni 8.550982347653406 3.3305459118707788 5.364998188310639 0.5922453856720896 -0.41966599950804495 -0.04307214859912582
Ni 5.311205662795658 6.381872264273702 1.6451730656168775 0.2680696433535706 1.017106556227829 -0.9846584630014525
Ni 6.867154509518875 0.4465692577086677 1.542428177582887 0.11893640402760805 -0.07896397739972852 0.9498436693151127
Ni 6.835284096817262 5.5625651775272535 13.358918248426576 -0.3535837631669911 0.135459855603928 -1.301910224506629
Ni 6.630431913812897 1.5848253441695903 8.23419377197188 1.0441851576121757 -0.9113162026638757 -0.862190134561186
Ni 3.047972058459552 1.8083063332065596 3.4312828437783383 -0.13118745348081923 -1.43474061290751 -1.3797071781814496
Ni 8.92031506011231 2.051737516799279 3.0830304364792447 -0.46800710981559396 2.7455028884881294 -1.6874304313709003
Ni 4.532695291641445 6.9193632169019175 12.944679579282825 -0.7228476560734002 0.8694270186292574 0.5833858783989307
Ni 3.374253378405609 1.1534058520811878 7.888429825716725 1.1659765145900758 2.5253920324020247 0.8242576211814707
Ni 4.31785415064043 4.522207347768922 0.2627992279599505 -0.05360415847870123 -0.14136362268287267 -0.3962625329824401
Ni 2.515323116923145 5.650479096472787 1.9350949480742978 -0.49959542614483643 -0.6626763859001427 -1.2786782505618817
Ni 7.454996833214382 0.9606217348896109 4.273513711281575 0.1674019557281633 -1.7043179511548583 0.8724889453840328
Ni 6.397618040801261 7.490739006693604 3.8378657759191053 -0.2520953794125013 -0.2573414583027891 0.2667416685707664
Ni 2.4724750149523187 3.7691082943675163 9.145737473825594 -0.35150554048172367 -0.5361498282301025 -0.5159476422506146
Ni 5.936287117598007 3.976926671189573 9.88792814155166 -0.4241178646318115 0.31123126634270915 -1.4438292054723394
Ni 0.76055427200612 3.8710307797542343 10.851174172529197 -0.37442615383363903 -0.06806532820935374 1.1938449588655697
Ni 2.427520083727806 6.339643274408127 8.1067814247593 -1.3284645779563895 0.3278087110854161 0.6160897963898552
Ni 6.482464120658091 2.3379336380501785 5.992988545959745 0.8344965253006595 -0.5674342401656809 0.5953232532664651
Ni 5.787459959879197 6.687205417912263 7.2234904880071165 -1.0810030977714737 0.12922493043780972 -1.4253224049174034
Ni 6.591372408307036 3.14553303767197 3.7423571071331967 0.03000323123030962 -0.5900640617500548 -0.3973891903877156
Ni 1.753186874880923 3.0140964617752632 13.356511103599447 -0.037464572604361285 1.3816840994021624 -0.6832462396316942
Ni 0.5368311824145604 7.532006986724165 9.710812180862503 0.1313237219483674 -0.6517044602696712 1.3750735360641801
P 8.318556574767449 2.874870161927423 7.4966288881247465 -0.30170352935793204 0.5490955897574931 0.2055116181156912
Ni 6.826958425073523 4.66002909478097 1.8180143806360505 0.2795221081648863 -2.1985670253861165 0.7833793949098702
P 1.7682580964281338 5.631157254501469 10.232475116698433 0.20536609367676245 0.5084860437662468 0.6966601990447551
Ni 4.013047704315292 1.942625938608312 12.362793668468578 0.6218405828307032 0.3843948350105767 -1.4121560427387743
P 1.8498792490501537 3.1693919549220615 1.9413562967685898 -0.3628014251105171 0.5466653830494457 1.2986148415848087
P 3.3174613933478785 3.4188664119003573 7.222192200681928 -1.5752863676747775 0.1513418169415071 -1.401725848544386
P 8.015200883674016 3.9942063672614823 12.613210654323522 1.8544294952336904 -1.110845377943887 -0.3504642437014029
Ni 8.034633611395527 2.535661411604574 0.9821307982835059 1.1807397889421796 0.31621972069623605 -1.4877868420002118
Ni 4.041175722947854 3.8228878832116413 2.943593453706036 0.26444413078584134 0.8089942672644971 -1.0090358634045526
Ni 7.108127725648959 5.028622568905248 8.18991524382355 0.45359273416247686 -0.3858775902036903 -0.41618395449671547
Ni 6.75160231733747 1.107148013291894 12.375033607194167 0.196407598931894 -0.32433309383198977 -0.08001761547522347
Ni 7.937017189308013 5.05254616950962 10.581255155358868 -0.38515356755347213 -0.9297414992485988 0.8120088857211046
Ni 3.70712316000903 8.22177179580639 7.080145706587485 -0.787525812978076 0.35476261396644065 -0.8405126495877525
Ni 1.7417564021317506 7.78261802264195 5.581049832084605 -0.4275070928190186 0.7957235182975199 0.44670603434497264
Ni 7.277080647027994 7.922555839386869 8.395283045566318 1.4832501304721228 -0.8127758457941163 -1.1580096943345153
Ni 0.29764599900635585 7.122626037486834 7.549996351597317 0.556325531847029 1.8163738260125493 -1.240798701907289
Ni 1.1301198445404328 1.6557367814186994 9.731762195265837 -0.8498467825044846 0.20346681977152054 -1.1421169343636588
Ni 4.9765986711058625 -0.10113704465617644 0.2754383553862381 -1.028377758266274 0.29654641063702475 -0.6883334243466146
Ni 4.370266148565494 3.5032135058813147 5.289112601117407 -1.6261949815991863 -0.6596124022628382 -0.0394422651560224
Ni 4.959522265575976 8.897407912218052 11.076950496595181 -2.0583089770625973 -0.6559789192753089 2.6524230405123093
Ni 5.76762065107364 2.5965838908570342 0.5776029487130024 -0.7599288771964139 -0.4051739765394571 0.769668730191997
Ni 0.08137073563616484 4.850955875656797 0.8741752040383124 0.5133644549044707 -0.631657568921125 -0.1972486067759506
Ni 8.601038023386847 8.328527051805732 2.8562127104093524 1.2363928595301092 1.2985729326032798 1.533780792231823
Ni 7.236210007602295 7.149063048428937 11.075205894125462 0.24823358246424992 0.37897057867121187 -0.6024670634000979
Ni 7.893965796795164 6.691687050315939 1.515946812340706 0.11697002432985662 -0.11030186828106166 0.5175134440758378
Ni 3.3163248144083894 1.718904697112589 1.0425099373600146 1.7316307800371984 0.6526935636558179 1.665317401521945
Ni 1.3351013942533576 2.5668572693258396 7.163550271691793 -0.6289345135630071 -2.3398468301059316 0.26427546641846095
Ni 1.0672291432220282 4.586363994735375 6.4526820562518 0.5147477084052425 2.8642588010738157 -0.5456688234641313
Ni 4.386945213490519 5.294628243141644 8.598702954297343 0.05701369838088245 -0.7568430391822385 -0.24521253624973902
Ni 0.13850369437574211 5.162443188431127 8.738139013022634 0.9727030904117893 -0.9881327947032982 -0.3656291243672993
Ni 2.0863061494222808 8.511627146813694 3.2012198614194327 -0.17223048746505823 -0.5971767615354361 -0.049586295568559764
Ni 5.3530373120563715 1.7988625634816977 10.049597717238777 -2.188093893768935 0.0272709199008111 1.1711506025918474
P 2.9419190788781058 7.952642839606194 0.45058239781777476 0.3394061861150284 0.2099316015602578 0.328822239951595
Ni 3.608231551794284 6.745485120118429 10.309428903285202 1.119689715708394 -0.34351172364296967 0.7531799885083544
P 8.59607588606566 0.34615574257250753 0.12203069213649445 -1.0410795221036586 1.5695175835118003 0.6066571902220455
Ni 3.506650964137331 6.2128639000195705 6.109663456361866 0.8670482339844358 -1.652419205403038 -1.3140458314278982
P 0.5758444855245082 6.391177426810821 2.5460985328415915 -0.14037940439273242 0.5325158310219409 0.7736765657998096
P 5.184315402656908 1.8757803121996524 2.483589463313438 -0.3418477056769854 -1.2092155277843692 0.47882322659449145
P 8.016864169926928 8.20914930124263 5.210698818819751 0.2333458667191401 -0.33718475298367734 0.22735365369144717
Ni 6.895393413901632 -0.03507223873846667 10.138358988125379 1.6022294719225245 1.7355272868781273 1.2260161442814757
