# total energy = -340884.66391593753 ev
CRYSTAL
PRIMVEC
9.11921870191121 0.00000000000000 0.00000000000000

0.00000000000000 9.11921870191121 0.00000000000000

0.00000000000000 0.00000000000000 13.34689835500211

PRIMCOORD
 96 1
Ni 6.596824608728619 2.184080249412261 11.621825107940156 -1.3498695259947266 -0.40080310116527107 0.03410928297888319
Ni 4.593377844409899 0.656102255589758 6.070476069112304 2.2510216436414074 -0.9189338671101336 -1.260659445386958
Ni 2.9373003608960606 1.9083515511444766 4.601369927726537 -0.07234852896573993 -0.20654005938020556 0.9926576791568453
Ni 3.4259263402115923 4.441296633237394 4.4705173458931515 0.9004309232099396 0.2116701815179193 0.6518250450079355
Ni 3.6363979090705834 3.0346115442277024 2.5227370286188817 -0.46745817929065947 -0.2975403991191779 -0.8490240294928734
Ni 4.953851442565318 5.159991382515816 2.6523895212641464 1.276531636532524 -1.248318921543734 -0.882650459298067
Ni 5.452034363135798 2.976193828884951 0.6876337782779613 -0.8060446977178699 0.10565459931703738 -1.2585053751584327
Ni 5.606067087121812 8.4674317134473 12.722917881104099 0.6401900318721685 -0.5010334441429436 -0.33360834848632864
Ni 2.506143698172789 5.97018837277912 11.616018901359025 -1.614941520172554 -1.562797234068831 0.3976756112798829
Ni 0.9013873539667772 8.205509512374165 12.03607291524842 -0.5037680694652872 -0.5621025435401222 -0.9319397924514982
Ni 0.6005014669203405 0.7977538162724863 5.282248188751001 0.3918052685420349 -0.7095036306663265 0.06263618677398246
Ni 8.790197342051941 2.646287851995362 1.7244324115336103 0.07819598888545243 0.5210435687162833 -1.1330779640898423
Ni 1.457397064504703 1.2247931517280006 2.796695686526374 0.9141220475437869 0.4114826923663042 0.058394637888809116
Ni 1.825667594695409 6.721885574730881 0.40084985111382726 0.2953485336741817 0.6021269064518597 1.5320522395764904
Ni 7.838406242184064 4.102882425249649 4.046125319642132 0.23543643069958162 0.07462421237379406 -0.3386626230807845
Ni 7.632083917858471 3.8433859363652707 12.889727542487355 -0.8007225141740081 0.9998698806345682 0.8550290980363726
Ni 8.31688253102559 9.182870901630286 7.205256148278067 -1.0238040228526626 1.779936923341754 0.5428231264852199
Ni 7.275175934236149 0.917320452975028 0.8335376306660166 -0.31933049841107586 0.33613317179071145 -1.5196839478191246
Ni 2.43401979704169 7.021287764885924 9.411004573373422 -3.7787803980488666 -0.009128444663829439 -1.1819471789867193
Ni -0.07487060982002124 5.1790505497131845 1.8005632973855341 0.29609903868696097 0.0388146588743525 -1.0194164353079282
Ni 6.524500084784917 2.169133849873271 7.313366310459051 0.7926713617347574 0.39818391837486905 -0.13213644765764987
Ni 3.29333289951793 4.25949588814325 0.3017668035781428 -0.1181020810517708 0.8487491785649318 0.19003023465064045
Ni 6.093060726280249 6.111773363164939 5.10685734251955 0.40580132571081085 -1.7611429305637023 0.61678348002277
Ni 5.219658430827963 3.0348304054778157 9.410083532279197 1.2258022284984569 0.8912831952724004 -0.04880570864879337
P 0.2625678417609689 6.007413023735897 12.499997666723036 0.2948623380663825 0.23822530629862843 -0.3100670708312789
P 4.241293927508824 6.492509865393351 12.78276548994759 0.075227907396064 -1.4783701766720023 0.5075900143145388
P 2.553299178353458 -0.24452090784537345 1.5772026247386182 -0.617231366193466 -0.7006166125893418 -0.8139055885231854
P 6.846827990889332 8.507756898780682 5.885648655313467 -1.100682321367956 -0.6622899490950014 0.4070303130219055
P 4.448710558084984 1.1760509274840096 12.901832393462374 0.46396816385953 1.8324583902792377 -0.14228330628366462
P 4.183997876072905 6.412953800977154 8.463295235820159 1.0147341993409105 1.4454474578020524 -1.4231518796286458
P 4.979895931328804 1.6874111191550643 3.8260484776687926 -1.5931205676427207 -0.8662077403610113 1.549316940194209
P 0.22010146386397803 6.045339854536787 3.755483962944751 -0.5284144072590576 -2.762736478757597 -0.05916031241024004
Ni 0.7803288130759628 7.843695389061803 3.032548776945384 1.3749359820450515 1.4630672277663448 -1.920320184389228
Ni 2.0086903151026863 6.539373530573869 4.830656268720272 0.7153852862580842 0.7321113407635134 -0.34151860447234084
Ni 5.992256882165548 5.901411224931005 9.810264032736427 0.07103058148526477 -0.1363366017819265 -1.2360655580976776
Ni 8.663923519955302 2.676290081698398 10.475940556096768 -0.07700531101146094 0.9432757862896077 -0.6759687321336746
Ni 2.3394626177739744 5.880509975545181 7.0246992646220665 -0.09426589786412153 -0.3151105467924573 1.8598514375802098
Ni 0.848139323736078 0.19949202947830555 9.137246538278536 0.3439344130026851 0.11645323259443814 0.4703337010662416
Ni 1.4918221153037796 1.5928539398873482 11.374841099109132 0.71890409804462 -0.6271141725248168 0.09150324751731984
Ni 4.431384042451011 7.311734882223831 1.4501007775790495 -1.6912498051169904 0.7462788905131471 0.7352815109613787
Ni 5.752722363135257 8.303349610393582 8.229791256152364 0.423722943186238 -1.2774819162609352 0.4218367819071186
Ni 6.981455017365298 1.2932146500446822 4.904518292946021 -0.3675296838241219 1.0426314399718106 1.0480906633141691
Ni 0.9930738031705063 7.95397410146266 7.011472749740218 2.0316054996294817 -0.8318416041763157 0.4218360105761703
Ni 4.841502667507139 4.94389325568516 7.103326080647157 0.5756311741541764 -0.6254426983596648 -0.2654574025417041
Ni 8.807551215342178 7.5141997770161755 9.890705573293708 -1.1028821572327523 -0.4499757062351799 -0.5538924969255041
Ni 4.750429029803726 0.5512002345666852 10.58736008276384 0.79249652671979 -0.44221303157062547 0.6495830430512942
Ni 8.753519844220449 7.410988459150229 5.180878953073507 -1.6811564254367306 2.5578982325598463 -0.23239198744630302
Ni 7.424503141344727 6.921003716240244 7.283269240880966 0.4895899781926923 -1.6674676150957284 0.09095431699238529
Ni 2.509536047549546 5.771444119238702 2.4216076283946375 -0.2707831856299917 -0.6491878644954046 0.6539814292293059
Ni 3.555036239340951 4.827532024374904 9.74650610289091 0.3236694921060619 -0.9680185404519263 -0.08001273037921705
Ni 1.1784857588915207 3.9088710462429317 4.308846364278181 -0.3101686294061497 -0.7281361581658492 -0.7123146177525604
Ni 0.4337410493183598 0.3943104593448159 0.7399297620706675 0.8760049289570913 -0.6185485423429928 -0.3078052713802957
Ni 1.3535109244509063 3.67443417049653 8.773957837293533 0.41984314851585763 -1.1538069691070774 -1.5808535773499097
Ni 5.634947652918019 3.40269057082456 5.0930298711217645 -0.42520544126903553 0.1399916820360105 0.2516253817546183
Ni 4.04900608084675 7.300427050967975 6.126106039281736 0.967062090075928 -0.043653475023892566 -0.18253572604580823
Ni 8.188328904240269 7.354786713964875 0.5283237623985888 1.084174810631236 0.6702418569522263 0.40940806922546263
P 0.28604891813250344 6.106940177224936 8.136549980150955 0.4113348539345303 0.44957358570075473 0.49395802535340083
P 8.84808614270692 1.887942739571408 8.333443032284165 -0.029726837640471387 0.883318174789053 0.44086628773474396
P 2.0316981040208506 3.690529591598615 10.851749032510128 -0.48786322530957266 0.32607758732692227 -0.3642836660829984
P 4.158500540434701 6.459407101313709 4.038785260466456 -0.40683748028480904 0.9943548643536101 0.10785417807151748
P 7.067713707566217 4.2648762272085365 10.71258063509431 -0.007190347100852133 -0.6211520414041108 -0.4625188330075131
P 6.420039433949572 7.947472098490542 10.445268975737136 0.2788721332857133 1.0119502088378702 -0.2874657884919953
P 2.6078594641629618 8.979676469337562 5.817152379402996 -0.9555985695210187 0.3935587608980319 -0.15626162284062764
P 7.021898752542492 4.20826411717922 1.8861571965392332 -0.6292440743836261 1.7130555881381722 -1.1031783483169322
Ni 2.4060602723397113 1.8902316634788432 0.2948033681370369 0.5915576155764457 -0.48848260406112654 0.7619353661034812
Ni 1.8862556841017843 1.5297398268859153 7.432834459599041 -1.467518321559163 -0.49148231011939875 -1.8246833743195092
Ni 7.350217985368759 0.7450438199483158 9.461682807759042 -0.92810036410075 0.10634031253015233 -0.4948903073596831
Ni 3.096412489728456 1.7971335592118831 9.320486296092174 -0.6237228874550806 0.24797107283148262 0.8863441060995703
Ni 6.525731179316804 2.3173211546375088 2.6295522617366953 1.5543125936365876 0.019567894829598555 1.3040918055389799
Ni 4.194019897484344 7.2432313109383575 10.724673631084947 2.467590033791892 0.9563174499649143 0.252380771863404
Ni 7.483404175281478 6.595949163728166 11.785378296306101 -0.8055821562591545 -1.1566950892881498 -0.5870383875498535
Ni 7.649921109742708 4.548566003449193 8.395225739347408 0.5185089752198877 -0.5150528983504872 -0.032811390103066065
Ni 3.1325154767784014 8.44332961827857 12.592037941614448 0.3816275566780847 1.088777856620886 0.9660254212812975
Ni 9.633086731550925 5.247079921623413 10.143696411518466 -0.7846991421625582 0.7412690960033815 1.7000974853156074
Ni 9.297134712626956 3.0512085223612972 6.633421857435072 -0.515320550189577 0.1202252980423607 -1.206216335946729
Ni 3.8589342043420722 2.7788539350327603 11.383716834723105 0.01372686266778926 -0.8053826386538389 1.5938116801724744
Ni 0.8188830461271779 3.9010193988951154 12.760635881795505 1.899623061051193 0.019017421642767245 -0.0582470565673513
Ni 3.415548669268718 8.803374613152517 7.9906680138879125 -1.0522784761432715 -0.6086238270301132 0.4102171953903193
Ni 5.8857170494541275 8.045531057760071 4.08157537062924 -1.0921997378182418 1.9165182941446348 -1.6325718316598077
Ni 3.4220962683346086 8.536591868483114 3.561312997609826 -0.4776914269828934 0.1355174483147408 0.825531602797888
Ni 3.8846959973241626 2.5436328064734526 6.941761793891619 1.2800635609451825 1.6988019064326356 1.0072029239608717
Ni 5.203955136132332 4.542757061102435 11.86989065611549 0.43439404974683893 0.8781589991856168 0.2624525542771093
Ni 7.924774363010039 -0.005037456440108612 3.268015212489194 0.10048462508032373 -0.5620063842818901 -1.4115603181363043
Ni 5.084511608882979 0.5900991740868288 1.9200715710880456 -1.6643501525126692 0.667719861861321 -0.37809306116226493
Ni 6.086722869245716 5.883893205703183 0.51315758968761 0.5982612528488664 -0.5535973342825885 -0.12274600758168537
Ni 7.892474090180813 0.046903789743038805 11.621491344533734 0.16747420372699542 0.15830307875068866 1.2504701635587818
Ni 0.06412452243945645 5.323170682912817 5.975566888000655 0.06938816078583535 -0.39934400012124127 0.9013614054440089
Ni 7.295083188777708 6.51091244884038 2.71734845221966 -0.3760027542921396 -0.1740179183827842 0.7093061699435398
P 8.820619055817696 1.9370132556905686 3.7511860751456503 -1.313093494816958 1.1127472229522901 1.0444319835156595
P 1.5234293275076474 3.740411718186946 1.8176873663631516 3.029184013126712 -0.41179585273134883 -0.60198343889546
P 5.021069204006375 1.11429557807703 8.48439619609671 0.23774348156620342 1.4441050848415453 -1.0284170961446417
P 8.870692685999877 1.9460139246014798 12.62329588774001 -1.4746569894864732 -1.1200064756178647 0.8552057328235529
P 6.4427736463050955 8.17417587673294 1.4736174189037277 1.2529566774260614 -1.4135017581333915 1.138344097584788
P 2.4317399923530094 3.9146708693709353 6.329593198496486 -1.5708345025510109 -1.1951755047515353 -0.23819239617816398
P 7.167505318399142 4.553344474076668 6.204586035884876 -0.755148682198951 -0.8354316355204193 0.8304742915151438
P 2.5484295155384364 8.923474724152209 10.43714101606105 0.0851816761746662 0.3032485052475487 0.4743795890008411
