# total energy = -340865.1380141046 ev
CRYSTAL
PRIMVEC
9.30890675732929 0.00000000000000 0.00000000000000
0.00000000000000 9.30890675732929 0.00000000000000
0.00000000000000 0.00000000000000 13.62452599807049
PRIMCOORD
 96 1
Ni 1.9345769609821328 5.3713694089315 0.6787086536157392 0.023352558683011393 0.019572008594656614 -0.716580849228082
Ni 6.571212993066372 1.4586311864604578 13.003683250113276 -0.43306838895688 1.2408164425191017 1.5400308869065928
Ni 0.9257530703178097 1.2918248898391567 5.212552946809337 -0.14311711503886967 0.5906284188939569 0.753944891698837
Ni 4.733327644507112 8.881478804935412 3.475453267777367 -0.6626753574588781 0.9953632510134663 2.5028105475570834
Ni 0.8533046432451716 6.019688206196443 4.29041731758015 -1.1287199442314624 -2.4451368469946986 -0.9804207707710212
Ni 7.356856779881928 8.345890866093592 9.15732963298268 1.0787855212948647 0.26959662152105823 0.09114277885410756
Ni 1.6454330143693618 6.774193700573904 12.154589025304501 1.0300821425518907 -2.076654312339004 0.5769671193567806
Ni 2.6892872513038792 7.6662010537265886 0.6399184399865766 -1.06603130695299 0.04825857789607173 0.4087285266599348
Ni 5.158297846714581 3.865225563396589 3.6439063099688624 -1.1388313216338515 -2.442624622095806 0.5987471913463495
Ni 4.58177864573515 4.672605647026184 12.810623975215764 0.02313452913493435 -0.629583974221548 1.2350497152386537
Ni 8.79655365040245 4.12551189967809 8.63482908587142 -0.5918628055216903 1.3722694909564819 1.3225775230479933
Ni 8.884141152211136 2.3305685370730718 2.8401278422867415 1.3121894949454498 -1.2032102021305537 1.5466705037102977
Ni 9.146931584356865 0.46433384448063403 8.049642361995392 0.3552824910256527 -0.2559142389379593 -0.6595542953313931
Ni 6.470444079570886 5.825281001629266 0.880240895262773 -0.5954392100190391 0.8532398673464338 0.8472530536353796
Ni 3.7903447190402217 3.850461637594849 8.320525026612405 -0.4896498848963503 1.6079663744063017 0.7668099205869632
Ni 3.649063444202257 6.616100540491336 8.197986304239272 0.2600277468857006 0.26793028956222886 0.43048828693452956
Ni 4.615272091532541 1.9458593557310035 11.711192773455188 -0.17042917259026133 1.0428867505157264 2.3621771181720157
Ni 7.050109690967083 1.2180704231763644 1.8928823685067262 -1.585555096590637 0.188627697876159 -0.6096522682946275
Ni 3.2728067500152838 1.7480916358962169 4.614953726928241 -0.05098960367398961 -1.0190014592576966 -1.341018246251684
Ni 3.4389800409906086 4.137092179436832 2.1224418660200146 -0.6074583459671022 -0.022820083218309088 -0.17895212245960795
Ni 9.02444499186046 7.591739110165353 11.225042575564114 -0.701015133579341 0.6921366001427887 -0.8376116738908735
Ni 6.16974777991905 4.572246325419273 9.215492612050685 -0.5311048096070272 -0.22178618690599866 0.6871779705859327
Ni 8.445458930643031 6.372737796333141 2.1963145557960995 0.9530004697765394 -0.3592322197020201 -0.6983944081270423
Ni 7.7267834176091394 2.148169821966326 9.354585362956751 -0.5846542035883932 0.33793114423139864 -2.425549154670758
P 5.149798815026695 9.30150597776033 12.410280485308737 -2.327705309647391 0.8234968317560462 1.377446407171731
P 1.9255566305269711 2.92022260520651 6.88154401100623 -0.4893668064382926 0.3870348437365851 -0.6588595832572137
P 5.896363812109776 7.020991431252175 4.382682544934468 -0.4881702150270303 0.5512812845549022 0.7562030916053943
P 5.30791059292238 3.1442693682558707 1.0975089125562518 0.4463599638594635 0.20570856461784576 -0.3484284442182967
P 8.4234526755388 0.2863354495040791 3.2318326669075033 0.07246602838021068 -1.0724724345926433 0.8061645111251857
P 1.4838024697945724 4.066242091620284 12.515352906306205 -0.583232640650518 0.4416779850027619 -0.23633888790919297
P 4.239192266570178 6.208435595576069 0.7781910762248425 0.0831823863564503 -0.5779631647214627 -2.052824814019574
P 1.9358802079003192 2.170390181921404 2.5400338288892375 0.1626004205744619 0.8631488989300297 1.0057114270170098
Ni 6.482648056069047 4.5193345005409045 5.519826919835393 -0.2579657221503493 -0.24521047936720994 0.18174768292687407
Ni 7.67961518807735 2.2764186276224265 5.30442254563492 0.8916143533595741 0.6327263765052716 -0.3541308939197127
Ni 4.814827121426554 8.857582841799807 1.2818196770701082 1.0724189556468884 -0.9290709555441353 -1.4559360160382022
Ni 3.350238234768673 1.5968870666669184 7.88174692330675 -0.16243021354518478 -1.5211857291756319 -1.0152353073470453
Ni 6.662207554675458 5.3483112473861585 3.186272085538362 0.7675383141125555 0.8769526375823412 0.5022333779883157
Ni 0.6690897604688677 8.518301124463095 4.389141064304738 -2.8394389138166582 -0.23793322897950633 0.1834024449214777
Ni 3.1518095825682346 0.5262511055636702 0.10942061125093053 1.1869646868059687 -0.26384660641115854 0.19712673648610568
Ni 0.546502631781631 4.331611090882711 2.3809809205404897 1.2311205553875764 0.6825142465616761 0.2922012462944516
Ni 1.0320319256052553 1.3982163828959595 0.7341925293762137 -0.9062372454790715 0.4196780836929031 0.1785579723449828
Ni 7.2410260555748325 5.609761196987469 7.416919706778517 -0.19879949620283824 1.41254685041929 0.8146782050231518
Ni 2.829265279223658 5.851587971563514 6.057641549126 -0.42361289997093504 -0.5397935956302768 0.4854769844655833
Ni 9.270991382061652 6.771456882045713 8.814604551109987 -0.3824575087785478 0.31785365675523325 0.2416806118370805
Ni 3.536118480928288 8.326444560292938 10.774343486519676 -1.6393996532149187 2.6547576021827566 -2.0144171607756536
Ni 2.0481083853692854 9.139382061137942 2.587528801041229 1.5078841269707193 1.3115832288200187 -0.18723210308021304
Ni 9.15281481330182 2.3614368712209726 11.1408016256632 1.617288680248492 0.9388406333363896 0.6104097152859423
Ni 6.357880781465815 0.8077235822816022 10.615181663964194 0.8296394543186744 -0.48830494083268167 -0.47679025532486274
Ni 6.947181111150033 3.2800863149440107 11.244348316875733 -0.9188181674678757 0.939253552504092 1.1164856069487998
Ni 0.9707979382636113 2.49385606701527 8.972499431482861 0.7347210104722185 -1.9153862374227206 -1.6015018497278806
Ni 5.840687241983542 7.94619434519238 7.185751630211924 0.4603925306931297 -1.11422689282161 -0.10793773892425926
Ni 9.17215872113033 4.56579525317425 6.31122081823212 0.17670394985537954 -1.7499133803964704 -1.2211611301820195
Ni 3.018245391267245 3.0243706517827214 13.581527108495978 0.03206654151724155 -0.08754786241399762 1.2427599393987177
Ni 8.679931669037883 5.531799104560246 13.207806160455533 0.4592350200499188 0.16176018406135367 1.1405601313995002
Ni 1.5067116888349776 5.170166702576636 8.235167007924474 1.6458549219219591 -0.4796490649298965 -0.20330201205888213
Ni 2.580643002859926 7.47192417385123 4.291957010724922 3.568586029745525 -0.4297920321984533 -2.5834969069645566
P 7.82574640323228 7.870885291134322 0.1613093872985222 -1.2177150806149482 -1.6607125557600817 -0.45960860133925363
P 8.825318171668135 0.47462763335299496 10.187766012003813 -0.365130587464326 -1.1318749449206766 0.0605628491847215
P 8.287393697280137 4.098702248789683 4.121691524426492 0.9540294252616859 0.8927530949497077 -0.4251527336542291
P 4.801152337692155 5.258405827844414 6.831105562600449 0.5211754663084572 -0.36956188376280225 0.9002128936618626
P 1.2879244579911557 6.9279768369199 2.36935968159289 0.5037585563835905 -0.5879608993641229 -0.5709718210052941
P 1.9231735504480016 6.997663311416638 10.04064898364434 -0.7194216611109868 -0.8896682853767969 -1.5388823751244465
P 1.2056244151076843 8.746695146875261 12.50574797651917 1.648418054663445 1.4912226071546382 1.4811793639860233
P 7.522024708948939 3.269027333952543 7.235304801603994 -0.7212180908897772 0.11733023588275278 0.3983898637380881
Ni 4.264335623184617 6.537142395062356 2.777127955370955 1.0089813560175334 0.2463098830789758 1.1356657794216765
Ni 0.5580791879777497 6.7167856738277925 6.393513413990344 0.5089557843138138 1.8855832951286753 2.483283276157433
Ni 3.1450978609395746 1.5427371572162734 10.17267068912859 -2.296957229831257 -0.9643068959282942 -1.4193798141807232
Ni 6.802632410110044 8.330838364188537 11.747216380055171 1.5426055896123045 -3.1196853017420785 1.3102979343496917
Ni 4.4147768620761205 7.395023296771673 12.414994515589951 1.3729248651522936 -2.5802208073164468 3.5899976626520815
Ni 4.350005490242257 2.9454683597930926 6.158080927329314 -0.041089570951458265 1.6245299351919378 -0.5636673169240808
Ni 3.653894766706105 5.875493243605677 10.82758763936218 -0.1381782829763556 -1.1895427319457899 -1.24424012348867
Ni 5.162179660749465 2.124283167737281 9.371521056658583 0.7833878795503025 1.7026801584411193 -1.1691037473651478
Ni 5.425631025260847 7.401260264165852 9.847507790369114 -0.07119487497727094 -0.9836606178645574 -0.09662642767649811
Ni 8.655719203079292 0.49677538383691705 12.671572183498554 0.41064785516983465 -0.5848447223326444 0.00915749812955197
Ni 2.0496350460448753 3.7488176868828678 10.407952371503375 1.2396884995622457 1.2539383246130404 1.2259487813786498
Ni 5.993697739085183 1.7004951966627375 7.1383795356265045 0.6361832247056204 -0.9200661809423638 -0.0681702292183342
Ni 6.482247773087033 5.8218273972960715 12.285411743624019 0.6504829291577443 0.5785694308468938 -2.5281233152902587
Ni 2.152824275245563 8.762818173034539 8.844592262697455 -0.28713128797071197 0.3547199336539633 -1.2371081404295792
Ni 9.19723691539886 5.015964665435509 10.98574130733738 1.3679767771183988 -0.7013858866551985 -0.2669483852649338
Ni 4.058320212139022 1.6727453462119255 2.1984258158035614 0.3934034662670903 0.002642322718853514 -0.10520748447728978
Ni 2.0829609315242132 1.4591804119474079 12.117503272466196 -2.1137648440380565 0.43639102557220977 -1.4912809711963995
Ni 6.702319633035924 8.034135585450286 2.720340832692294 1.9024661869269428 0.3366098543168138 -1.2470014882838911
Ni 1.5523811844108526 3.51060276805151 4.571505336457218 0.3568650050214241 0.5146302089907717 -0.03213004776532531
Ni 4.372598206459673 9.235822333083735 5.9641084486984175 -0.9316870530107438 0.4910979301967865 -0.21275210172818843
Ni 7.334105812253017 9.253499946638279 5.32440969890662 -0.06453186113479853 -0.752769126223181 -0.47791639850950596
Ni 7.7214866497773675 3.7567768019903633 1.5866444767806291 -1.8648969704239173 0.3396031326171829 -1.8573335562543627
Ni 7.882391099640596 6.7162457572474015 5.366332359592709 -1.404998862868703 0.139032917667167 -1.5871311828285053
Ni 0.08351392429869649 8.436466526907546 1.4356158458852861 -0.047735615513066175 1.3451482092596576 -0.41823620904005393
P 2.1166777910790073 8.16457198414763 6.095190885510917 0.5802856422070521 1.777259633619907 3.0569095040664385
P 8.359156057939417 2.7774053607863975 13.135650033048831 -0.10749216674640844 0.3704715400612652 1.0246411740419772
P 8.059260324251609 8.087159117207356 7.056618478432768 0.6674249563287216 -0.6169765698701826 0.5307391987374924
P 3.2703398897772877 5.107247803147908 4.109551779383585 -0.3134437006129957 -0.7647754066554378 0.049377007771231086
P 4.615262782625982 3.8679065284854297 10.7943027130717 -0.206696896673044 0.7886599265825193 -1.6361286957731307
P 7.547959322620848 6.053917055611954 10.278232758611034 -1.4779883678525512 0.8096696960649669 -1.0527371609472451
P 5.025534221377621 0.04235831751302569 8.592144025738191 -0.3428812891478224 -0.3372983957434062 0.5119683458878925
P 5.841217849657374 1.4566949338962953 4.448367120501719 -2.19976155991485 -0.16332135790088645 0.09941221795175137
