# total energy = -340874.18932637945 ev
CRYSTAL
PRIMVEC
9.24213488965787 0.00000000000000 0.00000000000000

0.00000000000000 9.24213488965787 0.00000000000000

0.00000000000000 0.00000000000000 13.52679862032539

PRIMCOORD
 96 1
Ni 8.144511301893543 3.821290096677865 10.798173170747367 -0.8887105494492179 -0.17032581424317764 -0.36665833696276207
Ni 7.646027509702645 4.59251853421409 3.62768492893843 -0.2844596546758198 0.5984707977565111 0.01200833731478577
Ni 5.892517240265182 1.5088155037513502 4.124983879425107 -0.4609391472252191 1.06559961873221 1.2095322876938395
Ni 8.412588669074816 1.3168748445215117 7.334433549975931 0.7979444372082386 -0.731282931324947 -0.37680596691972523
Ni 0.6412211732231334 1.2134553541140631 9.264368782441622 -0.8535615123519106 0.29935842616452313 -2.817826991973837
Ni 5.16715751862638 3.38495042008122 10.573032914248392 0.15645599823962086 -0.012331782092475535 1.0221664872492395
Ni 2.462104758225585 8.858808187963291 0.3090172524947567 1.1214210965772042 -1.6743046926222198 -1.4649490181700897
Ni 6.477378025963498 7.5983103668095575 8.899835873559068 -0.3951613294984614 0.024624483416899524 -0.28775452337700763
Ni 4.133563353325485 9.211432605926275 5.067043939900678 0.2706294336609468 0.6995835433391371 -0.8227270434695572
Ni 6.948634488508253 1.4676695188278504 10.078506604255212 -0.7877361292166691 0.5538613865772526 -0.7954005877404624
Ni 2.0982973569388284 7.4248262511314325 11.486349010727876 -0.5521616302773265 0.9557975729057023 -0.21386307540418006
Ni 2.488860738987834 1.8131590085875682 7.450086854454188 -0.7455916346381353 1.2035490735272112 -0.3510396565888987
Ni 4.0962158858780775 7.531498973051251 9.517306608314902 -0.7221557722126982 -0.04571678531082449 0.5935605049390875
Ni 8.805102141604248 0.6462128503249264 3.472830184736114 -1.4350923398199735 -0.2308518966526928 1.2782982415146436
Ni 2.7391747227407683 4.46004177143479 11.95605371880977 -0.44774733112529336 -1.479667298216871 0.8409651637441389
Ni 8.651423921184671 7.1831351793132745 4.007462739467731 0.25190151823414036 -0.29078919643827333 0.8855792029090878
Ni 6.414115612036868 6.525243043016239 2.565019628063217 1.496084820342946 0.6655297961885377 1.1366098885025004
Ni 4.362296951904033 6.2389586699276665 1.7125195523815997 -2.2975269862917975 -0.49746012496938846 -0.1885045420347334
Ni 4.679597929979862 2.6190362101575313 8.370072075534031 2.5932817542654627 -2.708026745919543 -1.6737490772290657
Ni 7.776812961780911 7.825454318171833 6.856206669230525 0.16369442496958905 0.17039317714600333 -0.1225994547014921
Ni 4.554727444287722 1.4790188605812327 0.44846073662071756 0.816418070532394 -0.3926197940235303 -0.47257775990541195
Ni 0.7990250826970333 8.551765979713402 1.9634148664246707 0.31486397799929 -1.3347972050426364 0.49368343153577554
Ni 4.352601952311771 4.835235483014842 8.627811190528552 0.265449175011588 2.220948221294794 0.10558955040705686
Ni 2.984479469335451 6.340566701879364 7.49782340583073 -0.7648926489595923 -1.1595780672628997 1.0870968693740375
P 9.160508442195708 5.361371743060886 5.2589485548041015 -0.8752179142794216 0.9540983308264085 -0.8292540459547976
P 3.739487959984717 2.386430157023066 12.119484240058473 -0.10615313622001073 1.4647597849774194 0.003497728740613331
P 4.3597738490549505 1.9593603418096797 2.6185177263852473 1.5808669470863486 -0.24190815446685437 -0.962898959837174
P 0.657945740679909 4.933488619969407 11.646654766140408 -0.22844791519689042 0.24094219100915923 -0.16159280524555397
P 2.311504168753791 0.1241643865797952 9.940235947058 0.8476181502842821 -1.9786346038594054 -0.42239908216849187
P 4.0712806057065585 5.6849388886520185 10.933779320430327 1.5488659686997197 0.9205953139729565 -1.2437233317532517
P 3.0043315752688913 7.706896210669889 6.024105833873065 -2.251559775533064 1.1713393215638859 -0.8730080511122965
P 6.5458067933430115 5.942424769148133 7.312249653387459 -0.07406319766400149 -0.7051795493696759 0.3340400367071086
Ni 8.316840150699377 4.042971946267951 6.891105895122175 0.3106013460681941 0.3510820797910598 0.20415484697748068
Ni 6.835926652447588 1.3098693062079418 1.9801606907918963 -0.7910086293203538 -2.6577043435159062 0.9982752824539386
Ni 7.495907511249723 2.8343040180726597 0.527150122253166 -0.7171583189981069 2.574976785308688 -1.2797169762390412
Ni 5.372490031439811 4.101788893270006 12.838230289906788 -0.31074018563890354 -0.6333323855203866 -0.04677453715137751
Ni 0.692719273535854 8.532782634467923 6.012377564585571 -0.953625762065364 -0.7318367469458881 1.0907542636209664
Ni 8.079511366590989 5.0795882897067575 12.92934665023109 -0.5791129620551898 0.34258329829142936 0.8641660273406344
Ni 2.1608850950120404 2.170136472125343 0.20017540149552532 0.6929408412116389 1.9661914930000461 -1.3084117730705727
Ni 6.313191498073568 3.708896493206464 5.622548932267343 -1.9132643059837116 0.08725964174961745 0.5786308802124486
Ni 0.4461030679877471 6.1562970146815355 7.2418421449090875 0.48265545585638814 -0.2102051669366186 -0.1769302069335727
Ni 9.131441927688877 7.945158450411088 13.185612568910065 0.013182045907912783 0.05847125676301542 -0.07447354572854271
Ni 1.7188707475387042 0.2757178401678544 4.3204864574755915 0.7406859698064018 -0.45200019286437637 -1.9953735138806408
Ni 6.558791992987556 6.192415278176825 5.083236160382702 0.7186716703188397 0.01428710604663346 1.297871792771197
Ni 3.1518545337929034 2.0654970199007554 4.286588154802094 0.7331480095581437 1.684190327167048 1.9994456270674856
Ni 2.105663338516553 5.770548784956237 9.783716694346086 0.4520053350706989 0.2425784410610016 0.16357101201784735
Ni 3.754589608539299 6.623144978841628 12.959092461658827 0.6429953625314475 -0.11354480069839155 -0.1648010277702065
Ni 5.781953579519489 3.591216388527461 2.1402372412569663 -0.5965033896174952 0.43790283423104576 0.9278836201042535
Ni 3.0441559348904907 3.2428248683845493 9.555939656737797 -3.650956204613325 0.14431782021519018 1.2015436130614081
Ni 8.14779225981085 2.5645445823253312 4.855052468835366 1.4662350839713651 -0.7019417591586685 0.5550392089354376
Ni 0.046272597195976116 1.4221335197896467 1.117875966808727 -0.05193371275481378 -0.3816375839804137 0.8978667620271892
Ni 8.733078183718167 0.5132822987181905 11.109073046137208 -0.24511509143992627 -1.6611815249767004 1.1097333758266308
Ni 8.095574197183316 5.772628265326359 9.062508539739548 0.34751133172066606 1.0010117075484954 -0.6630448249831549
Ni 1.3816160000446733 3.839450891910272 5.310107468763118 0.6717539227213786 -1.2861156806765335 0.9949637015822025
Ni 6.076103009474615 0.4883747449516066 7.098377407854058 -0.4698102244626038 0.07314222851162887 1.0798173049934887
Ni 4.946409124669104 8.742292592291557 1.9607503589104196 0.600889691610649 0.3087702063967263 0.13994154552436544
P 8.180287606394636 2.812594243008576 8.782206600622446 0.755008557076661 0.026201598096032293 0.4853723405669189
P 8.224021389112066 2.819627507727081 2.6092108964620744 0.46721906669665986 0.5891487490246369 0.22659209293507426
P 4.621280058266636 2.005007246467623 6.2847266465538265 -0.30845061827377845 -0.014957135530464565 -1.19941165432007
P 8.63583243947624 8.138587093372438 9.042218356608137 0.5356721172627356 0.0074263743710581785 0.30719283460727737
P 0.785673894507346 0.6387267209924836 12.840245999545559 0.18996184330655028 -1.004838023273121 -0.4332046574244281
P 0.94465710040448 1.503371886249117 5.9037981902197245 -0.026629429662070266 0.9590459046396709 -0.3320217207254992
P 7.51099067553435 0.5359440136850416 5.607155232247446 0.5346087089952276 -0.439552711129643 -1.9970714704083543
P 2.4806259967221465 4.547869780133806 1.4898145984494133 -0.5802293350478201 0.35446513733067986 -0.2907112920124864
Ni 0.1288751027782471 2.697159977129306 12.522163136850564 -1.4453253304018916 1.5610686814134986 -0.0659336265783316
Ni 8.551590379148813 6.669022936874031 11.14614971902975 0.7043562821374321 1.1425375668408453 0.021995530434484697
Ni 1.5996472063183211 8.069040027660547 8.195901269227017 -0.44383025545907434 1.0314162879822817 1.4720180092017292
Ni 3.874016476729205 9.203040747365957 7.443987045368495 -1.1674281594349378 0.9512171526238714 2.1376210818303636
Ni 4.928747404725526 7.409807781791654 6.675556202090207 3.4270509144817947 -1.8588317380664439 -0.11190340844022663
Ni 6.385307877309432 8.43854058409395 4.325531738960259 0.7552052464684993 -0.06862480025724955 -0.4972477518482662
Ni 6.432886388177844 8.241174791631837 11.173704220254127 -0.28848188846133543 0.6033466377915738 0.8553795393972559
Ni 6.380603630605465 5.606389983471241 10.900151812311693 -1.0184093341996525 0.3813946147316722 -0.12623139502712452
Ni 4.419810757874145 6.910399776102925 4.123644694066748 -0.7821786897335496 1.3066040304378723 -0.0776804827016146
Ni 3.98810139090164 0.417297181687306 11.369706797806938 0.31189049719326284 -1.2258857893511983 -0.19196653244140488
Ni 1.0393427732574123 2.455034524967167 3.254981048521539 0.2732820407924455 1.0055923849406423 -0.02671350473544432
Ni 3.017510859747982 4.959477503528455 3.5995758996153553 0.5354358328822133 -1.1269265997764657 -0.4542954166564563
Ni 2.558287656945006 1.0641763899441694 2.037906474349964 0.08530740311925308 -0.9296111443183216 2.416743640563986
Ni 3.8188501730435878 4.566825398974348 5.895506146717172 -0.1634933647023765 -0.6943302653599978 0.8919110586643866
Ni 7.120991063719021 0.624655570487985 13.204753030450174 -0.3353919227493127 -1.4395766008435724 -0.5275662003261494
Ni 1.367475533527837 6.05263722876465 0.22328813264931863 0.6451332348100567 -0.05611818314980658 -0.8149229740441062
Ni 0.3953129152143661 3.9440441334599683 1.0828556689488607 0.15026221072408313 -0.09021666749541236 0.13823073348084583
Ni 6.726638406328903 7.276610132484046 0.10141487133065002 -0.16872581674590942 0.4501428279406634 -0.11810285238271917
Ni 1.8351645319709582 7.044586333853215 4.417460482949156 -0.10081038385085862 -0.5288322115227666 -1.1921634573980886
Ni 8.779159468720092 6.388801404331239 1.6785408431337905 -0.8155156133227826 0.11500004508767936 -0.4984777676006254
Ni 1.7006637416314052 1.7886303823550955 11.14466173529824 2.001138698499193 0.6690612063805639 1.1690741796787931
Ni 6.5386164123298744 4.156844291335884 8.695093933170751 -0.11457812705891235 -0.28467896977547746 -0.5525652934736484
Ni 0.7640935093329588 4.990484866380733 3.1882260317866007 -0.3901088546762185 0.5982499399949567 0.19211642775570784
Ni 0.6100659362112023 4.19861874143791 9.022834826918096 0.5233418778321568 -1.0149288318502196 -0.49527520150292775
P 3.0207086384504818 8.09522299605414 2.6147977670564715 -1.1904673006425885 -0.42058902554294664 0.5777289372234696
P 6.1793931099923665 5.281778476627558 0.8421729140568379 1.0892295994463241 0.11652599481390254 -0.572977281471097
P 5.227591839249642 0.24604689003344218 9.40258583525596 0.19396890758341434 -0.2140847044966829 -0.048328254791742575
P 4.837823280808773 8.524381533772628 13.211082968696829 0.8533470823482593 0.34027933274860106 -0.298586323885189
P 5.0662796153379706 4.887277945077787 4.249525345112018 1.5021765350629805 -0.7939774821406907 -1.618818486629457
P 7.8059626555025465 8.383993503451881 2.3806760037855614 -1.2073769319137335 -0.754662743701468 -1.5752192618822678
P 2.308823949610077 4.227703740214697 7.453333616472073 -0.7705889280134213 -0.16846562110598728 1.3199534551615848
P 6.828551428734885 2.392788745888153 12.077835482992151 0.13605917975082374 0.9077241144372431 -1.0439625000784087
