# total energy = -340890.4004409692 ev
CRYSTAL
PRIMVEC
9.05416986924260 0.00000000000000 0.00000000000000
0.00000000000000 9.05416986924260 0.00000000000000
0.00000000000000 0.00000000000000 13.25169281315450
PRIMCOORD
 96 1
Ni 6.375439231484448 1.8056458900697143 11.45004508528251 0.4082443879346646 0.9244583964727885 0.26067335088949944
Ni 4.61408633932485 0.27160788646923584 5.909486309806441 -0.8339859042128283 0.22372865534435019 0.06759713032368359
Ni 2.2660051457401833 1.577842981766656 4.943146553868261 1.432175937504127 0.191886828243405 -1.0253736813326277
Ni 3.3223460642143294 4.440454528016117 4.961552775342398 1.1642399915149433 -1.0358082464023903 -0.9637050006782372
Ni 5.34104562023314 4.660642879646565 2.729331452803773 0.23229377130554185 0.06287864180209171 -1.0219500003630593
Ni 7.441540544837397 6.335908726808329 2.792343946457793 -0.6231166213296494 -0.9972527547266955 -1.943376037767427
Ni 5.449596060123655 4.360198368270556 11.825664556398527 -0.3249118491535953 0.5366643059726757 -0.8120209699059628
Ni 5.671341728933282 7.884787419876197 12.323968026223067 0.249575441204125 0.7559207844782851 1.7668042426145376
Ni 1.7323704951215169 6.442259003474772 0.14176566123828044 1.8548269877824248 0.8986910577006975 1.819652496763821
Ni 2.959907653269519 1.544161470682102 0.6949292503672359 0.07448562991340076 -0.588725031223657 -0.781289602260377
Ni 0.3820252961408359 9.200394486174591 4.611601875173882 -0.7132433002144168 -0.9469547778030917 0.726594267600026
Ni 8.657397824141562 2.2615414401045153 1.109174714611699 -0.2775127910443414 0.1343753642904976 0.7278265973452304
Ni 6.754310960337447 0.851331882255863 4.869785144308423 -0.07432133642139459 -0.30708459116418724 -0.5899820435592097
Ni 0.5574634142940239 7.549529626209836 2.290038533649549 0.5556521599290882 -0.7377675106080261 0.4528519993417104
Ni 7.61928294916559 3.746769320558294 3.9524230136554 -0.4926837866266676 0.5442739999991336 -0.8097756255152118
Ni 7.597498616996386 3.7461355286830473 12.801625273002957 0.8393643949159222 -0.18488494300427516 -1.7735443895518486
Ni 7.734026441094233 9.067750900855044 6.990612112270603 0.23717501065724314 -1.619849756107449 -0.4027733375177644
Ni 6.862046524959788 0.6813833071592785 0.23841892221344527 0.0928340505136014 0.07037597862040139 0.17216903809950349
Ni 2.1904933708893286 6.296387276301855 9.2780403288111 0.18294221745560751 0.8814641522994496 0.5311567458908852
Ni 9.180475312952542 4.930629164332133 1.1807850477619264 -0.9221518598267989 -0.6644355346830944 1.7623783456327005
Ni 6.165663174947342 1.9241196998926682 7.149566209165582 0.2663678301711155 0.6429452260198023 -1.9110878671576828
Ni 3.3235321604380057 4.3094769099115044 0.5502418085840668 1.1487416387690281 0.713515322928881 0.3855484889990457
Ni 5.944071427021705 5.605074261291387 4.743946672895099 -0.05784313626071329 0.5448931216403712 0.6203097480084736
Ni 5.116846271449343 2.902803005309766 9.231460247648304 2.262828149358032 0.17578478047521984 -1.18691146497053
P 0.13506648111691982 5.5732488549843415 12.39327407319829 -1.0258416221079816 -0.9979142995700941 -0.7338447785148523
P 4.089677887575851 6.103569679512431 12.668233813270618 0.03988243801723454 -0.9506929046892854 1.1160572611621296
P 2.4614393975574136 8.413270247966071 1.4092117883536206 -0.049547214800508214 -0.22269738586635843 -0.5177633553031147
P 6.195134497146327 7.673870537963649 5.783992802256646 -0.02132113007527941 1.0736232603676348 0.2991583943385751
P 4.56852575766424 1.064942379638212 12.521205868633857 0.8949228489075167 0.5457793809000665 0.9874313977608993
P 4.210560106524743 6.217751812922998 8.11047346331593 -0.13258407671802974 -0.43406469143187826 1.7592804234336672
P 4.228894800058674 1.0669886219782954 3.75996939448576 1.3534122490406628 1.0000264608170906 0.07495511335065155
P 0.23106603104361564 5.7733007333212285 3.6582883531059567 0.15115232663852032 -0.6174095436425431 0.6245749510427308
Ni 1.0054836475703988 0.849097313187135 2.3733115427212854 0.9787462112820755 0.5743134837840175 0.22433183614598784
Ni 2.023498265931395 6.351500006939404 4.9639512248817255 -1.0714514495272967 1.5794487265825832 -1.0625700878772668
Ni 6.139062024526262 5.472113780034216 9.059877394930547 -0.7697116676147906 0.14963254755988423 0.8036103772447644
Ni 8.612706442767003 2.247471260474032 10.118926415545927 1.4271406890730647 0.8235647088795043 1.3762721843579717
Ni 2.470910059007533 5.364160915340362 7.065047346350502 -0.8138307694211918 -0.6223460617122121 0.30256999112328536
Ni 0.44327584838166895 9.119269126142978 9.358291961471837 0.3481245398246327 0.0019383546732934357 -0.5785681452953133
Ni 1.7704613868238603 1.0673236262552115 11.429280252615488 0.09500071914761703 0.3377236562062829 -0.41690823425724977
Ni 4.150540015938854 6.673466279564872 1.6099083235693301 0.03944766447266109 0.6787761196754826 -0.7061509121440096
Ni 5.677815460230447 7.97701319189428 8.121842784140897 -0.28524744068443775 -0.10857897205268396 0.13559072475483744
Ni 5.290025374275758 3.0888480832036946 4.873031969543617 -0.19687065461124162 -1.2930913406634181 -0.27506921459985534
Ni 0.747224323410829 7.415835757211308 6.823296489707187 -1.4130204476215988 -0.5363796848527214 0.8828252943130346
Ni 4.958144785887499 4.592184302950245 6.843730845182114 0.29379327337191985 -0.2140386817500959 0.6876955336522995
Ni 8.292053024740262 7.127116395527369 9.013072770360523 -0.866798579867475 0.10648249453497145 0.23232385321252894
Ni 4.543835037038546 0.27302848568675375 10.505411795654574 -0.8018586846609803 -0.4894884196178216 -1.2216354987152764
Ni 8.05867274793503 7.187154594452551 4.862258413081382 0.6470073119043179 0.5613055015601236 0.6638053572982633
Ni 7.151399678518975 6.117377288223168 7.003969728749916 0.6868257294528365 -0.26455288844956376 -0.15906283973484864
Ni 2.102586437792572 5.479909420099754 2.6810826881751493 0.596370977804689 -0.7046499021184509 -1.3557067015017943
Ni 2.4868272892458783 5.2440483008114125 11.436529020834383 0.2585779018130514 -1.1113660263340472 -0.20013569851575855
Ni 0.9244578834048952 3.5894983938005787 3.9118594282226287 1.0883009169844677 -0.40399152619558165 -0.7485250062348463
Ni 3.6976413960570067 3.051508687582001 2.6832022692893682 -0.6174339691225753 -0.9744128740140445 0.78650611346431
Ni 1.1356192278978972 3.3603373600505626 8.432130988756457 -0.7844983390056618 0.7783701146207369 -1.2954737248526658
Ni 3.6337008500142325 2.6593816543666926 7.221721603328522 -0.567634529101945 -0.568628260473782 -0.7754722242476516
Ni 4.129036363028689 6.83794432536111 6.061946756231032 0.4131325692649014 1.1178344076672104 -0.8262749087218157
Ni 0.8994022797424527 7.270434846860004 11.247652704092031 0.06649798372223387 0.3614711363348678 -0.4009758792977094
P 0.46755732053934546 5.574597926261653 8.216619115748365 -0.6585361384795239 -0.23662839412515377 -1.7533059510177869
P 8.576752335101206 1.6645366561307968 7.963405680332727 -0.3347082664187268 0.26036481851014515 0.8194411736294339
P 1.891162522379825 3.117504530134504 10.685581622864962 -0.6277592623079834 1.1073602476087638 -0.7915231070629272
P 3.891907659989853 6.2017349868185425 3.7330151314484703 0.6892338246736969 -0.1866286651682592 0.3986824552778424
P 7.032744785303094 3.710425883597703 10.274394657127047 -1.385650540249078 1.2060512711237745 1.0873573221242756
P 6.330521495868729 7.920623823336592 10.289117642389034 0.7310900985878506 0.2829421895900288 -1.6847336012650276
P 2.1899591748801917 8.468238111889276 5.707649854632252 1.0073520479442264 0.15628399143813085 0.38537288265312986
P 7.100967953588608 3.89577379042886 1.6332707975078984 -0.39303528429439405 0.840369696251985 0.15361492924639994
Ni 5.342521449885501 2.867709043760376 0.5863570804695691 -0.43171290337025003 -0.18978340874715702 -0.7487839163231879
Ni 1.294447471834791 0.888134365617526 7.073740254627997 0.14800581058973866 0.7099952255907643 0.04351155012938957
Ni 6.810383432957512 1.0581879690820086 9.295412564111619 -0.4640758930819878 -2.121149823648218 -0.6344222761504557
Ni 2.468239078961849 1.6112981386100504 9.144820898302042 1.4958814460828884 -1.4073393380764214 0.23612728611901915
Ni 6.191965537770093 2.106878114204959 2.6265123022994192 0.3062314991352726 -0.5565427900641576 1.045143150650071
Ni 4.540077556635296 6.668830544705922 10.715132621756835 -0.8225882038988479 -0.46018272867516874 -2.5087027446718024
Ni 8.331800829487895 7.256790213202902 0.2960233603376789 -0.5994663289005612 0.5092532609495745 -0.31606802560972014
Ni 7.507454899863083 3.6263850809399534 8.156231425874834 1.2250653503324322 0.4019760384274496 -0.4752838459826654
Ni 3.24827390233725 8.21532799115679 12.490820075300588 -0.4164516063358053 0.3361730238897114 0.16045457787605272
Ni 0.19446726649899632 4.894611677478811 10.267265403947484 -0.3862681407738896 -1.0101951738199764 0.4637640182685238
Ni 8.614680251749915 2.447631788846676 5.864285178680792 0.10150920969009614 0.1898104053303505 0.13933039430292776
Ni 3.9520907256293776 2.7036112730892854 11.018450926578605 -1.102091800120973 -0.4588678665184872 2.443145784706599
Ni 1.3940614462843237 3.5045340658388975 12.887629019640043 -1.1248553190697337 -0.6985003375772874 -0.9172806477774267
Ni 2.8687864899482958 8.226582324027248 7.914891628533464 1.3991161788356807 0.38889503687377536 -0.36791123553325666
Ni 5.67237390427297 7.756571323513733 3.571105753580911 -1.0122659403060759 0.8049031279142589 0.1750288761458018
Ni 2.7923602439631563 8.383554463186634 3.6054672328059088 0.8957198908875155 -0.18344383968237438 -0.29118540343542754
Ni 3.2972931768027807 4.258293688900488 9.078005653396541 0.4063430571468937 -0.022661189042941617 0.8042336126510602
Ni 7.290779566055432 6.243963634049284 11.195626539886936 0.3762966313834745 -1.3763120364569714 0.7259000697464789
Ni 0.8645518753565504 -0.03234239939385352 -0.012753703363898567 -0.28464425988280007 -0.6474713960249301 0.7822987602511818
Ni 4.861238008162235 0.18151165515198336 1.6871521610735385 -1.2328316245414124 0.7789321577717939 0.12085059033118542
Ni 6.453631040550632 5.763694259326414 0.3267523067005465 -1.034584144187302 -0.3809909515353503 0.7924389340089771
Ni 8.067726917581416 8.671694358013205 11.295265866011478 -0.3646536478279075 0.8915315638377806 0.3382643592011013
Ni 0.2680242461231965 5.014443612748723 5.945358929945421 -1.0439722702704213 -0.519313473399054 0.37728367788709216
Ni 7.6651151559155934 9.07019552665957 2.4468585627588744 0.013743574838337621 -0.8754716821614407 0.23323710905541764
P 8.3708605173424 1.6893994059797715 3.55974910859345 -0.401060982812348 1.2972871239123207 0.6460079241055261
P 1.706982603433052 2.89988756268363 1.8095183584274734 -0.34896297656552805 1.501147579577834 0.1260809854921893
P 4.682952353655258 0.9483518371017065 8.298766691533057 -1.214744170912082 0.06809926677108272 -0.416676834972734
P 8.698721054407665 1.4945808376984953 12.287869957259895 -0.6746973216204186 0.494144173222278 0.11177408195121395
P 6.327370644831787 7.762492750462469 1.24653099523219 0.924019509163157 -0.9275059250498607 0.6164726336505706
P 1.8599618537783806 3.3737556394665056 6.0764841310152695 -1.0739001681781053 -0.3376051283505476 0.6360726672696853
P 6.916253838632698 4.102489537625487 6.034065346221953 0.6209880050224209 -0.47462435802179553 0.151101675906243
P 2.3957061259246553 8.301080031877708 10.044994593298366 0.4502585275829213 1.4506164035975015 1.138262593614575
