# total energy = -340853.06450322276 ev
CRYSTAL
PRIMVEC
9.40987961699433 0.00000000000000 0.00000000000000

0.00000000000000 9.40987961699433 0.00000000000000

0.00000000000000 0.00000000000000 13.77230998467566

PRIMCOORD
 96 1
Ni 4.028501105503304 1.0283022099447707 12.856409567575234 -1.268347558059835 -1.5037425939985198 0.735261713467037
Ni 1.6687291914016942 4.174015480402287 7.870654605479285 -1.868789363499788 -2.5438756930285096 -2.0666907733683892
Ni 3.5394038044088636 4.551756268786266 5.852680563452703 -0.27511112358138423 0.41959812238458705 1.6678980177649276
Ni 5.034812427311827 4.890681304683289 11.477760610128914 -0.6662448199776912 -1.5947532181501374 -0.5337944406240483
Ni 1.5388163965326207 5.675596984185601 5.709793426879625 0.12767995454819303 -0.23460313616500886 1.2604470722658356
Ni 2.6943872252376564 4.147150274741617 1.808992853600623 1.1217831079023133 0.3786335070467673 0.619944651359571
Ni 7.471096070739849 9.188615486782725 2.3426835731279576 -1.125455671657894 0.6791378738902755 -0.9728992655829954
Ni 6.094073140452256 6.3343544106957586 13.379440775728696 1.595184135039969 -1.9815186102754199 -0.923054059926094
Ni 5.9826601684654515 8.806555563758378 11.895956351989726 1.6195746480691915 0.9691912206037889 -2.3912051299732497
Ni 7.697761245504896 7.542065381105092 3.7384792128001516 0.41561394092585846 0.36450632361676577 0.42767729984829567
Ni 3.546395344796211 4.450214260280387 9.127570776210934 1.2113122624123978 -3.708844335179361 2.8720559285207314
Ni 7.809625891702459 1.565446355208521 11.604768575230054 -2.241843319576249 -0.48767116390342463 -0.5529108497385251
Ni 2.985020760101209 6.949308848641847 9.931832226752745 0.47859234153060803 0.8825123910583058 -0.2656062694147426
Ni 6.4968442080157045 2.732666614599339 10.01259345761203 0.7450704720273426 -0.014761474579890705 -0.23486358891524714
Ni 3.933357814983153 9.289527033369422 2.13995524955717 1.1821037591692416 1.3346146567181856 0.49541764061806287
Ni 1.656562217349419 7.835691257614913 4.7679595396446475 0.8240912708069354 0.23297048565759235 -0.29677472459774695
Ni 8.397790403023004 5.189868419913059 2.064524715372759 0.30636931026471753 -1.0101067278712281 1.9338351881565277
Ni 8.15905235299959 2.1193024462702916 7.8352875737890475 -0.8774622302289082 0.35993464508568335 -1.4720516906531422
Ni 9.150119670195053 1.2693739100570984 2.2018346164309226 0.34787899947272993 1.833041002255585 0.45975978220513725
Ni 3.3279261749805307 1.5987949677694362 7.14314577717629 -1.13941187672767 -1.5052456609066076 1.1971154020867254
Ni 3.3112706884588547 7.0629237324060945 3.008616032673584 -0.7278427952951464 1.2716311139071133 0.021354040195743867
Ni 8.911202832463214 5.041559310835016 6.89254563319286 -0.003406197468071553 -0.5830179535365508 0.8458474315371045
Ni 1.1828124295413367 0.11161716636958506 6.1020282524892195 -0.6020685424100986 0.5810533736110122 1.472557169534651
Ni 2.8713023676636635 1.576342995543041 9.306349074756314 -1.3579924122121774 1.4591033580225905 1.4369779868784607
P 9.234046384481399 6.09714076113365 11.291985125268551 -1.7922661343310682 -0.5261785759500034 0.5306106435794282
P 0.04653091259945549 9.088306172477036 3.935767685095131 -0.5716467355851316 0.33397241669396677 0.23961447333667119
P 1.903712699548189 4.403268371999798 13.050240850182043 0.33544051659906104 -0.017975096421181946 1.816857450517187
P 8.60286931446561 8.36274801217175 7.611322093421214 1.8435195331894059 0.9027737124105033 -0.4831339381547034
P 5.112415702647569 1.6565716272288098 0.9643319678703872 -4.517917792421225 -0.8317660137433739 -1.6678134284709212
P 5.37178961817496 7.811234981078282 6.818201940078085 1.5462015344936788 -0.5367512092595272 0.16422304377954944
P 2.786679322302402 8.916538234077784 9.093277411759184 -0.6662404491023172 -0.25664803178019024 -1.1704533194145066
P 1.1055949592606167 2.0549576909961553 7.866178325853093 0.34144892757667 -0.6695414884510922 -1.9601221468775147
Ni 9.023632071424224 5.250411583913321 13.608308803259126 -0.29238148062605773 0.6085338384194681 -2.113946878141875
Ni 5.42371333265327 3.779289859717953 5.035954786669868 1.0037139369710069 -2.229837296254308 -0.27125498306008766
Ni 2.6561360655141457 8.36590032176766 12.141503390740306 1.402689498009236 0.6077092856356437 1.269483728546807
Ni 1.912510936778566 5.450333881449779 11.208842253935458 -0.1736073132079268 -0.6047823417968359 0.5542606788982003
Ni 6.72591831190479 0.29917958732625693 13.80990794130302 0.8165695085085938 1.2879596758638077 1.0339714503039676
Ni 2.001857741593998 2.1222665582783864 13.437078168973086 -0.8087214732190845 -0.31473876527533534 0.51940937554697
Ni 6.565282260824828 4.678893149235061 6.817348464017341 -0.0540705565921585 -0.1342925747687042 0.819811412484659
Ni 5.675860460808543 6.947756218542369 1.6598387373532877 -0.20933304874431044 0.3101388046094788 2.9486881724634895
Ni 8.373465864797843 7.428582235652316 9.542833458665639 0.615569919330643 0.6706583756643547 2.412891613807748
Ni 8.454588435025737 7.24719740051569 1.5074203339452914 0.383349681575514 1.5802056593532656 -1.4773589617986687
Ni 9.415713515999748 2.0292122609829883 9.611309150992325 0.6906731282233847 -0.3408444612234517 2.2194526105858743
Ni 6.406518775743631 4.702201420486016 3.1613920114984295 -0.5278945301998457 -0.6517458550305678 -0.4115315433263687
Ni 6.426091324876448 1.343354381827391 4.009284249811458 -0.6521898845465219 -0.791382981940637 -3.812227621963719
Ni 7.450234368130495 4.427884616486072 11.830703543354378 0.1379887926733688 -0.10107006527014852 -0.1551647902320231
Ni 4.724465195124597 0.8415829141815125 10.46114358841161 0.8003047099102991 0.7712725843440073 0.7685556996334765
Ni 4.8209823280358 8.191582306053508 13.479331350401493 -2.947984204417929 0.06992629267749247 3.781849009671861
Ni 5.423807431447178 6.121502938876373 4.866803735729191 -0.3801388879477002 1.5885753714741995 0.1736970447082557
Ni 2.2021093849091335 3.3010986088374246 4.389028401517734 0.7358091013300747 -0.1930523093064159 -0.69337510053558
Ni 1.122589201440361 8.954224801037848 1.4896817703057368 0.05442279772525466 0.045610855860579516 -0.12008543003038674
Ni 7.81374741887562 9.139288899016268 5.848425415992193 1.0250435516867185 0.21339590595977442 -1.9222881067488764
Ni 1.1581303158993275 7.398762327862943 8.105582595337374 0.07944143125677931 0.9745306305388314 -0.19681280479011268
Ni 4.345849287957274 2.1983266133940407 3.254769067656931 -0.6930061472319354 0.18574626256330592 -1.0646673367259278
Ni 1.3483604376632847 6.529487079622311 1.0870556148849069 0.7081041792156385 -1.0320873459073774 0.9231494478533779
Ni 3.715283860101885 6.058983700204047 12.889325325684174 -2.1988256783641424 -0.04321278794204816 1.458538743768372
P 5.786567691841039 8.475751253775595 3.71490181899862 -1.5218411033714434 0.5066878142152434 -0.14376374748393306
P 2.6928157753793966 5.8744465554715095 8.07697750297735 0.3229115308941148 3.168756605347433 -2.912736436959229
P 3.8795521246266875 2.1757993621325196 5.392217525344398 0.9206557348972467 1.2525866956811524 -3.312398996762154
P 7.772993231234162 7.850116602720975 13.305648501546218 0.15818043712989532 0.1138024252351524 0.11688234971205677
P 0.7000931446979654 6.313699725433002 3.812395697390587 -0.6731672581291375 0.45870357302648096 -2.1444915836979517
P 8.058347823759489 2.8191245864418026 3.600660237266947 0.216240317387105 0.6538639298148352 -0.39850299227718466
P 2.948294000839005 8.039339867390119 0.8381125506621938 -0.5217963877219078 -1.6911071088915393 -1.2439467606179675
P 8.603396267711492 2.3625195988837167 13.938955027268142 -0.8210427137885989 -0.8986818017293167 -1.2736352888213356
Ni 0.5878897428423348 7.4462445792688055 12.770002409081481 -1.0869716566500827 -1.225261525503638 2.9215895164744845
Ni 7.256814297253064 6.79901425501235 7.806241158085596 -2.350080334908482 -1.1943326971352655 -2.207167108350302
Ni 7.561430912891312 2.206776685086959 5.551865539088329 -0.40693672486683463 1.5438949978476895 2.74012876866041
Ni 7.969019838702839 5.788769603618481 4.826588734176826 -0.868506306587201 -1.4926431416512487 1.9682476041981265
Ni 6.452363708135499 6.5017843946958624 11.126497340374705 1.8487226746568997 1.5401406730115796 -1.966601583954271
Ni 5.503189173987776 2.456467834721239 12.391235943843904 2.4799968920966773 1.300359335079741 -0.6820573615299157
Ni 2.3678173609807245 2.974547564339274 11.387537745542202 1.4333182786386864 -0.2870505553314475 -1.5724154738848855
Ni 1.902018921257849 0.9108236297026704 3.718165165171341 -1.4409043185160606 0.9296085732151602 -1.3223060145541614
Ni 5.4558386608933835 2.5715788893086198 7.828345905762472 0.16078445041164569 0.0007384208279213089 -0.45718250839626423
Ni 9.190233986037939 0.286303108367917 12.725531319080668 0.4532988570711419 -0.12605964533595063 1.971731191871353
Ni 4.961471827340108 8.55763602423414 9.003138295099049 -0.6019471863408858 -1.566316302965683 -0.21149123273789386
Ni 0.13371626811882592 4.408914299634264 4.1959404993827984 -0.0004257746835089441 -3.020182066738418 -0.22519881213197346
Ni 6.806815045027305 2.072102491246152 1.7361095737672954 3.921836063722181 2.4690859016111286 1.1777184856173524
Ni 0.583945121401721 3.748905359165133 1.222201243683192 -0.714519338713363 -0.8085039578916399 -0.7978318228897744
Ni 0.40174162675809677 2.2376693191268813 5.6507652534612784 0.7980567944163869 0.9223369792544116 0.587037359108589
Ni 4.413835666555641 3.910096593129151 13.876978738636662 0.4527941495205815 0.032478946464311806 0.45578614226936986
Ni 0.337475914470843 5.358371130163711 9.392963250596665 -0.9123852673583384 -0.46627624316741634 -0.9601581638672432
Ni 0.9122172328404444 8.206064110435914 10.810313160001375 -0.42985553844653707 0.3953536480149255 -3.644403233986156
Ni 5.526742102102892 0.5975546299646023 5.763380808034225 -1.3747999706878193 -0.7053564412671723 2.533469924314153
Ni 6.667511190526235 0.14669155081076898 7.8369954668984745 0.7604268998787549 0.2171597438775808 1.2273258642318345
Ni 5.030145127134002 6.040276859975181 8.795107504491558 1.0941931140991865 1.0744840657060335 -0.7364665324084155
Ni 3.3897867220955016 8.394609863788922 6.780796728511805 -1.2794896907195836 -0.22728449101640855 1.3109047146957553
Ni 0.060629734890657365 3.013222168635369 11.705278319966768 0.4652277472982439 1.422960075332814 1.6342775014970048
Ni 3.5648198886433535 9.21459616378066 4.63479563144606 1.9291282695991616 -0.25282531559999033 -0.38024970249395157
P 1.7964024349757628 2.123179316579292 1.7416049433315095 1.1381749189967754 -1.9628572864204905 2.5183019583244626
P 4.484795567041494 7.37149249738847 11.377470115582009 0.47104435398002104 -0.48502549875046147 -0.3844064049748025
P 1.1979999748780517 0.8660674203563155 11.236414141538377 0.6440649414465424 1.674358942898923 0.055978829358464884
P 7.7053079687763 4.044695507934832 8.807983983449898 0.576266236635014 0.7680674471431482 -1.050925561659803
P 4.462494152885352 3.0258031773808387 10.58103109777775 -0.9235309995625127 -0.5303818153980736 -0.751413640636551
P 7.105145861232513 9.178744523301798 10.230209151366967 0.7130352979686687 0.95453721813604 -1.9086196081228484
P 6.592975535871887 4.668626970819722 0.9853809270796173 -0.6804653344524474 0.25649787935557117 -0.9160143794704934
P 4.152767972737911 5.214174138379437 2.924949031058425 1.7949632215472568 -1.1892082314245067 0.5338780014767902
