# total energy = -340867.5669434536 ev
CRYSTAL
PRIMVEC
9.24700614958540 0.00000000000000 0.00000000000000
0.00000000000000 9.24700614958540 0.00000000000000
0.00000000000000 0.00000000000000 13.53392820162263
PRIMCOORD
 96 1
Ni 6.103652792399636 4.239262184679815 0.9279564762845154 -0.7463765924332758 -0.9807113054282464 0.14145078308004028
Ni 1.5741825697045408 5.722463461813863 3.4762704470068533 -1.0679897162309415 1.0720859977875021 -1.227402483106041
Ni 7.501097335383999 8.540312863815979 6.98178824946357 0.7285161672130872 0.061278387194507365 1.0785870321308133
Ni 3.519891348667874 4.956580185347651 7.930732655390045 0.5741497045126434 -1.5879027708872073 -2.0793146327799867
Ni 4.185111717224504 7.747419082664494 6.728243665753884 -0.5230477436305057 -0.0556327588729558 -0.724182829945056
Ni 7.919182220127335 0.050123396318564495 4.12312441213798 0.6453348092979014 0.8661565754081018 1.4427259451058316
Ni 8.436422750793367 3.334266949129296 0.44566685440278025 1.1790670292254468 -0.5332241699428752 2.6343420146408825
Ni 5.599866655542941 5.359786637349253 9.641042250624492 -0.3107026475327488 0.43630129407188084 -0.944598104645457
Ni 1.88162702700546 6.989747147574702 7.165024147338264 1.536318213941696 0.29929929079181355 0.7172796750673195
Ni 0.8708497409935719 0.06655810017927562 6.190377688083229 0.8624331038099277 -0.6112422384895667 0.3797750768503782
Ni 6.938185841814658 2.2816617559303594 2.3826483090518504 2.3093386342147455 -0.8092657757583288 -1.0567123435449093
Ni 8.212210594989248 8.512238953434435 2.1542361630977642 -1.613989697782246 -1.2303188854218876 -0.8095743081376832
Ni 0.08866584225443916 7.00551329289767 9.372800475491742 2.135318658949432 0.007572413030619216 2.441804697297672
Ni 8.466336815379762 0.00807448568681312 9.15342820265656 0.4173759179222876 1.239715496145439 -0.19436974256625883
Ni 5.132088360262577 0.5972742927685695 12.473869953033732 -0.7127594185994628 0.9116535313986363 1.0976538189542773
Ni 5.824162034401553 3.8860358004029316 7.623904973392964 1.3796670689721335 1.0235291719247213 0.8546030662425476
Ni 0.7746753298228568 1.296282296747836 1.4413225114137 -0.1268967965252653 1.4643278396463233 -0.6260998723276895
Ni 4.591443657272536 7.442175412804552 4.203015770347279 -0.08231438192920017 1.370808075919607 -1.9755549364928169
Ni 7.888056797747797 5.474181349249809 10.272522143489361 -1.0595924933061815 -0.1968112621282159 1.0257693741091496
Ni 6.90117932358444 2.68041115101368 12.405089797299555 -2.6832603376081403 -0.04354985956649274 -0.25563527424495974
Ni 1.036043805355278 8.404428109844703 11.623546716079998 0.10243377838689456 -0.48152648445826746 -1.3238059961384556
Ni 2.1134217277742926 4.790365251517525 5.621019181892672 0.7663538068861512 0.659448108770832 0.9511045383054071
Ni 3.3495799911555926 6.588269885705295 2.1112791964714583 -0.7862644297671492 -0.3121794891885914 0.6959675438531046
Ni 0.2626778515897422 2.5219729492754115 6.920600810400764 0.14927053623477518 0.40372618834933693 0.5392189540737293
P 8.05355046510567 3.9519022245293285 7.702510073060077 0.3540185367115645 -1.1488766216849955 1.4959143562033528
P 4.805743022586203 7.9120065434290225 11.510713823502053 1.2065508364680124 0.7182973176985565 -0.0299446100782323
P 8.357721482263287 1.1306499242991455 5.845073213893261 -1.2330355130221022 0.19368942866978253 -0.06328153366746521
P 8.461583854267737 6.993751101196312 11.719962474108737 0.7055238200829721 0.9378911249389267 0.5620860884798901
P 8.555089579491115 2.074796983484532 9.958223805300827 0.029988318831974156 -0.5319141928822 0.9265070514717011
P 6.78491671646087 3.734449630151068 3.7983242491733193 -1.0707937613386396 1.310898029827536 -0.42361778506694137
P 1.6654967544929966 2.5162860405518774 13.207638377472572 -0.56503745779873 -0.3827143619843602 0.4562245153583691
P 5.786859611977589 7.008222665671647 8.171840015956391 0.012959645484461551 0.13071719871262003 0.15860158382771394
Ni 6.774892961897764 3.3266381691343105 9.829326089104352 1.1861442477872024 0.41198328615180657 0.09456131761735327
Ni 9.144586215467221 2.3492758642010623 3.540231987886018 -3.216531558738867 -0.21116341708482989 -1.7958325115260878
Ni 6.049659524047251 8.719196195940809 5.424032986014897 -1.5136192296822835 1.2484991558753402 -0.6513370496279235
Ni 4.465379223731167 3.6234948045027964 5.928130746975628 -1.1717974921472272 -0.555024039426786 -1.5541315879740332
Ni 3.8987504337279066 5.981731017570695 11.119989904973457 -2.2043885171639004 0.5094890311094644 1.0740518632646212
Ni 4.609632518181791 2.4956929580684455 3.3189788740193458 0.518957632721532 -1.7413685761502526 -1.3890788492043369
Ni 0.3792409864100844 4.138719487848941 9.725223294942486 -0.14728358771173344 -1.7160159563180766 0.09539512637255829
Ni 1.6584967709097194 2.306452979162547 4.70876504658935 2.5451123936490876 0.24278464353453671 2.9064696301139104
Ni 4.332999085054556 7.468982483356626 0.27324625480946135 1.0799533163507207 0.015049438133954726 -3.1679204825993827
Ni 3.2241813420501497 0.30948434683654785 8.096820905237225 -1.322461566295419 0.8803063845459226 -1.1786425400935183
Ni 0.9916951643177656 4.867254106860918 7.701955252696806 -0.5504747294932069 -0.005475421292274441 -0.6730567006932022
Ni 7.233673920287074 6.91946065455424 3.948794305794402 0.053568420144759356 0.1469619427062566 -0.24285457754052373
Ni 4.897371605580513 2.2381915804680275 8.92818315627615 -0.2547690695899225 -1.2001768146208684 -1.4710088512109247
Ni 7.055354655531572 7.771840425654499 10.316358500391454 -2.1215084925392174 0.15646165466657572 -0.593577731330268
Ni 0.20486094623381113 6.502235741373975 0.6201615574541297 -0.5107308739363656 -1.7905910606214903 -0.5153328914847513
Ni 5.800267770756655 0.29900471487495217 3.0208267331026213 -0.08981711806414854 -0.7673789057165559 0.18623657193616314
Ni 3.1670163506210627 4.013098910598189 3.722358245034168 -0.6515465945355683 0.937901666461888 -0.42896362275988703
Ni 2.4172321116957822 5.18795877084403 13.410457584769544 1.7457595061290967 0.18510888608962314 1.41897357988124
Ni 5.458202522787586 9.125518888982786 8.470695854033867 1.197526264371899 -0.3319782690820734 0.5376703786396869
Ni 7.777666039468852 6.06007165286465 7.694362536025434 -1.9787729292094827 -1.3459575925348304 0.29954894490877443
Ni 1.0049091359696851 5.6518163355572755 11.897283986910956 -1.1885937377689595 1.716788058597411 -2.80239985878549
Ni 6.313236184625494 1.9544194586666976 4.859126913239594 0.3557280632035035 -0.5398146786761993 1.7339290891530716
Ni 5.925925336031623 6.291440991354974 6.086776081649518 1.132769431710488 -0.3492712518345662 0.09556199096772573
Ni 8.892235420239174 3.7808233655145216 11.852459125061635 0.5704681418959983 -0.8353113078924711 -0.5726445807220267
P 2.299610194682197 5.1352693303453325 9.619158286095848 -0.3215169645394334 0.11157816389032398 0.9532100146841842
P 4.074637735891067 5.813925598699191 5.256442097683857 -1.7283515950652946 -1.8910399473678723 0.45897842395442245
P 4.767719333689988 1.3148872729295444 6.764432748648882 0.8135651744646312 0.03026239842896724 -0.8460821732557299
P 0.33919220318792725 7.527608501742328 3.7429161888945925 -2.133028320253359 -0.35511382665827224 0.8042189573630407
P 9.199374726340295 7.455380137450416 7.433834613343369 1.2196737470032155 2.28353838532219 -1.9250049914594072
P 2.1606091996705445 7.534571497301387 13.40094334024004 -0.7070626253250016 -2.7584807888050364 0.18654767541867875
P 2.345484591718706 1.7947976401534498 2.6935761135335103 2.5500887638177563 0.8950130946284781 0.7009853087826702
P 4.382193157264641 3.1142251930557676 10.698691685626173 0.016643522093951982 0.28204127504231424 1.5972111927723265
Ni 7.053338808211684 8.537825419187312 12.661923541062835 0.01682812730093231 -1.0679208106662188 0.34563751173672086
Ni 1.2896614404127946 8.079460576070455 1.9536769240805194 2.6857676774110257 -1.0076536383450454 0.024987008962640837
Ni 3.6609451790236314 0.7072923967035173 10.480984798581412 0.1924005346550299 -0.045984437149914355 0.3898892824662447
Ni 6.959148804540272 1.6970845271752613 7.423143224943124 0.19915019467403766 0.27906419469186133 0.3532027256784885
Ni 5.182216380084167 5.125282563806444 2.9291611620840934 0.9511325633298652 0.8933771016869517 0.7840972469125013
Ni 6.435675791793488 1.0943184375109083 10.439503654121408 0.7533522524201606 -1.0355087128841005 0.5383717755820857
Ni 2.60424356214254 2.774138804382367 9.081442109923277 -0.5171771437823415 0.40610908675921675 -0.7538096516725534
Ni 2.1425590438521076 7.481345730451529 4.9467321238995785 0.9867271726050233 0.28438972066983276 -0.10819407790943947
Ni 3.5104594024922564 0.43763213084200164 5.096214600274038 0.2968477439275275 0.21313159655479422 0.07556600746177308
Ni 5.422379621332348 4.64036956630704 12.055265386550131 -0.5192980467800864 -1.0630897078261627 -0.2244462502366651
Ni 2.59993445732113 0.2696907809814956 13.448664364385639 0.4382604746807807 2.3125234597006306 -0.8337444776259834
Ni 0.09810426133429505 8.795493242896711 0.2507334938691095 1.1371189669284352 -1.65550658607911 -3.788590442160752
Ni 3.7308432977898023 8.928566907027411 1.9709050210607086 -0.6963138714489298 1.9672734132103151 0.9927288987144129
Ni 2.2699550462653284 3.542250609307721 11.431743467095785 1.2493872149072482 1.5328279414002506 0.07071382157579434
Ni 1.2358531121815008 1.5388127715459745 10.980631050827496 -0.0097737915573122 -0.85159307577163 -0.31335165511982166
Ni 8.478228465165884 1.0972682324423024 12.157906229054776 0.9554355615805932 0.010631768682233304 -1.826480832539564
Ni 9.151706410129206 5.9659371312295635 5.477045147024896 -0.07091539606363916 1.072060029645573 0.20775053474853902
Ni 1.3101528058296268 0.27326752292338674 3.6883338862565354 -0.42524940713309345 -0.6184135594270254 1.2769486694652847
Ni 7.994277156296151 5.024064835533589 2.567575484333918 0.7019116772516816 -0.63440273576643 0.017133317246176945
Ni 1.44590810171614 3.8585444514028224 1.977631293264772 -0.6371098502849479 -0.8822953899514933 -0.8937023462368543
Ni 7.276986896646479 4.365308124209075 5.722943381428093 0.4717462651430521 0.37180465705039195 -0.15490870835715903
Ni 3.680826242040865 6.885228238140381 8.982224509060016 -0.07526981637759295 1.9595919854056576 0.651220321544401
Ni 6.906736774223211 6.560436397481169 0.9048149189324558 0.452137232662873 0.22626247750979742 -0.43955039713679783
Ni 4.148271645103267 2.8870170072899803 13.441613522269062 -0.8804840477743674 0.3584169228895763 -0.5379460008985768
P 7.319994721806085 4.962794173416293 12.850396943166814 1.1435140718215016 -0.16950228990061775 0.2718483936697125
P 2.4047948885524435 2.8998703457057733 6.6676249175634315 0.9614406301240925 -0.04937880754344399 2.057046822520722
P 7.886466312706419 0.8568765901445761 0.6060034664840431 -2.509001249748827 2.254942833072684 1.4240373675573927
P 0.4190243805584766 4.1879505480832435 4.385817983638016 -0.6910605934697905 0.0011099452347271205 -0.4621493654832363
P 2.2767885837396236 8.461667077322225 9.57150476509445 -1.6817632057827938 -0.31039771469782024 1.4792924313759555
P 5.402914673587568 1.672099116815929 1.1703084838658016 -1.7860330089371628 -1.1333867535795126 -1.1223631487754993
P 5.503309418321569 7.571161900259151 2.1302669987038243 0.18887092423521665 -0.3380805253250693 0.9396893544899301
P 3.5634724882028608 4.554437139042318 1.5369402528199327 1.0311596918867854 -1.1415330368357306 0.35787210612969983
