# total energy = -340887.9949840238 ev
CRYSTAL
PRIMVEC
9.07990233191623 0.00000000000000 0.00000000000000

0.00000000000000 9.07990233191623 0.00000000000000

0.00000000000000 0.00000000000000 13.28935487335247

PRIMCOORD
 96 1
Ni 6.28140389345097 2.141113642983565 11.26145255634201 1.0558068010115043 -0.24298544669143315 -0.0415215162825543
Ni 4.65633742776982 -0.08882232998777874 5.697305571064126 0.9165190870210538 2.8057417786745296 -0.8562156621453062
Ni 2.901219518929602 1.7651966005882156 4.61920698257605 0.3328138776094913 -1.4218794406741255 -0.29868762534974364
Ni 3.3748090722557693 4.626764185406553 4.800341049073008 0.9179784451753997 -0.746932979157378 0.8154937589459117
Ni 3.807974899760239 2.851025818044081 2.691559122824821 -1.648830202500199 -1.836263880068257 -0.5274463869188335
Ni 4.907278692490003 4.6566189047465665 2.401506178190676 1.6717269045927143 1.3884440438338153 -0.27928402401215124
Ni 5.329920913025167 4.675405222968735 11.361827246249588 1.8489679578984866 -0.8837763453723941 0.09790580860955397
Ni 5.676500790521616 8.001228221368248 12.295430990710543 -1.490038871259182 0.5720298299561632 -1.0438820245494602
Ni 1.8397698396209201 6.579197454945628 0.4111951874840829 0.8120117139345823 0.082857913137496 -0.5091786989578972
Ni 2.8913950644509243 1.9473576040551728 0.2722726796062817 0.4263737505455237 -2.017657522089822 0.17376517894202978
Ni 7.9404110345861865 9.074418214577975 6.930000395083511 0.28174276996528896 0.02017827472008783 -0.6995228653045307
Ni 8.408125891010593 2.5397667611780004 1.4340407534271926 1.347458602560389 0.11216000453572297 -0.4459105350268708
Ni 7.13614959290095 0.5149839207225139 4.522673091415682 -0.676411476098048 0.9829116555136751 -0.05376048155090741
Ni 0.558713639035604 7.546797262265749 2.4130276664420576 1.8432588233288512 0.6656166994753893 0.4034161133080858
Ni 7.800380778606353 4.064591103527717 3.433889273694233 0.34940237809579183 -0.5176029184658506 0.2070133994721983
Ni 7.628053309520551 3.84035383198849 12.6417648028499 -0.541853563483099 0.06257653718064062 -0.39970138346066003
Ni 8.106200973889505 7.461382619677091 8.826510545274914 0.6759975284890809 0.538970328398033 1.072419726977837
Ni 6.919357841391775 0.9667735361948369 0.41028628924626803 -0.9984745429489384 -0.07847521068876807 -2.6400236384066917
Ni 2.147696572278428 6.472408721929233 9.24998902482809 -0.07987774746324953 1.7717456457802132 -1.0268289257219156
Ni 0.26136136080126515 4.817333178565984 1.2824145539956768 -0.38077009377379584 0.589954532755384 0.5087241279189819
Ni 6.3914069119437515 2.4283200381915866 6.8861181344088305 0.09921758544244202 -2.339459879080158 -0.2665786606303409
Ni 3.3481958780995713 4.203513611405518 0.25646638537662964 -0.7741712460480409 2.253910278043112 0.224926018086561
Ni 6.307653891508142 5.826972934348474 4.493569280010406 -0.20616930630434815 0.24683644500640717 0.5044170159031959
Ni 5.113356159077884 2.9191614062215328 9.023365554918254 2.3346295475710503 -0.05558185103036233 0.34785303133080087
P 0.31817885054279066 5.489863395134152 12.419022083258168 -0.07777715618047895 1.0985164240648888 -0.3351427828529841
P 4.177744848179557 6.023979578363157 12.54966916801964 -0.6030473613836002 0.6820365355943092 1.9184342802204248
P 2.4229356560235127 8.545395856637821 1.407289544753364 -0.2485166609223075 -0.2803448611764978 -1.57430394915685
P 6.548925060091732 7.809088405080525 5.442575263040846 0.34314277033932516 -1.1046040250198654 1.0957406610919644
P 4.660060187784847 1.0937105728047494 12.459461244914074 0.845908623792343 0.453992797814373 -0.7957291747244748
P 4.192608648532235 6.54571985451782 8.13971670990771 -0.8114280735169703 -2.801839101186013 0.41465749054986006
P 5.049606163796182 1.3021942135486835 3.8225372473507235 -1.5192419751856996 -0.9654806045214213 0.7744790070964468
P 0.4792708483051958 5.642042560626436 3.351123238657728 -1.0182260145442528 0.34482401469649 0.33678674621431026
Ni 0.5670181178398548 0.44046879306565356 4.961899753822664 0.6607048639960686 -0.9776537495488452 -0.8162141820517039
Ni 1.9624211622623147 6.635592729222034 4.658848928794591 0.16363220427308595 -0.040626515272110676 0.19063752921733618
Ni 6.200992277126407 5.8032925486919185 9.302854033021953 -0.4984273739786642 -0.4889402604238353 -2.119247207308866
Ni 8.997484200901594 2.4367280278840604 10.17928707953508 -0.5184344132282104 -0.22274649393673895 0.1788269097356533
Ni 2.3666584204792893 5.673567982021974 6.900045796816266 -0.5799395717215431 -1.1973295749800605 0.5645898287383503
Ni 0.8497726368640537 0.22859562472755052 8.768835004749437 -0.6419193558584493 -0.7588312732568608 0.6674023306209022
Ni 1.99134973154981 1.426543477953029 11.406359627941526 -0.9000822816212691 0.10616136375012683 -0.6205033520765185
Ni 4.309140116905025 6.948359049899075 1.4612314293808437 -0.4451677433235753 -0.24020377018123792 -1.1344301072423624
Ni 5.823622450334951 7.859245786356143 7.797183744944669 0.15266722062114998 0.5287975016300893 -0.45961297221462777
Ni 5.490081312793568 3.3568944246712658 4.630476049538609 -0.44539425751208456 -0.5196379466180083 -0.20883065518659516
Ni 0.895845878006115 7.703543618703298 6.6421529587607075 0.0730902922277709 -0.18320009910268448 1.9843895040653114
Ni 5.18458799399954 4.408174613207194 7.086043967069442 -0.617287159132066 1.7865341169432973 -0.3538799542511712
Ni 0.7101527924761208 7.308231904619911 10.959266138029623 0.3092576875561061 0.22014916552320793 0.5652441744928975
Ni 4.562233318511942 0.2176888458737718 10.261202327709611 1.0979101579394575 -1.0223418364848393 0.9366539100977158
Ni 8.660919455835813 7.181113269960485 4.840089230150515 -1.1117763743985885 0.6045535136154814 -1.870246664771605
Ni 7.687535750638686 6.329836093256212 6.821093320819543 -0.6861341027024506 -0.6510696548991497 -0.4441362167352673
Ni 2.5790918188001415 5.499869447662344 2.619637215315013 -0.3916826269212416 -0.04723090796250575 -1.5553160952004375
Ni 2.416906600779665 5.374367035643588 11.334238870567502 -1.2269893068280224 -1.1790148358312729 1.2265797300944294
Ni 1.4704175667154824 3.6733108661435288 3.6893378020033394 -0.9965261609733161 -1.5512288125049412 -0.5434785006810317
Ni 1.5906445553958724 1.1191887791514885 2.6205279537478767 -0.7788015457312008 0.9074058118658759 -0.4204285887056824
Ni 1.3107111620708651 3.3468429726306956 8.166627724865112 -0.3259788569655289 1.1389105116112193 -0.2189140075645262
Ni 3.816746085551739 2.3627359026097987 6.6866317690280415 2.3149793774402907 1.2096433593504072 0.4843297582350174
Ni 4.303773894541902 6.770356641765977 5.947810092475229 0.40567199922179814 -1.117442057324798 -0.5911452106293755
Ni 0.844005082811506 0.40995668878640107 0.158076562150234 -0.4234537486852513 -0.3842739931619963 0.3342030446475341
P 0.3553220076000274 5.791924510792375 8.14059382848686 0.40777824693152354 1.3305294309052182 -3.4939124521910343
P 8.6607378577863 1.8466160860875778 7.9123096444142265 -0.6599667002784634 -0.1638170665903824 0.2957303424936326
P 2.0933533559615234 3.3498484203501433 10.23900923007857 -0.7918120990582557 -0.13792117266022696 0.6090020363051383
P 4.270986366702247 6.287351229572536 3.710055415482083 -0.0819531419350395 0.6962850750935234 -0.3704527710081878
P 7.375250664792855 4.175937947586898 10.190689621064028 -1.855946703209165 -1.2164675813610921 0.724090784451882
P 6.351564299880498 7.823107774502964 10.154342771453909 0.34752110191267893 0.4480530352911703 -0.012434369108610843
P 2.5502722083423546 8.496391622976613 5.556385484641677 -0.7507343551813394 1.5157439893347702 0.08720616280386272
P 6.79299283863783 4.419134055495332 1.4209248343010825 1.0053967239900683 -2.05078490077141 0.41861673230792423
Ni 5.207078912431784 2.9425603149013426 0.4505583806966217 1.2701475873830512 -0.35462737394015703 -0.5391582760391231
Ni 1.7750936942866995 1.4130598227766544 6.939395370175091 -1.2385315031396669 -1.8209329061381414 -0.7355504483520494
Ni 6.798286421781148 0.7682015169933477 8.95515187957951 0.49545260762105636 0.3442288043146523 0.9436185143410071
Ni 3.263462228196588 1.6692855907376787 9.135395207643606 -2.876378210045169 0.08791167351131957 -0.635740223630931
Ni 6.341857884134003 2.130998631625665 2.4664510886381765 0.3799216297305715 0.5246965920878383 0.36465210516601065
Ni 4.261851984811719 6.507611503827419 10.480025253402596 0.25533985449172797 2.742210076669471 -0.6767626887898797
Ni 8.518555664919733 7.408546667171149 0.3528640779998626 -0.20021308872091326 -0.13002762884476315 -0.9947500429094996
Ni 7.6634740090781515 4.101110471284875 7.832413766550282 1.6040950643763534 0.12220453325591857 1.6046504226591913
Ni 3.048141420888472 8.566170673502162 12.526851373098275 0.42634109753537547 -0.4660828962096876 -0.47344962098740395
Ni 0.3046815755127023 4.917121306773633 9.920862159194446 0.37274953746216455 -0.8468187943114385 2.5083281349412023
Ni 8.746143420472483 2.4583291158736866 5.6985150140738865 -0.19117566110899334 1.0089456176835914 0.5720354863831181
Ni 3.9457805796335323 2.910762496431535 11.339660480335725 -0.7991052902855592 -0.4384209115180449 0.14570518748102004
Ni 0.8745544146909088 3.2998544773190868 12.740437919033536 0.731342838028605 -0.2304883426656869 -1.2452245988891264
Ni 3.2698363197345106 8.460498768490277 7.703826003670292 -0.6370946807762963 0.3244338810759122 0.7538333058216372
Ni 5.619569801999145 8.054990323926708 3.2325161045789983 0.6251174538097621 0.36321023051316154 0.41899057070757517
Ni 3.1257745870554783 8.36061984125787 3.3381798376786556 1.021974940063724 0.18239457248225363 1.220140145116673
Ni 3.557442230651462 4.560054141917782 9.207157308869842 0.5157254989374795 -0.013574910470957267 -0.6856875020833353
Ni 7.456733709609547 6.15610123928668 11.283140811395402 1.3280215768816999 -0.1097231129594562 0.32577856802926475
Ni 8.027169502741245 0.15325785790639418 2.1366091033653833 0.25993518717189423 -0.669523233618647 1.3209353594588797
Ni 4.6601963863219815 0.34051177867195664 1.191668192673303 -0.49610489649307454 -0.07542716789106364 1.0366597957694081
Ni 6.470919617923223 6.021818561573947 0.13257656403755314 -1.0791598739151478 -1.4267727642106847 -0.8551566247531724
Ni 7.913207646769069 8.66902780874659 11.52464805744336 0.00013344025407073794 0.7247021927836358 -0.30701902803357445
Ni 0.19853388361109142 4.885105570644408 5.385617034810947 0.1215761556433003 -0.16392093915809833 1.3825145657232578
Ni 7.528782735754014 6.389536452033764 2.4419589597002953 -0.3575712870598293 -0.1984480264006905 -0.1472149392573271
P 8.582151301859348 1.8508382407387658 3.5579189255314345 0.4598636547728531 -0.12089995551188211 -0.7862505458100782
P 1.7069399463042956 3.1537043670706497 1.4812843939983682 0.287557319764537 0.3111060536187546 1.3366298873760014
P 4.908931234740576 0.9041621606835842 7.911166484692538 0.5965452985990243 0.3789793204219602 -0.1798527798970064
P 8.527635567395405 1.5283655043152293 12.252931599182904 -0.4537128046801089 1.3157720700903857 -0.30940758287040904
P 6.360135727817533 7.857665883325376 0.9872968397606012 1.273732219410516 2.2554871356119284 2.899148413862149
P 1.9892976735903078 3.284963437258982 5.906985034964107 -0.9958468755181042 1.3195140536313212 0.2291734805090053
P 7.151603586914547 4.161546302162956 5.722117312569152 -0.0685414965148239 0.6957595416073565 -0.025494544726678673
P 2.3868793632926137 8.78083772783203 10.13759852329852 0.12953757658222206 -1.3582919457304672 0.3972922597985351
