# total energy = -381163.0334135657 ev
CRYSTAL
PRIMVEC
9.33421014350634 0.00000000000000 0.00000000000000

0.00000000000000 9.33421014350634 0.00000000000000

0.00000000000000 0.00000000000000 13.66156006143886

PRIMCOORD
 96 1
Ni 2.571966953829669 6.940592025986447 11.619279959977785 0.338367717548185 1.170879608318648 0.13999091070506212
Ni 0.5208153274007655 8.567395520848391 10.988183739031168 0.4331925732395701 0.1969498445886092 0.6142848819706325
Ni 0.694844209678571 0.9233363417774759 4.416755060340184 -0.10755284478101478 0.24189452762009955 -0.09943972875557713
Ni 2.319280548827444 8.486010541896214 4.735452066632911 -0.6245834356831631 -1.0515868493928857 -2.0115444672135485
Ni 3.349581339257814 6.338964840141322 6.214111377592127 1.1280051775526252 0.07070482271472985 -1.9951354297279058
Ni 7.735680052955878 6.015711805837749 7.515921007943526 -0.1802415306949928 -0.8059068865884248 0.6645676893855844
Ni 7.750157413014925 0.23330951799605124 3.2024741861110866 1.5725972508783883 -0.06563486439099019 0.10748908142261489
Ni 8.372067837679076 4.199367838146016 11.858233874896921 0.6747472010217476 0.39062796040448206 0.42724381185530286
Ni 0.8160153262939852 5.597492516704555 7.633956763344348 -0.3309521418104042 -1.164323295257369 0.25668865521013856
Ni 1.4507229531766739 5.449255924120597 5.173961128532288 -0.4160106621436448 -0.3969613588216776 1.0978520510080125
Ni 8.93640485367514 9.243696388493886 8.089515693640793 0.5349650638933818 1.1467053250652894 0.6637575347794633
Ni 4.150988626549602 4.0135703836164724 6.625638037993962 -0.035350097364519766 -0.15860441204119136 0.6863547033536889
Ni 2.2757644607582788 0.8685911988075803 0.8791789934658502 0.284248052885646 -0.7912911935577792 -0.41213832367243214
Ni 8.899525389075984 1.3908346603727777 10.23847864217591 -1.534272387156261 -4.256179490602322 -0.24219534668996998
Ni 0.29162592979804963 3.2241482222536435 10.139514545106904 1.7987255168031666 2.1997690161140184 0.1721808651740454
Ni 3.013801794832229 2.2729268608498647 12.788928374594802 2.080728739518694 0.7330189401794472 -0.4017371829437662
Ni 2.0165907796496474 3.273246168037386 7.929538531435772 -0.7430945792478943 -1.456519656455814 0.27368544687845126
Ni 2.464670207292763 3.2424992795560845 1.1528263009494384 -0.6933745863149477 1.0193974091445348 1.5396449643220838
Ni 9.194990479539594 7.236551829591985 9.108517422593744 0.19038813221069145 -0.5252169833676825 -0.7275764290076373
Ni 5.0667959943595555 8.816656270698024 7.21327604297481 -0.15694527917121356 -0.2828470587730613 0.05462591487499624
Ni 5.414915364702653 3.1209771966362085 13.595315463041652 0.3202368122754291 0.834733066791498 -1.0513163693403185
Ni 7.260540749870354 6.235653801370511 2.4081646322744232 1.5029278114067084 -1.4732397974239724 -1.2515289438405994
Ni 1.6617041068933922 3.09998455784008 5.413256675545662 -0.12040938902870876 -0.35601037033061267 -0.13369119373927943
Ni 0.24088422959367617 6.600546747488015 3.6472679717549856 -1.096155637142196 1.7957201543179395 -0.32424439077292544
P 0.5053121376379863 6.226907646389642 11.82923061688566 1.6187655219043346 -0.46746486415887883 1.0691451699916232
Ni 4.784333458739433 3.5204347232170585 9.005549882759215 -0.6735228416963432 0.11448916688953185 0.9215049702714194
P 7.505909134056142 8.955287960960408 10.780938136246512 1.6065340128351495 1.2087072206893827 -0.6496468064096941
Ni 9.586420585326906 2.589608611155006 0.29632103754124783 -0.06367054157576776 2.0262660896944396 2.222700685209527
P 7.115375112450436 4.371948050996894 0.9322850491202277 0.21789739337455377 0.9314325137977765 -0.37171595399132756
P 8.628021216260066 8.48910949969093 4.89115322713384 0.5811940129539345 0.37606368943706203 -1.5598376372198748
P 1.7177187024538942 5.940282053009151 1.2235936157706258 1.2986240975561893 -0.610511016750497 0.23378912490414577
Ni 6.122579178704301 4.621918200823631 12.00948168369948 -0.25241162510133947 -0.653735631767087 -0.7012642734756698
Ni 6.460598933583898 4.072935960647766 7.476274883433665 0.45407455889490184 0.9861396755326692 -0.049163349098528236
Ni 7.003485934482808 8.60366826178292 13.001283524056648 0.6153210365446307 2.0854220312293053 -0.6485821125906056
Ni 8.128864990265498 2.392274072787305 8.093586342719936 0.9498372415572093 0.4205352894868758 -0.21399857254077984
Ni 9.222703749697757 5.603326398095208 0.2540529333791713 -1.2167995107792142 -0.6361325739733431 -0.06537338319948742
Ni 2.771784392117232 0.29815707669251446 11.044715449838137 -2.0123764761965406 0.8691110300507355 -0.897696297887596
Ni 6.0286583554198865 1.2668576801637148 11.22692016685206 0.7647841484061861 -1.1458540328085878 1.1987004871856581
Ni 3.955604938118936 1.508763072356011 8.02281996131977 -1.0923786865982672 -0.5106136316322109 0.1311216332398903
Ni 3.8608907069653924 4.918419388622222 0.4014559809900327 -0.1695035754521984 1.1024746373816885 -0.13376884105475026
Ni 1.296857831827013 8.8574187667508 2.537307164422027 -0.9103741504655806 -0.5684572821135564 -0.4901697619555622
Ni 1.3774494029100617 1.1057398774691929 6.827159903068618 0.1717535478286397 -0.059053097408414426 -0.34455173487170987
Ni 8.008659030987353 3.8744626486326097 3.032948126845843 -0.04176834218603774 0.06750122817576763 0.34069945100515514
Ni 6.463735228219514 5.505895911766177 9.810680586509774 -1.0159061081618246 -0.3349820889054037 -0.5983332437373825
Ni 3.608755020366446 0.7585828642002987 5.514884756212897 0.01567035954740527 0.9472769370292009 1.009912609582551
Ni 1.0175222566322817 4.506398015078459 2.9799550151351886 -1.5219475470423207 -0.4607596842245613 -1.830581227861183
Ni 6.566663564371098 7.713184606313518 8.827062048256906 0.35523955360285914 -0.420927639829288 -0.4178808825831642
Ni 6.809549048637024 6.421936634831757 13.143691835776087 -0.5746749808884941 -1.331786443240771 1.926259689802115
Ni 4.493731491803072 2.0186909769502823 1.7215205262785556 -1.8658876164719604 -0.03973408536482834 0.9387922965969573
Ni 2.9687548962861556 4.541298627109907 3.816766961810577 3.4716438706008215 -0.9287215426245166 0.16836277697953583
Ni 2.6133921788084233 6.803892517240646 2.997783356665027 -0.3152316457513539 -0.06976534161959598 -0.8068507385589331
Ni 4.363593932845478 8.742206609943056 9.435602150194699 0.5280513674926841 0.2914548550467303 0.5769131261903935
Ni 8.084508823276078 6.907651598102259 11.16102997687346 -1.2379553189212227 -0.8258625037747455 -0.40200843432728184
Ni 8.65708794690086 4.889193976407602 9.24882180332846 -1.2884543561120392 0.10452537080860064 -0.16116008858350955
Ni 2.7720177473728578 1.6715050276296908 3.283829295590544 0.5642270460822928 0.36284384831267835 1.2212899424503998
Ni 7.976063968881492 5.583640548730587 5.25565693668496 0.03876040859764938 -0.7009534271034702 -0.634344885945301
P 4.585169415167623 2.687011094853362 11.322482877715059 -0.7251791324200543 2.2173736165696587 -0.7204354470874819
Ni 6.990306029645042 3.1007499630785333 10.004524130253307 0.000945651742720952 0.3538640134115712 0.27354892130058694
P 1.7440691779191997 1.043891400518037 8.920206265250597 0.1089353269508382 0.30442324228194023 1.238931309681247
Ni 4.407212697227119 2.8464207370767007 4.818637614737502 0.010545893836646354 -1.3753219046295604 -1.5662355703264186
P 1.2040571137696041 1.4051720072784488 12.601710253269006 -1.405902862740211 -2.4667464548446745 -2.0230588956110513
P 0.8950387500592261 1.8264062463143318 2.388368639229146 -1.1311745764195422 0.7107899535779177 -0.7656464964064813
P 4.381898319096794 7.16386633456955 4.065324845630263 0.059184223669640004 -0.10539594633901202 1.2581150816985494
Ni 7.236131790131858 2.2189564573286478 1.3430845745455315 0.9133340044248528 -0.6303295941383209 -1.4348678825139933
Ni 5.865617705419005 6.790553930829055 5.992192396333699 -1.4577794970048443 -0.4925598594542936 1.0939426886512773
Ni 6.90395525085314 3.0929278949099444 5.172389247530391 -2.0749653546723557 -0.3413841357770056 -0.34061768992462627
Ni 8.32052432881637 1.1111537193997196 6.041005648705578 -0.9244085170714597 0.2582040634134005 -0.11738062950471398
Ni 2.565666361927762 8.290561513993971 6.863294497691816 0.1505882266049342 1.0610636785350696 2.2789201698238877
Ni 0.4205425740582071 7.225070751015179 6.252813813448236 0.6304833461073658 1.5493619344995317 -0.592653933964418
Ni 5.833302669619896 0.2392927467503058 5.243580335495795 1.2301206533681524 0.6149130024729346 -1.0899924457542778
Ni 5.521960087563481 3.9205083076727623 2.5872946604402167 -0.17574775658969732 1.429592235937351 -1.077424893501912
Ni 4.515349522684279 8.823610257315684 12.118733013857511 -1.0941185521075092 1.8002406678961125 2.577440416357832
Ni 1.007301296435856 7.8766359615643005 13.636491464607397 -0.46569697362517865 0.04705992960228024 0.008138055726102114
Ni 3.4217254500871954 7.870111348616993 0.4046837508858537 -0.45700998737414195 -0.3166148992521257 1.0050488537323468
Ni 4.143997303091043 9.104261956152147 2.657951831580749 0.02029294592108118 -0.5952353215383491 0.4512440314246422
Ni 2.500812269284142 2.8896381304186645 10.438551837823638 0.9884336137731686 -0.2759842702149569 -0.6808198895783888
Ni 7.630996885281985 7.9979900287001255 6.638056271277363 -1.3141682159383754 2.2253751467178966 0.03590596986798977
Ni 1.5125900985482799 5.3423698828335935 10.047941275694088 0.4093731022224692 -0.10415127529863354 -0.20405714505735179
Ni 3.9768402663809157 4.972483134245689 11.119007362440302 -0.07519602571686405 0.20234967544794183 -0.7089966091229208
Ni 8.206973661428684 1.403426509966365 12.636998235024793 -0.3468829541080477 -0.444971311042053 -1.0269914194417087
Ni 2.415394911514744 7.560234237565911 9.101946138595311 -0.825233869051811 -0.4279385239294824 0.4547510161366362
Ni 5.407690685988467 4.919306138593601 4.655408413690074 -0.06300282608478182 1.3204126541861905 0.1450385004312986
Ni 6.511881084560302 8.523674080154276 1.5529913606653472 -0.3266691981643342 1.2893249316424504 0.4573804833396833
Ni 6.012696855935058 1.9089299989139648 6.959252979068359 -0.6629401810844906 -0.6781829661761739 -0.1971143951909315
Ni 5.113803077052888 6.913560153174713 1.9648325839517662 -2.1806731758248312 -1.761062197924438 -0.05623671100554185
Ni 5.878041539228542 7.647369090016717 11.076451764603293 -0.5452119384323707 -2.7202919364401406 -1.0411702820452522
Ni 1.8457653983210773 4.514005396411871 12.320746791811025 -0.3752293664612248 -0.19287104653354525 0.8198162975806655
Ni 2.9225505556721774 5.253638880434305 8.081892444149998 2.54805167878307 1.2417186426183968 1.9519738067387675
P 8.806276628927773 3.4936548740814013 5.356492542904088 3.1477884877361983 0.5087228423674013 -0.14840330313847344
Ni 6.442369221014383 7.627888593277045 3.962399309741747 0.7367781501115633 0.7031195815168536 -0.058227516183325535
P 4.509776999179926 6.479827406647493 9.252469612684408 -0.25539564743032794 0.14811482536377718 0.205753044702536
Ni 6.162016216905122 1.8622309451580588 3.25224326161001 -0.5885723076958767 -1.0126963429752753 2.309356117716242
P 5.520578624450175 1.0389256006783125 13.946540325126621 1.3510044109301185 -2.898204819001957 -1.4408850352423508
P 8.568898328694624 8.551667376619188 1.1322527681924142 0.6652914549254866 -0.3267095644839664 0.12180524093497086
P 4.538685048246895 6.582877087532003 12.744691685496264 0.5343780810416603 -0.3077487071107474 -0.20858228662121497
Ni 6.516697537036426 0.7086075026554016 8.977489379980682 0.14592733079415515 0.343370312969099 -0.21739217160336108
