# total energy = -381170.36019554443 ev
CRYSTAL
PRIMVEC
9.21893951381026 0.00000000000000 0.00000000000000
0.00000000000000 9.21893951381026 0.00000000000000
0.00000000000000 0.00000000000000 13.49284984314461
PRIMCOORD
 96 1
Ni 3.4734198556665787 7.482303377433648 8.561968420543675 -1.269483471436491 -0.2864730855614228 -0.30005442379028324
Ni 5.374623321957438 5.898295964368682 11.47982455620072 0.8613347285394262 0.6462084701521065 -0.12682686251927835
Ni 3.0441675921648477 0.01851716198766327 4.265170963255288 1.2196657765834156 0.8925839163616951 -0.6402615085400523
Ni 6.836249312446366 8.865715884748557 9.32991438241669 -0.154218881378986 -0.2930319697258631 -0.6061347420596723
Ni 6.787693157816762 0.6041549066094412 6.663551839679914 -0.7486892997268525 -1.0888827576298667 0.48746007633388305
Ni 2.5007203244108087 3.481421895199234 10.725884929191716 -1.5599672208192037 0.563307876702133 -0.9097419161982203
Ni 6.9672227866864995 5.208110835737597 6.846609556716871 0.028695311052163483 -0.2879620114021234 -0.042046278437772755
Ni 7.585887382259589 4.61801573384158 1.1643032052590543 0.718144594170776 -0.5242438208211359 -0.25939011330170164
Ni 2.516705965597012 8.329883461065915 2.2093059575409337 -1.6265281965688891 0.6238522139440933 1.1722080973220845
Ni 6.035999264483053 0.9593320689028315 11.080976355347257 -0.27802752589723084 0.7388782271737017 0.9608204800415904
Ni 2.5284601135280442 2.3071594695402635 8.29112703918195 1.2646210011378671 0.13929234197614074 0.877875920727559
Ni 0.3731209062408104 3.511392667688477 9.03589197754706 0.45160475719817067 0.018441237424323076 0.5471682908277931
Ni 0.820586106724931 5.539568588453143 4.75212733510581 1.0272325889182374 -1.2030057994292314 2.4139285397126944
Ni 0.09491912353937061 4.092914155799505 11.261011182104541 -0.21808791211880504 -0.2704065190168633 1.9241783817930542
Ni 3.5034275039140366 5.677373296902605 10.107345711196558 -0.13799444910032366 -0.03953713886267384 0.3990503801402224
Ni 9.115678211808948 1.1738199165603909 0.6802581745196069 0.10242555085677843 0.022693070722141565 -1.2810333810576193
Ni 0.25254823960521827 5.8247933593066294 2.79289894136969 -0.5333583815278944 -0.6442958265104258 -1.6991700884053316
Ni 8.560965399920226 3.5207591102750877 4.870136214651505 0.7199960455572181 -0.5972076147733715 0.19495415431481908
Ni 8.273159325991688 8.707094810786725 12.447747754873692 -0.9332186591639218 -0.754878716367016 0.09085198708656612
Ni 7.574704808580889 6.47590862210892 12.945606444640479 -2.2683706764428155 -0.06618379491592473 -2.102756151632379
Ni 5.556605188748473 4.989096488759145 2.691526560142694 -1.856268605324958 1.1536858701481807 0.08358604955277217
Ni 3.662085453634083 5.051066200439457 4.911909995451414 -0.5754799932882928 0.803845633184022 -0.8893250431047652
Ni 3.434810936815472 2.6614986302282175 4.233867132106574 -0.5912405985566592 0.3341122847059407 -0.46728000184158236
Ni 7.548818026313958 5.624023293705051 4.356355494381435 -0.9152679882227721 0.8552383858337013 -0.1663218352901071
P 6.474636408450503 7.94710387185464 11.462608186584092 -0.005024964018417153 -0.4674239836186143 -0.6206128810711892
Ni 1.4825990779737104 8.05255010247044 0.1261906883996477 -0.34783529071898805 -0.4592478755657252 -1.0412998656445809
P 0.3799585937078272 6.405365296643621 11.894068386108945 0.12652038702245305 0.11360239340920436 0.18736785732712893
Ni 4.479196942041205 8.488080463808275 10.58624749555897 0.8040582634154603 -2.2944090094881067 -0.8169397473638189
P 8.147790967000235 3.0001194989770275 13.152789204595646 1.017956305822634 -0.10191030178325673 0.9680223971066683
P 1.0325304489596105 3.5656000322645296 3.3534187632833192 0.1292958928850612 -0.00862527977516579 0.9724745193407509
P 0.9588711219251441 7.306203194077907 7.905015725215948 1.0876691969377397 -1.3001947844774189 1.4129479425124505
Ni 5.7949977466689075 6.6741803550914325 9.245746386184903 0.21976427137996346 -0.47895101042160737 -0.2898759405953847
Ni 2.1228359921025755 7.773160920354476 10.987092518719773 0.4851483974815709 -1.1094191870203216 0.17853740351969252
Ni 1.7089793576556076 2.3568126779767637 12.662634782613928 -1.0827015685198191 1.170175640273088 0.25144900407775406
Ni 6.2939451931969925 8.688334268794843 0.3019092076578646 0.20524653737976264 -0.7859648962488592 -0.6067726327539873
Ni 5.108850513562365 1.5160269527956098 5.270617089699936 1.0261900065863359 -0.7542349121354301 -0.07691583662144819
Ni 8.621976341886947 8.690804944595248 7.671211433511416 -1.1848468691320175 0.40092008635910953 -0.5635673010111069
Ni 3.6279200636478834 6.762608423291007 1.1764159699387269 1.4402648851598485 -0.044713540857290734 -2.1373359464897774
Ni 8.554466047534833 0.7258006578090899 5.349213158865435 -1.443289273808469 -0.37592202165287514 0.14572035698967162
Ni 0.001763583136632472 7.93947980884369 4.121444929930452 1.6962542003101175 0.8026922363058692 -2.7556978267432606
Ni 0.6705930382914549 1.8048471100750594 7.131389052789912 -0.38534665740088475 0.27212350170797006 -2.0560379216402334
Ni 2.0967556121050155 3.69191794203002 5.813421797367078 -0.3761223105891393 -1.2054460334396078 0.2651090180633499
Ni 4.3947883314870655 0.4030852254723657 8.704858296050986 -1.2138026329344191 -0.06269892169111783 -0.7316349153477271
Ni 2.621469994685833 7.073590911257673 4.248655233044745 -0.9578829946798213 0.23627923831585115 0.011882610370198889
Ni 8.601962024115755 1.5753323909448866 3.0609875473806656 -0.14009015528708776 0.13172635670342472 0.053273771722475986
Ni 7.676315960342327 7.537948896580087 2.2254298828204435 -0.4708589774420923 -0.17801701223984825 0.40206834103093986
Ni 4.588966855307713 2.7892915703223076 10.405469622273655 1.4377907125877432 0.5512218920718764 -1.282829296615778
Ni 2.7338673057251595 0.7529089495668932 0.526327697002724 0.6928444248430907 0.7782916959743176 -1.2401075893775353
Ni 4.682668156932032 9.359620571340741 1.8837639983370298 0.2259315765329399 0.6541446942800476 0.5406392314600238
Ni 5.549349883319672 5.181965923163161 0.14676183011988658 -0.8819554901135713 -0.2997052679809806 0.6202732383435834
Ni 1.6964047241042923 9.393915026480691 8.640592146527835 0.49626944709539694 -0.9887429174834714 0.019061387506825237
Ni 1.2728128894885637 1.3792086708783984 4.712499723434014 1.1763951388202385 1.4740540657951517 0.1373485879862086
Ni 7.240177148993945 3.1024773848423197 9.774665527096186 -1.107820475074634 0.3028782663923235 -1.1583416237526374
Ni 5.3991088254122 2.6085911361292435 2.9047136154292192 -0.6502528154248092 0.16650618338677128 0.9889498912879549
Ni 7.179977473707954 2.79214944158397 6.6463483765786595 1.211836510346984 0.9631424433065477 -0.13125353083206426
Ni 0.7505673389202405 3.354357251329891 1.1832850018002263 -0.8845055102289348 0.50739666735681 0.42629353212689164
P 5.746220337490014 6.873991650979421 1.5215076123603144 0.2969760419752756 0.3241556877138611 -0.49072100647334205
Ni 4.614936608030628 5.749861818613745 7.217595356557033 -0.6623025475004917 -1.195284519525574 1.306733099816569
P 5.302033391911206 4.119593766868059 8.738428142542013 -0.02369837205820435 0.44761414798153876 -0.13034387453360133
Ni 0.4626902791571396 4.494316002909357 7.042093482378329 -1.7718592885399418 1.2565171410838103 -0.19601447725853338
P 0.2493916747020141 8.71421183212222 1.9154716190381993 0.9264916248527334 -0.3809598411870988 0.4591892544136479
P 3.5251934202004414 6.020465351334984 12.55664832214028 -0.6747492579042766 -0.5209026722630449 -0.22713228170926042
P 4.859044908474387 1.0159087009441985 -0.40002638132843127 -0.08961811467946502 1.0798389022600434 0.30952225407140244
Ni 4.858786778166882 7.514652636327758 3.4333902982302384 -0.6473369273295948 -0.6172987290962917 0.10280530279370037
Ni 8.344458604500396 6.265643048766978 8.349874731488224 -0.7707956447075887 0.2830254933324545 0.34342430613548597
Ni 8.554797929358767 1.421754076918957 8.863183442053142 -0.9114555564552174 -0.5738411721332891 0.99554631355855
Ni 8.311722150145027 1.7188159661594595 11.328056841903148 0.35307777006484997 0.14039328834980336 0.5112348101559776
Ni 6.380833698491091 3.281269498547757 11.989746228373589 -0.5567122257624865 0.6886044186198141 0.6161119078770421
Ni 9.130668207523346 8.345509563609523 10.007768257500679 -0.2938588365025326 -0.8737351590863082 0.3099387727835307
Ni 4.154183228073731 7.9298367980704665 6.281137320474968 -1.3342302767955732 0.46214268061501695 -1.0836194523483982
Ni 6.691705559183112 1.6243402736126242 1.4145771324763623 0.9833644267803775 -0.2552814904499668 -1.3850262764015178
Ni -0.010052331689409553 6.391592200950318 0.7524692061501793 2.0797895155338764 0.23574419174798755 -0.3402826751827107
Ni 3.8078092311602174 3.6913094920194722 12.722826160854321 0.452547323617098 -0.3246236284892151 0.3541077539912611
Ni 3.2355712151798155 1.0418876726066675 11.340146559233935 0.14990354183308377 0.15483054682105593 0.23413982337534514
Ni 1.2804922661368379 8.52621921674214 6.2097606028740095 0.3920011866029249 0.9953982180164599 -1.3337517944972577
Ni 0.939953857960848 5.844733925561392 9.806279114613908 0.5997818032584509 0.05304622909270219 -0.26639302698209605
Ni 7.381494273413386 5.234827322564366 10.472664628893032 0.5554223033064691 1.0329851751312984 -0.14703676180825
Ni 3.1455574893769955 0.676686757336484 6.405474080130356 -0.37571864739281746 2.564160154309158 1.8277450439639684
Ni 3.919293867183722 8.26795062514382 12.749502084347053 -0.386008973575232 -0.6220035907711288 0.7706336652084277
Ni 6.214634656216077 7.650871687173976 6.913587918256735 2.3886311985984863 -0.6040806877441208 1.6810844345482145
Ni 2.63886613362376 4.596129971340977 8.152312856851351 -0.0865757283087154 0.5523192389011133 0.26917907436766547
Ni 2.2842780615678544 6.396800901798188 6.39732453756484 -0.22890865688339287 -1.0896384048489685 1.6485769488388122
Ni 4.305309304178364 3.1851620536999077 6.807371906188198 -0.9229244763267653 0.21974395966498927 0.34679065150455757
Ni 0.9143104556981355 0.3456521539464554 11.780917887708078 1.7421699890056255 -0.1415410288010014 1.0150167635783356
Ni 2.056819165958168 1.6709327941172794 2.490712243631257 -0.11056874878920313 0.23744883314392012 0.06742023842618712
Ni 8.570645286451665 7.016092385260931 5.909368832666693 -0.32329411104451417 -0.9417763189259457 3.058682536806461
Ni 5.635998696185372 4.06060177266361 5.156494915070104 1.9349484758253643 -0.4815709645429577 -1.1175636705043268
Ni 2.677198484288255 5.478032166931858 2.5651800716645874 -0.920866308246156 -2.8423203491295115 0.9329664339437996
P 7.24928546127305 3.880887765002797 3.147409574333344 0.6497126266506229 -1.7168119698568112 0.4626412175179903
Ni 6.867980902390376 8.015194959398642 4.543784832554781 -0.0026006708476406823 1.0084913037549923 0.31250010575280374
P 5.390940844967576 6.361833464070812 5.368683559202957 1.4686233816978838 -0.277671942330025 -1.9008098822704425
Ni 5.745593449600358 1.9515020004961225 8.12372123771935 0.3749938534116509 0.7467658574518945 1.6652819202983193
P 3.5492548524357304 3.3632719658783676 1.9480439762695105 -0.09673235712674308 0.5166986614840262 -0.2101025799204833
P 1.2588185392459705 1.6659730046373618 10.265886580384274 -0.055029835181634255 1.6293723508859035 -1.4494007860228457
P 6.478379297909326 0.8055168281303705 3.649923828574775 0.42123205844358425 -0.5214778280402245 -0.18673870838356227
Ni 1.7115422228515504 4.915206688235835 13.265360753592537 0.4015602910462697 1.0059649377887125 -0.8702723973486882
