# total energy = -340856.52142477577 ev
CRYSTAL
PRIMVEC
9.30598533345767 0.00000000000000 0.00000000000000

0.00000000000000 9.30598533345767 0.00000000000000

0.00000000000000 0.00000000000000 13.62025019892519

PRIMCOORD
 96 1
Ni 9.042151505365648 6.594714542732904 8.618281547200153 -1.213572262091168 -1.8013498417998914 0.23861611397914387
Ni 7.0518152445213635 8.433996046936576 4.693660837376895 3.0465307319352757 -2.005874413411965 -2.162137836024806
Ni 1.233554907990173 4.797821802483027 8.640904397951344 0.8384048592161303 -0.4846555170055525 -0.7507055588259329
Ni 1.783678240839474 8.164745968456852 3.9137113030212753 0.5933087939395976 0.07648054885624248 -3.554976923602523
Ni 7.787164912768321 7.491160125975282 2.1116695609940908 -0.30540386102765466 -1.7765739204067919 -0.09182720651564186
Ni 0.2528864335760232 7.0689754817838875 5.046329769881166 -0.8905753705720985 -1.459526561602938 1.4484710751197247
Ni 6.701491420363165 3.0306802978775575 6.548616412958696 1.4231099706471166 2.415283768189008 0.5418471357251958
Ni 8.554201461643746 2.7075020334236877 1.960893983918486 0.32259759919812186 0.8809884982146117 -0.8262098598118353
Ni 6.426480936858766 1.3689849149758089 0.4537096006721564 0.3115290000887861 0.9353986975343761 -0.384819324142505
Ni 1.7666110634319527 8.885178141946856 11.962012405511622 1.2732856187914006 0.6831390246298686 -1.0603301428031544
Ni 2.6398568248221217 8.116066358304867 5.8447488936592 0.5839258100628008 0.36013570535289585 2.4179937109210035
Ni 2.3699460213718786 3.7866985599206466 0.12671588216316992 1.1502107671153867 -0.2960383606523546 -0.03764043606059324
Ni 4.268478735255861 0.1775395913744221 8.5379355295878 -0.45181507343676386 3.208215068453372 -0.251616897114186
Ni 3.0025017737826967 2.909507060678357 4.273830607517073 -1.0234767214202307 -3.1892981769442104 -2.6260466074013094
Ni 0.3407582016624568 8.492949465080876 7.457686496130759 0.9847003719829815 0.9826041515755852 -0.7505209536189525
Ni 4.700099648744542 0.17105611127637407 13.027224827597305 1.0038556047551936 -2.1911902733060717 -1.4712140252431951
Ni 3.6398687206971623 7.716886110270175 9.511933473595345 -1.4276824205091476 -1.2751761509458943 2.242910841608815
Ni 3.791193350917284 7.46984011319413 12.040451626694969 1.321571707491298 0.037465858155941924 -0.9954015604505696
Ni 0.3300470123516297 7.165208677842327 0.49114758033979977 -0.2646667883196087 0.7996935586888615 0.2684727923292602
Ni 1.86213700459237 5.991035263329468 12.899126075988791 1.1001321052914408 -1.1458458052784717 -1.6543521607596927
Ni 8.981690517570303 4.207161596794488 10.3208125250757 -1.2771579572626135 -0.04409776165016276 0.9254305305780708
Ni 6.683484338420115 0.8319578955210581 6.093482065906446 0.6757774420584749 1.0717322139925092 1.2337453946049333
Ni 7.543050301124866 6.194966629582695 13.191566670335222 1.5302743217404613 -1.4041791951808849 0.4125612701424637
Ni 8.493991735456909 5.4099416107352205 6.309662900873699 1.043959671864931 -1.4454993940859104 0.038789204953055774
P 9.188329925604114 3.3133030775211894 6.873609344585121 -0.070295245981137 0.15599448522217005 1.4275512942479223
P 0.41206438495983455 4.817597021671131 0.33374521098944265 -1.6897714207992514 -0.05604413537876155 0.9113851082285981
P 1.3738426394069576 1.8191061276390559 0.8070299521614468 -0.07403414419827894 0.19665365350442907 0.6643136643932495
P 8.172981765624604 3.9678954035966805 4.0202620452038795 -0.8488448236025317 -1.0702995953110406 -0.00636528009639549
P 7.600347253850116 8.281684982253424 0.036405945875661844 0.8112576093773771 1.5728638742762138 -0.6021387335264018
P 1.2041293818382743 5.80808889437938 10.839022841848875 -1.3197472526880498 3.8216388879752894 -2.896049720332167
P 9.266258248183494 8.832506264015246 2.921339621241968 0.9199371115636672 0.200634492529048 0.8584062420387216
P 0.10609195709744007 0.6842235145069463 10.521765975968837 0.45821454920520444 -1.0184371021137943 1.1501439184331934
Ni 3.5791006353803065 1.6365506100799805 0.39997590979496533 -2.659450379672736 1.103507192411261 -0.07844230056830362
Ni 3.6341920695419887 0.26561050755056176 3.8768409884691493 0.6433617447319308 1.1304996618397047 0.2648071705522149
Ni 6.146826766589725 0.739811888294344 10.02487194958261 -0.9038522901866628 -0.58759117472953 2.2734771444314457
Ni 1.9329369422785323 4.099658852295204 11.199441799077784 1.081985259179085 -3.9462373753846816 0.5935700180207842
Ni 7.776155931921486 8.191379698958666 10.177922840113036 5.330941235449774 2.1741487444427525 -0.5512339762567346
Ni 0.549604989456935 6.427104437887285 2.679798114589342 -0.6075329079587796 1.0569761387292569 -0.5734089696918769
Ni 6.190127517122548 2.883115285799551 4.280341074973073 -0.7412328434488074 -0.5146518062573265 -0.5271468534005438
Ni 7.557093033244795 7.538797465751236 7.040471248196518 -1.2241420671872143 -0.7323941621112547 -1.4922304795938623
Ni 2.8856372078701282 6.394626548491293 1.517050589073731 0.37871243991381875 -1.129876426433409 2.0326228851504027
Ni 3.5679613707364664 6.121356284275447 6.494584930545496 0.7696257927692035 -0.7197985848344314 0.6575334082466224
Ni 4.733033531430047 1.8076876834302071 2.139904851600503 1.6447308356198447 -0.09244889926004078 2.9571483874157005
Ni 1.2361233599882515 7.9458691894901685 9.582949310145116 0.7451941420894005 0.5890662166131597 0.9734849628831364
Ni 7.15614464796505 4.939784611289862 2.4087138263675123 0.10758961155622117 0.09574196818901576 -0.7001275887680651
Ni 6.067846867648813 7.818823875440288 9.085551829943325 -2.4160299023264127 -0.80617685242036 -1.7832299922707289
Ni 4.897367929379566 5.1614159619646305 0.743676664072612 -0.7753920058290193 0.022176536097039228 0.8603641370960409
Ni 4.458730302823671 8.34839028631946 2.024145836765368 -0.8765356046495807 0.8562400876253383 0.9509394734824524
Ni 8.046076041357228 1.8445673039678334 9.205927544185151 0.671344860208418 0.6676576411648178 -1.3574033724779269
Ni 4.241770556870045 6.80777508076191 4.131007925650012 -0.11611410408746456 0.5975899378134547 -0.792250729257571
Ni 5.1625699041666655 4.0623325444535645 10.099988003343805 1.18204873756159 -0.703160204946802 -0.2669429859482951
Ni 5.574229478757238 2.0336556233481082 8.328769546490662 0.1348553892507097 1.9927823561146973 -1.5085603271021373
Ni 4.232297063630755 2.3015098040027886 6.053302542910419 2.3554883932979305 -1.485653854817609 0.5965237013324693
Ni 0.12861523380377793 0.294793147480903 13.4478860819623 -0.5007974168727375 0.0374907978566064 0.6113391690787471
Ni 1.6684049984474534 4.354084495872975 2.2759983753523096 -0.3003457297784569 -1.3054125812329325 0.04428236685714309
Ni 2.215792371559671 9.188627717140122 1.7315693750306325 -0.8890530203903011 -0.1556360734414868 -0.8486422206734222
P 3.9794720495590337 4.052189020258255 12.169544257554909 -1.8232145030834666 0.42790921335344373 0.278807598596365
P 2.654309020304063 7.758725821079453 0.09329622703454929 -0.3245002155374734 3.0194336186081676 0.5912503687486721
P 6.249415950744859 3.582515932058911 0.9511182480565474 0.999527409693485 -2.334876373474534 -0.057225557281372415
P 1.0215738642791992 5.102481155791331 4.139221388452563 0.4192255695365167 -0.315133943831225 2.463578084419022
P 7.433239672221513 0.052165632320393146 8.0270946227323 0.0049750846170882055 1.0154654210799803 0.6861065918986248
P 2.206365408247883 0.879035014969896 5.506435374387668 -0.24718894324981944 1.6109609382582513 -0.4992095035603273
P 7.024046183788516 6.1298061191097055 10.544076145607217 0.8730766995667029 -1.5269036054960154 -1.8039592543982803
P 3.7766853195223407 3.7454451261978865 2.293936593002657 -0.35177190676923287 0.46234631198539083 -0.550059496332659
Ni 6.388400844191603 7.702787542237245 11.740097222279095 -2.1277267055347875 1.8995137891668379 1.9346443143213843
Ni 5.98391618442175 5.119352907503346 4.686483130760526 0.957254617067203 1.2511710462805485 0.06767760585263184
Ni 1.0631530074944688 2.244529254784548 9.38627289018791 0.7097309161857841 1.0222914428628782 0.6932542586869995
Ni 0.1260114190607984 7.377012907828796 11.717201706152746 -1.319941370976727 -0.3986480024954812 0.2654075231403752
Ni 5.601589076128073 5.453354033094047 12.08541163444249 0.19157572476088944 0.062369820486473236 0.054644426817757503
Ni 2.1070333190178494 1.1693529140237122 7.6787157495436595 0.4351787504316635 -1.2463211743874147 -0.2259140930314432
Ni 4.785016766434635 5.8730725911278645 8.643832991588283 0.7212409737079127 -1.2407819897367407 -1.4287458287766555
Ni 0.6219618185172948 2.8305736916649464 4.805237742328202 -0.5068135411598303 1.9821534156459408 2.040933204788311
Ni 0.40307387236800996 2.705082477193614 12.486936990823255 -1.2928440005393025 1.0640335597966708 1.0312121423912757
Ni 7.274795963093674 4.579335874907354 8.692008217326155 -0.5284468031588899 0.19064524252682008 -0.2093723866226781
Ni 3.7078210268202376 2.323695273435466 9.821276529405944 -1.46790038748893 -0.45131987896790016 -0.24150397704990023
Ni 0.15571891657335568 0.06727110798445447 5.2054965540823765 0.1621383933363788 0.622292068545825 0.47561346140794225
Ni 5.670853526206688 7.4489016458184905 0.4500011654502931 -0.05123822934968595 -0.2103360360875281 -1.42865455461443
Ni 7.84637889850663 1.4499842127702829 12.19278037275057 -1.1371043116404158 -1.0319598191905777 -1.9659919753947306
Ni 5.224128998251046 2.4792169031162157 12.536160070528457 0.9442854585010447 0.47162645173573614 -2.0349420202018824
Ni 7.537699359462203 3.7725441559747144 12.790654578398929 0.11779971932000358 0.054088811424603624 -0.15362109989398703
Ni 3.7437793547933356 4.602768346397069 4.956586568110626 1.401415773503135 2.4048031803726584 0.23874672601973723
Ni 2.283484110088738 3.265898387382741 6.608082590904062 -2.867810522980816 1.0890344527163822 0.10817916551110401
Ni 7.384225046591515 0.3906159495787795 2.050378479292119 0.7472991042475452 -0.12351553875785826 0.7126226359112823
Ni 8.18133854060386 1.5055316402214793 3.9659718563937716 -0.18338470430966483 0.31842778409114836 0.03609031796465397
Ni 3.623536716144163 5.560959143433832 10.686353496723964 -1.3903916544784893 1.7767302434789982 -0.6703650127936519
Ni 5.10216475228432 8.6475963321246 5.482464086337485 -2.4536132598968257 -0.5682071137759633 0.9342728114600489
Ni 1.442195102906545 1.6479783602743296 3.218342940279189 -0.6109229074769349 -2.0225742426651494 -2.579885278353899
Ni 2.361263536900114 1.9823610312705415 12.00581474866291 2.28784986821335 -1.701775901459295 -0.7985311629496441
P 5.861709982832017 6.6633275738265 2.4583733567926793 -1.7786326027080335 -0.4253707632023061 1.7736330926109132
P 3.869261263279168 3.644568243374806 7.8241254953798 1.6319290558694863 0.10210467718224996 1.6865133188732695
P 3.7254930932852774 0.4742441882770835 11.017488378780577 0.3481507650768778 -1.0968855733296852 -0.19622299372491367
P 6.866495849268705 2.923493956885284 10.640234893781654 0.720861735991623 -0.384201488052848 0.7348889035086505
P 1.7112776736472628 6.633176180805579 7.32539260625872 -2.100745806070569 0.5046023924411245 0.6651695846356415
P 6.480185779180906 5.475781458149732 6.744775420122087 -1.2732334253972266 0.046428466665868424 1.033818212555555
P 6.100082801421798 0.8025156185952589 3.7769635684887994 -1.8087409920576398 -0.20185499519971042 -0.41428416637084137
P 4.502217173066499 7.836337740151824 7.384872743182335 0.40171172902246943 -0.9974414736987337 -0.243335116721368
