# total energy = -340866.3123080417 ev
CRYSTAL
PRIMVEC
9.33734833353241 0.00000000000000 0.00000000000000

0.00000000000000 9.33734833353241 0.00000000000000

0.00000000000000 0.00000000000000 13.66615311975863

PRIMCOORD
 96 1
Ni 6.554304914462446 3.489955292429218 10.521516352844628 -1.1027044940043074 -0.01634090325186863 -0.24945125692143494
Ni 7.630910504562005 7.499842147234422 13.036635681175909 3.1733046297294316 -1.9936076802294698 1.7441821343396477
Ni 2.323608448338394 4.580445519370417 0.5326331571948737 -0.17457739043068 0.7487386649075493 -2.7274470594276834
Ni 4.954910533423657 3.3973941592676935 8.12221842589021 -0.5023933006049477 -1.3040846064501284 1.1111564814264026
Ni 0.472278405603079 3.1698616572118046 7.44823088854008 -2.1181963974468485 -1.8607292121994727 -1.1337644486339054
Ni 8.034844189679278 2.2387132780867467 5.446194177646424 -0.5227757209160415 -0.3081868230894305 0.5932602000898493
Ni 0.7454397273321667 3.3164486873240584 4.868991056069436 0.4462499206441605 -0.5646821313418403 -1.011220529760697
Ni 1.820129293571668 3.5551953446232627 2.3341512482428306 -0.5084479914394598 -0.6082882980675653 3.7592310151620287
Ni 9.160405496632047 4.997937034140727 1.504917224017207 -0.2950903949167885 -0.19165157230414734 0.618722863137328
Ni 1.7814539971371848 6.6289383389918575 1.6597407290171617 -1.0408118702645688 0.9719592702672293 -0.11847514812047338
Ni 4.468210593454798 4.867400905663161 12.55464363219263 4.15136461357776 1.6440983442421684 1.725003504528668
Ni 5.576348408580733 1.3121121875574386 4.3286312432010865 -0.14748336242736537 0.21879522259847478 1.025372910001679
Ni 0.32554664659301397 9.161712725386472 2.3692185933151015 0.10467758011574875 -1.3103781527683238 -0.7578167159494175
Ni 3.5128131209351605 1.733516051242777 9.436547299921223 1.704791034136535 -1.3972688412142968 0.20289269243560543
Ni 6.909992521193198 8.260201089593876 8.303609487854201 0.7896816829788142 0.8541307545918192 2.861398963027517
Ni 2.5720566104650806 4.817016574528329 11.788054811083517 -3.5731947321621296 -0.04295079252991312 -1.9171176182915304
Ni 7.731380371687799 0.8470347449215913 3.165818585421333 -0.6383984871893844 -0.24521947822827447 -0.3552056150411302
Ni 2.7781225489036645 4.378506688856517 5.630919606669022 0.7331721779278599 1.030769141316586 0.1647876580337678
Ni 9.073708218168942 0.9202955792588576 11.468293585463657 -0.9884852929467105 0.37270994247348066 0.14399540387876492
Ni 5.003800888839146 6.883213006423981 9.88844600924282 0.6818131067295935 -0.6681021849014042 0.1963464066766554
Ni 5.78599988874574 8.337178188533006 12.80092179458697 -4.0079063131493875 1.0602820631740386 0.9418390538430811
Ni 1.8596449513482818 0.1178541420899958 10.951467625114256 0.07766248497948561 0.36077899536384966 0.335508393722519
Ni 4.408106082795994 6.289189585716843 6.924653091674073 -0.15866200475200415 -0.5652999674314974 -0.23307230134277923
Ni 1.263109783962999 2.5031096310174163 12.251801681594326 1.2553220923344446 0.5017752074049746 -0.23509524531007903
P 9.090944963030859 6.835396446056769 2.686820090285686 -0.2564629123525777 0.668693281518184 0.7625969109468802
P 7.391939750904898 0.11734338914094551 5.279959499355165 -1.3175245340051178 0.06332035732520062 0.33144425095547436
P 3.7810938107361207 3.7858091716002957 10.181953412799706 0.2973617074494685 -0.022593826140115927 0.30128109710853274
P 8.45810618566555 4.469181677672371 5.549824737153454 -1.1804924488180637 -0.2625471708734446 -0.11837976019318967
P 5.742525195312869 4.285273266621289 1.3015600503047564 -0.4129654475594179 -1.1854965869008744 1.4727885688191666
P 9.282061806927771 6.774993140254096 8.769446990637263 -0.7179337637115506 2.634727165894443 0.13666930253099688
P 3.874588678722234 1.0641962542807684 2.878324434134802 0.7400740472540157 0.8436259984057535 -0.985862767722199
P 2.462865660077623 5.093187323597067 3.5353926964633757 0.9995698328956464 0.9600869443096756 0.7816778388377311
Ni 7.624346348745142 5.440994208408288 9.356367490533751 -0.3328372746482591 0.04946236839618578 -0.2620103245333681
Ni 5.131050270734158 0.9274853374081942 11.135386307248408 -0.017007590301590065 -1.0624276487621316 -1.3562882850368772
Ni 5.903743850126434 1.1568787729694892 6.852195269285954 1.1609129840242391 0.13344822449053792 -0.5970312370965073
Ni 1.0456336059679356 6.672188936066829 12.774300081003108 -0.02357932998183681 -0.9798731257976673 -0.17989751709201277
Ni 1.1864314801677365 2.120605160124463 0.8695228144369969 -1.5480622418515015 -1.416663700801141 0.0007191375542116647
Ni 8.274842051643434 3.000743605782214 12.021705143710115 -0.08021713308053927 0.4206306774141595 0.763090305643531
Ni 8.347570657130683 5.318236091019549 11.64783958741426 0.34746299498123384 0.7869609416135415 -0.2909455195104796
Ni 8.918129321695895 9.008533527412618 9.522506927872902 1.394375835937218 -1.8534118526024532 -0.6287992735367236
Ni 7.008865701768946 5.5272899808968186 3.3994558457603863 0.593449690392836 2.238534309807674 -1.7540909088129275
Ni 8.186865556470641 7.464687031088641 4.747730649339339 0.023399866981179056 -0.4698981561907198 -1.283989121251834
Ni 3.9664028240240876 5.551707146559825 1.9626097579253785 0.7822216271563431 -2.3294035232854204 0.816376161550865
Ni 1.6220001011420924 0.8754044100970841 8.416751070284494 -1.5142316664553017 0.2884320090600065 -0.7466151908066432
Ni 2.1469178074813855 7.972171908252855 7.997336995510357 0.12554876713780314 0.6213806124751491 1.7493163702424195
Ni 7.375832825180734 3.6106031691143845 7.475030011740614 0.2566359475953322 0.18424216721395367 -0.4265329018312073
Ni 5.946462218351389 6.612233822979958 1.3587391697581235 -0.07522636473416722 1.8631082539546104 0.01452570442000079
Ni 0.1677632021991115 0.30626222126077385 4.673619182576872 0.26702140459471435 1.4499474025549353 0.9273642572656738
Ni 8.349335415949156 6.148765205446878 6.8541365039862745 -0.3409840721251095 -0.14446077355095766 0.6239987668242866
Ni 6.275276936830465 7.627072854432942 6.36039153476589 0.4501885935769343 0.4955775632346949 -1.9263872165189146
Ni 3.3419489853835884 7.704227362988746 11.996121743251196 0.013680325700569988 -0.5485194055390489 1.4042691837915298
Ni 3.7962670016356945 2.7440785771991427 1.133939709533807 0.46704757411580206 -0.1944039382383039 0.1429232538605087
Ni 6.162313697751666 5.116147862933715 5.4557472186367955 -0.057553630044752495 -0.3951824125443839 1.2630094336763733
Ni 4.624741899448927 8.396152880054059 8.048803525306887 -0.7718454261283417 0.9850981216420326 0.8719338442115112
Ni 2.939285179627755 8.866559147333836 1.2167853318454813 0.0429595342806615 -0.6553543983174327 0.9663013006505037
Ni 0.670602748610994 5.800939645939166 4.601707595061137 0.3393156832837511 0.8490656813640861 0.2236648919859503
P 2.326036158882326 0.8518602864950681 13.277364657507716 0.23382460612777148 0.014254195926169002 -1.4778934941458999
P 2.1984693071469534 6.214276040740054 6.918107610553703 -0.3771741488924214 -1.029153460090034 -2.1812267343354566
P 6.017239318055247 1.1095104053180807 9.02631650714692 -0.42378619232400566 -0.5969322496247977 0.26105593103989877
P 7.073200031183139 8.88341306091767 1.1376251608864605 0.047016992179486766 0.390065917253425 0.2016847881704333
P 0.39049910846108576 4.329233502162946 13.210168430856157 -0.09087744100786284 0.4344009917253744 -0.8415845424956926
P 1.5051898745859873 1.5496730016294151 6.153759753023605 -0.701908849038204 -0.8878430592426001 0.5798354420435111
P 9.109862430577035 8.160655619944423 11.74950276764588 1.879772344873853 -0.5141920930120886 -1.0878969966778298
P 6.003840223322393 5.183488818483086 7.915039475540716 0.05514682037547277 2.3071835355449553 0.010690904054942878
Ni 4.408124757492486 0.8091979423595891 13.484652854831689 1.0815263172647955 0.07335331608117045 0.38416446416732547
Ni 7.170233754154445 3.3540315140137724 3.4751658665425498 0.4477226485349451 -0.9584167556961043 -0.1472211099049142
Ni 0.8627812490034631 4.930484030412405 8.64597363237289 -2.271085761381134 -0.3594535916842067 0.4352340291496311
Ni 5.974455588392572 1.904716331331201 1.9935089107406836 -0.8522721041165258 0.06758813146261909 -1.111279637267828
Ni 8.020474010728853 1.370106457512672 8.163285017210466 0.49980419972153284 0.484094759406076 0.6380418751809139
Ni 2.953113792379921 5.2477951358525425 8.697577421188635 3.031403389375534 -0.22229218000813977 0.6161242491722163
Ni 8.076021895443661 1.599086248546674 0.44342133084915075 -0.06698109400623949 -1.191364101425245 0.35718382181342356
Ni 2.6546454556999923 2.9104140988514575 7.517941663074258 1.1796570974009621 1.2349985502857441 0.42544044009797694
Ni 0.7074936777956875 8.811515479424305 0.09571062072486365 -0.4750074523928271 0.5875937458326913 -0.7004065534610646
Ni 1.6132790178804293 6.558254612770458 10.240759098317506 -0.1501593665976317 1.421992826323538 0.6651739555110157
Ni 3.806538084706175 8.354891138155462 5.710811825730521 0.3021501299770474 -0.5300375446847775 -0.6265274467834113
Ni 6.13696279726407 2.850804467649685 13.266349387782038 -0.803023651503359 0.17248991177403197 0.01715954249842206
Ni 6.99221720984652 8.388384206313475 10.857499353572074 0.1035025859710411 0.19255454373439096 -0.929287956650948
Ni 2.246295204862411 9.335462101546025 3.7634536924299824 0.4161016791955543 -0.19281988158063568 -0.18828651248665637
Ni 5.38453126356538 8.737713078888776 2.5674878459683654 -0.08621423120423863 -0.046533881895481154 0.08326029078223725
Ni 4.49659613212231 3.559154380279521 3.6996870737891383 0.5670868841285911 0.8442613179969073 -0.19595637032708832
Ni 7.179757849365255 5.270615614965502 0.08570845328386446 0.5467024069349682 -1.7426345873468696 -1.1049714356616132
Ni 1.4965901768515208 8.093109242733643 5.676263637220722 -0.08042462110565504 -1.329680966861994 0.3398563862785695
Ni 8.715966394824093 8.562292317393208 6.809516117923631 0.740530418065144 0.6341741646953917 1.2482687850320888
Ni 2.8048367022351606 2.1742015390558813 4.582097296275115 1.0077284574470387 -0.46615360154662294 -0.124490758186934
Ni 3.656785693538564 0.9103111527795257 6.900573938017567 -1.3678574779317154 0.6083628600592427 0.009893090743995865
Ni 1.6778467810007704 2.999006859008478 10.000794850807038 -1.385072299148105 0.23618462171951585 -0.5966733395364563
Ni 3.9610338487826993 2.6737029834698576 12.125923022421809 -1.6362693351160529 0.03148341532026191 -0.5909608625327112
Ni 3.3254592283813436 7.365262946966386 3.24654462968119 1.006497927474047 0.007496822597677411 1.6779248058733103
P 9.193179588975127 2.4654801175864725 2.893343558788319 0.18027341237419278 -0.15363292696852895 -0.48091790433999115
P 3.7761917029070275 6.768699767536366 0.285540778033491 -0.2915885524111172 0.846438271043568 -0.5371769839430361
P 8.617681467187838 3.0811848609205708 9.784159034154104 0.657846568611667 0.13515543698963176 -0.9989401697314474
P 3.4626061994170008 8.405873059578031 10.041902526459575 -0.055809393660136146 0.4011903093013607 -2.2065883530286965
P 6.247031458386642 6.141454061770345 11.555743454195383 0.5082818981752408 -0.14062340208273846 0.3791834660129663
P 5.0873234688986475 3.1520833461516267 5.941797279167741 -0.8036787685888547 -0.7474991360734933 -1.3336348093034194
P 5.178689421484698 7.05981027379853 4.662494665876716 -0.3415630845570311 -0.8639125165689315 -1.614427042429981
P 6.93555818069045 1.0955417323422267 12.123531727536038 0.7749636600423493 0.14450705340786082 1.0640207042808643
