# total energy = -340893.6306512857 ev
CRYSTAL
PRIMVEC
9.04581014100837 0.00000000000000 0.00000000000000
0.00000000000000 9.04581014100837 0.00000000000000
0.00000000000000 0.00000000000000 13.23945750587380
PRIMCOORD
 96 1
Ni 6.536900490756837 1.8944730831221117 11.229085282164842 -2.11950997405195 0.5280976473495873 0.7361441160719903
Ni 4.44655847863738 0.45117516329939994 5.99404513615457 0.24126126491147487 -1.1313956912914127 -0.1348844427164322
Ni 2.4834729248901883 1.57817728247919 4.695546214490968 0.7119706041495802 0.16288761279757755 0.931537671917073
Ni 3.664141122445379 4.497694443890325 5.0404340121215965 -1.4027684308762873 0.0880847087540741 -0.24019914219554758
Ni 5.166442148681567 4.1331211540284105 2.883938180598667 -0.6171927996460467 1.5923811183735348 -0.3890539310491429
Ni 7.032656120632583 5.970062884062123 2.6670359336451663 0.6233148533833845 0.8084983014646849 -1.3371317667130844
Ni 4.933530626775888 4.7544145383319565 11.280163354232288 0.7445619078220402 -0.3813727603548013 0.7979938023889354
Ni 5.623970184508321 8.084973316777193 12.53078913439436 0.40427023377826504 0.16365277309837623 -0.1409267922557702
Ni 1.6551299901400414 6.7787764106044355 0.4703359985371119 1.6557701241531417 -1.936929510811135 -0.9333094191055152
Ni 2.5628680013142264 1.5802759104534836 0.4331866650680176 0.7895199605899692 -0.5290358428931404 -0.5733943144038577
Ni 0.5734618535290917 9.132378637964726 4.679618351830897 0.35393549007945496 -0.2132418968804134 0.7767256370387784
Ni 8.668455214302513 2.529850793960035 1.6213701217656364 -0.5690481216200199 0.0684183406733983 -1.0658932387132287
Ni 6.825226646156154 0.8660359214143061 4.828204830734993 -0.4153776565453362 -0.799294780588546 0.4200722338075281
Ni 0.9569110356063457 7.579122562680275 2.6293167141313285 -0.8046609299964658 -0.39416271303061795 0.7543218154222815
Ni 7.6157128650769055 3.922227134232349 3.6953310761322977 0.9188053119520692 -0.478372255100002 0.6118011963168302
Ni 7.443869608061131 3.713902124542751 12.583945933653583 0.7145476208481372 0.056392776967431904 0.33917812926462226
Ni 8.04067598406117 8.886884394023518 6.7999707439827555 0.7475137913615126 0.15792281259313448 0.2503758256182333
Ni 6.7541265777167165 0.9794079656583661 0.8047785990905115 1.4145286567360091 -0.17733438435052684 -1.753879821243386
Ni 1.954066880943869 6.233793481435124 9.385040781935373 -1.279956603053673 0.16600096161557862 -0.7282413162851459
Ni 9.222293991690934 4.8930687175990935 1.0888857885966783 -0.8860062631441772 -0.09359458282870978 1.8786006931632548
Ni 6.38336595365473 1.9792956456865651 6.9269368318465085 0.8021335355889219 0.09843391319888209 0.39501529083890036
Ni 3.281403845633543 4.552276862842432 0.47356444820963545 0.5709165422873264 -0.6421957494482875 0.5363614300202763
Ni 5.969402539915039 5.558749892721001 4.794616832755035 0.7116330183045035 0.3246169436209958 0.800852354883653
Ni 5.608782269125394 2.945071575322255 9.01086717367209 -0.3687391307511908 -1.1467351498619607 0.9712344762860627
P 0.4100728107580367 5.557266379842621 12.399691824996728 -0.7049725755651923 0.8075109978507512 -2.3997064825760415
P 3.83750407558047 6.338761063390752 12.529809473146013 1.49182553084596 0.7492127763304903 1.0341074616611996
P 2.5037084023837024 8.4760779680555 1.4466620566487456 0.24741931409307066 1.6073644791562447 -0.03196009784636432
P 6.458364766305031 7.798076399394851 5.839554456910725 -1.1000089494500151 -0.22726417930143442 -0.4245603514858688
P 4.756277975240166 1.2699593903752524 12.727580736035575 0.2820289337471401 -0.7571142905657542 -1.134027472487305
P 4.1504167431958665 6.03336546407983 8.2758390081341 -1.116397675220684 0.8624840116525211 -1.1933919304885512
P 4.552403504185707 0.9802311343896624 3.8016573387850756 1.2119077299045515 1.24673923576144 -0.1702078006080746
P 0.2144671148385012 5.510219120815456 3.247638549772997 -0.6244561660766794 1.5153444399035063 1.487105499662471
Ni 1.346486944955105 1.0649361014210734 2.6026261464548135 -0.2671774705566044 -0.2547364165797742 -0.5144679723812946
Ni 1.857900872345948 6.380769806117565 4.619206812763984 0.09390260098743182 0.1834384403657357 0.7431704267911523
Ni 6.0376441323205245 5.733505900632132 9.248013039348313 0.1748635542125311 -0.31456727269447754 0.044063565978117655
Ni 8.697537494204903 2.3450177534482 10.391451395723328 -0.1741845258676355 0.1977754258136981 -1.0226465122094517
Ni 2.3729602612611034 5.244516536811437 7.147148940764639 0.2695210310881164 -0.3654707444125641 -0.7339579070539488
Ni 0.7754665556081766 -0.3871136398030576 8.760919677352671 0.20305312927286964 0.5305797903414927 0.6650759964805707
Ni 1.3947101593126925 1.1290528043598433 11.404548672436274 0.8453033861081765 -0.7257661152717758 0.07875443249208372
Ni 4.169874281009255 6.831278293202717 1.5185653930369645 -0.6542763347619054 0.5041205677086995 0.6137750322137493
Ni 5.6039698980808925 7.8642193638260425 7.952002620080092 0.1855068928589902 0.33727191338084495 -0.006794911434646362
Ni 5.133533491050183 2.77949706479866 4.989144268094674 0.6517543396710002 -0.45771035587527625 -0.09966495739250578
Ni 0.7363425217649946 7.025012410984832 6.712180251080518 -0.17128586416360178 0.9622371578834589 0.39154404446084823
Ni 5.2269948023881305 4.504804450734269 7.149678149306073 0.2382178500994607 -0.5062018757177605 -0.8767430926746965
Ni 8.009893091834783 7.275002422612349 9.14402964154615 0.24301501437778794 -0.3084112803954108 0.18062513928665666
Ni 4.775518413607937 0.31527452866750033 10.311339891128755 -0.1553653362786034 -0.13290340773066142 0.1697113205876303
Ni 8.224016465884391 7.279706243934044 4.656793963448404 -0.12237833982962151 -1.8638160786549127 0.46299885796772516
Ni 7.269801081727786 6.124999521750504 7.042517862949717 0.013173818377796666 -0.361171602816578 -0.3870078471533916
Ni 2.3067630219685076 5.130647877585529 2.6284166560130426 1.8788112665121643 1.61334126556497 -0.9761997907111383
Ni 2.515440818257233 5.0773680553071205 11.573245796652655 -2.3372073356005556 -0.9362201649944071 -1.5966429789736825
Ni 1.1864665619152008 3.5251884314405193 3.6801585386267672 -1.377830529984027 -1.4988968358704442 1.4253406597498486
Ni 3.4039293452534127 2.451007511960272 2.610609073986341 1.2946756544314026 0.6620912028206339 0.13951319973769521
Ni 1.2008674918077689 3.430406431808404 8.315716557969774 -0.5461092534356594 -0.2313820581245499 -0.07801369767131726
Ni 3.5124157473900763 2.5491455071892104 7.016316673606864 0.3407534441715422 1.078548208473078 -0.09035627839707021
Ni 4.108995978134265 6.815439079482939 5.929184867614563 0.18553980297945466 0.7524531376446589 0.34706138866744096
Ni 0.5646711351436661 7.509876885338811 11.227921086387724 0.6761456240311711 -0.7389592169232823 -0.03499477090763005
P 0.10952033824641215 5.583110259681231 8.274276796706681 0.6568780340508106 0.1533598758128004 -0.9446289578833924
P 8.662331200774078 1.6581151075172695 8.108558457800365 -0.12635506508918237 0.11931641307484614 0.08940034224170411
P 1.8121923932334194 3.172790802153603 10.43878269319184 0.19280085541724215 -0.16098808178201954 -0.04032749597445313
P 4.203117633619297 6.162195893432815 3.6414469937302565 -1.1241536650170187 -0.494356289233084 0.3199498771626296
P 6.86292958321157 3.9928839579703195 10.507495572310518 -0.07190038568472779 -0.04489737473332268 -0.988678125683807
P 6.281492038799139 7.80760163757128 10.386381219087157 -0.17024688137612615 -0.80013861664608 -0.6432295900294406
P 2.38983069734756 8.40319587499996 5.898946533164264 -0.5444791740314042 -0.2259549735717076 -0.09575919458019637
P 6.948738139091533 4.047819163521553 1.3977025133381082 -1.0377088058592128 0.45793481318125645 1.3634151258896454
Ni 5.104912547469727 3.000811857984318 0.6718667001599338 0.11524712810147894 0.18752366617870284 -0.24107614548386222
Ni 1.3941221816474811 1.1334762055642817 6.983522897765452 0.8134551312493281 -0.1289804185271714 -0.15257877467240172
Ni 7.1272752956804855 0.5110747095070673 9.03655184725058 -0.9098835839824071 0.6870643278262039 0.4126000938001991
Ni 2.9605037275815023 1.5554903904122548 9.246357656075487 -1.086606045780548 -0.1761123390179677 -0.05010488707619113
Ni 6.297286023467747 2.079079978378096 2.8266239269558837 -0.14653565380211536 -0.5288995744255923 -0.46187991387193356
Ni 3.9161302581346162 6.792598408642025 10.360550907963898 1.4705090287563707 1.6934275294945997 0.4162965688151798
Ni 8.049061450148113 7.068766995086812 0.231694860429202 0.15023341436867677 0.17907399274945288 0.14554372220249126
Ni 7.653307252409514 3.8344104084804336 8.26004502346549 0.9671268818755925 -0.05510105473920187 -0.3246665659120086
Ni 3.2638459279693 8.557987779724598 12.318084143389447 -0.6829081395659851 -0.2586074694994062 0.47160228336602006
Ni -0.008246160609337286 4.734721809452484 10.289362190584168 0.6915467890775896 0.40112808860485755 0.70783112805991
Ni 8.746149678402555 2.301027978280136 5.703637539820405 -0.5139177563047794 0.4715765723344072 0.2446924020802108
Ni 3.720840260992248 2.658147520509213 11.362632196973848 0.29416119823429987 -0.12153064711734551 0.5595813197801652
Ni 0.9124508783061123 3.309228757913404 12.63935242591801 0.4992858653242176 -0.05816812370029983 -0.6812009270668914
Ni 3.1940394103933283 8.260136386148854 8.085853474112962 -0.2317409841258654 -0.24835108187872068 -0.30380617752323164
Ni 5.61086280547922 8.023326120032312 3.6696735399845086 0.18285274306559476 -0.6465123745457705 0.025989739195542337
Ni 3.193397157866712 8.403829081716344 3.705976185615698 -0.838652456450562 -1.1261686385645187 -0.184212856637915
Ni 3.6761901416771003 4.141696582130266 9.233449284871535 -1.5721665910988731 0.24836650849768838 0.25066224651040053
Ni 7.241370100162245 6.051737504665135 11.34919374129018 0.3751560900211281 0.3194333425375273 0.8140374861153592
Ni 0.6394700353877963 -0.27167372333949935 0.22714934078660443 -0.6830768039333656 2.3768712298490806 -0.01041888134047883
Ni 4.660971318614478 0.24582532059577264 1.4572402271364147 -1.417545589185462 -0.05754797361779766 0.8386475713545557
Ni 5.861820718801778 5.799513177909813 0.26867051434180306 0.48511163070636454 -1.1265661311132533 -0.05301434741350225
Ni 7.8094560286692545 9.052685049802964 11.37180736229422 0.9718039756362877 -1.6378037694827083 0.1424987647285804
Ni 0.03907970937303525 4.768227490559314 5.974185964366791 1.5546195833540453 0.3585308227596212 -0.2607774805675315
Ni 7.891474390061161 8.755294992549153 2.906008148407641 -0.12056185544617301 0.5000181155045518 -1.610823898459755
P 8.439822360637528 1.7473972545270975 3.6239569196427692 0.042078931447921075 -0.6293050095285485 -0.2186471270563847
P 1.7570310424263342 3.277857888021805 1.5318184096108345 -0.24443529176408227 -0.25041053551091064 -0.641565057842824
P 4.751429420954729 1.0171199485240168 8.113801409412007 0.7701780657282478 -0.046508685084500546 0.42603590759013077
P 8.534097794896539 1.563477840848899 12.587149959638475 -0.06749942840355472 0.40971968692861055 0.9078770950753398
P 6.416274611286113 7.846453392526418 1.446622255083716 -0.1576495043270898 -0.22996409473110072 0.3645708583061141
P 1.7257234932063734 3.26314940058128 5.9334481579778595 0.948089148517851 0.5090532291236265 0.2815386243742829
P 7.174349692138352 3.9755883688028635 5.954380162859393 -2.631192413268307 -0.28166049466412785 0.21714817391335506
P 2.4699042095391506 8.536151193819663 10.223588295210526 -0.9191112732282622 0.04049127524582704 -0.007326615568400286
