# total energy = -340856.2397764764 ev
CRYSTAL
PRIMVEC
9.33729825785147 0.00000000000000 0.00000000000000
0.00000000000000 9.33729825785147 0.00000000000000
0.00000000000000 0.00000000000000 13.66607982893805
PRIMCOORD
 96 1
Ni 7.933472572849343 0.6563373491924077 8.194071890656284 -0.42711062871154826 1.0292187661103307 -0.3537531988653198
Ni 8.412952161115138 0.48857598395212226 11.905123079197761 2.0449675227586845 -3.2049919335303834 -0.8800518453329553
Ni 0.9841885556574937 7.991597252737847 2.0984260637678545 0.5544756231224837 1.9277352459063768 -0.6717204983802818
Ni 7.65361507797091 4.14575096318329 9.623953955590247 -2.1625903501811914 1.522331669854617 -0.6595440109187479
Ni 9.400418108361528 7.842321870026599 8.358270142989669 0.333463081157716 1.1094253576679085 0.9133388895208593
Ni 7.047232272939706 1.1938108951750712 13.361544546163385 -1.7209424470854169 0.7683638953376444 1.245351611385294
Ni 4.363730184387649 6.994644610749818 7.5013246817438395 -1.8986817801838463 -0.2622149843450065 1.392808491450098
Ni 6.491392261842074 2.5217427384494955 1.5488177653381068 -0.6461418785802291 -0.168643027224116 1.1187126965071055
Ni 3.4754543535196674 1.9547353189748904 4.476774983499961 0.6410132991044122 -1.0767911165726551 0.08475795837368628
Ni 5.503338064823319 0.30449488931277996 7.507200643358913 -0.2766018491942978 -0.48185301455975077 -2.3979756159278636
Ni 0.48914462539874226 5.065232043880569 -0.11059375839412217 -0.22963242242329485 1.051849616135969 0.9392928903824597
Ni 5.695649053896996 1.1009608041210492 9.459988201976415 0.32061604999171883 -0.9086404556039255 3.239732936555994
Ni 7.341646615359695 2.211380291089818 10.92462275624002 -0.630181755706547 0.6879130489797444 0.028356439655506004
Ni 1.1429599704083573 3.2161389141841594 12.193996668999944 -2.1831969706879497 -0.6379398023854109 2.6054140187526227
Ni 7.891734850905309 9.797440018218426 1.9335181767884408 -0.7407458765100597 -0.04268391202177165 -0.46644927841017086
Ni 8.580622020835278 6.694711925227162 12.36154234265703 0.683537802730184 2.4492956063580786 0.43695923937085396
Ni 8.727703138522624 7.368397974055367 6.213720628419367 0.8981292716599564 -3.0118684046664 0.2550143528315092
Ni 2.349273507570691 2.74268188311163 10.512809632662417 2.6762376264334042 -1.5203460068831558 -1.038483222131392
Ni 4.809595499946839 4.5795244778660775 7.220350446027709 -0.8952447510233098 -0.015399879494837993 1.3589249513287758
Ni 8.758553571028907 2.438099223197894 6.127159207550871 -0.40026445505298164 -0.7168590425901331 0.2877879477181044
Ni 6.9714320879863125 6.356953845611602 10.874441315738046 -0.4535559673872705 1.4060620140258944 -1.5692345050537426
Ni 3.843605338040783 6.62483158718932 9.94056959140315 -1.6161424824591908 0.36211931144182796 -0.11996613084370308
Ni 7.248684476729983 8.854316899050835 5.892498903515861 -1.3314740542066748 0.7918532367088362 0.7289378281315381
Ni 5.693174669933871 4.627602225134497 4.760824925168746 0.8433943420109218 -0.7606737257822384 -1.097551231938142
P 1.763189988335087 6.2542342305990015 9.650438267563862 0.5284043799567286 0.1737777773475201 -2.060798319143354
P 4.674157992833145 5.978475809531179 11.700214207697487 0.43294189068134475 -0.033955531009838294 1.4678273681591494
P 8.205682820687024 3.9202832290037386 12.207348071373048 0.6422188893767392 -0.1709469927669443 -0.2716439909683902
P 8.819983654400227 5.967457797921792 9.104328654684993 -1.0928713099639695 -1.699850402301808 0.25994110070916526
P 1.542829756147344 5.956253040352924 4.568952789099851 -0.4689064817014118 1.0479510524125113 0.4043149709732714
P 4.975902114162768 2.2765452936507615 11.218976406223177 -0.28630956340036495 0.3499150560661522 1.1612572547375355
P 8.174384197877986 0.2422730030732596 4.202415289668652 -0.7419710071664126 0.2207862848865746 -1.9410353054493923
P 0.2943545837129542 1.4969462739028283 10.52684452524722 -1.7074202442292656 1.9172099208950206 0.49823325568998705
Ni 4.557451105455407 2.5840785397242994 6.273031145150576 -1.4931884726317575 -1.6393965678911246 0.701888794433546
Ni 6.086499009793044 8.814241216146183 11.313436247447926 0.13300008120952578 0.09655032302292405 -0.21971927707464095
Ni 9.138049372588503 4.409314873096995 4.726796076432093 -0.005310613579636016 1.3260917068488387 -1.1219869963830031
Ni 1.7460653838506666 6.231946100334929 7.22763447217727 1.2646495403829576 0.48836356198475894 -0.2956706929002908
Ni 2.6735111797198168 2.8989509020054465 2.720150983100231 -1.4594931372618414 0.7030131378459763 -3.147753777843521
Ni 1.2946350386989376 2.721318145346988 4.801631718504767 -0.38425676677081566 0.07781469428663373 -1.1791091953172919
Ni 4.373842478093552 0.9225465156221623 13.020370882948916 -0.712451914661373 1.2068449706696636 -1.6493778474735528
Ni 0.6370959792572687 5.423046639544404 11.184182832782447 -0.4177618405067967 -1.3802869619443197 -0.959008366533516
Ni 6.773285287678851 6.998753021858403 8.38721483297945 1.0138528251772216 1.269328948136498 2.5159056901781445
Ni 2.3265838734937323 6.470065873269327 12.598416520041688 -0.0928816159220852 1.6052731438448549 -0.4679006661447167
Ni 7.712505416293286 6.616885546613398 3.8696872124717165 0.6278477082567316 0.219311500113261 0.9747985394882372
Ni 6.855052006037667 7.9000263715062715 13.591462436557372 -0.9259864030815408 0.35619677530980587 -1.976052702064842
Ni 7.5100821335137065 4.347800754043908 2.8591628078783953 -0.3598102036926771 0.8810214083350764 -0.8229353028256216
Ni 1.618284461075698 8.273518290468548 10.560120787767165 -0.8523628640581192 -2.3071166868627624 0.6371607581275414
Ni 1.9331101368669745 0.587709142812887 5.417794409433998 -1.0217430265585759 -0.19292426836898388 2.5044429409541835
Ni 2.7311223082197476 8.130722992551295 8.364119026440619 -1.5638662987632939 1.8188042898309127 0.9588294177534906
Ni 4.214230706525024 7.854927222291577 2.090295144692046 -0.7792291201869226 -0.7034083164018661 -0.49582824579292023
Ni 0.10301467362858018 4.718640880381551 7.298574593535168 -1.1053043935209996 -1.3767753492466352 0.23350167557071397
Ni 3.4524565886095653 1.3597533547700105 8.33517433645084 0.8228237169484217 1.5865557699410093 -1.9612601171366997
Ni 4.7255598181803276 3.392791254555342 0.10299506530283466 0.701756639731056 -0.8816929804808041 -1.9033727579016122
Ni 0.357983600757165 3.4352292738474306 9.655303933538141 0.6601888435915985 0.3355747281840802 -0.5973914486494034
Ni 3.2394634845233536 7.899195351986581 4.881072515938246 0.427553886896554 -1.6829898791010436 0.8085618077127688
Ni 7.35090921494996 5.391374524816404 13.602969722580601 -1.3193883266867343 -0.7379451738364711 0.9541155572175891
Ni 5.668963056287141 0.8011663106084096 4.680892052132034 -0.5710749222420617 0.9027701128660774 1.437536687595408
P 2.4811815160501927 6.7193157053888015 1.0921407924547553 0.042517304536920326 0.34780932257705904 0.3504781276584738
P 5.236132608699734 2.667666031188057 3.488376240185965 1.6940754474912438 1.586956604923854 0.56589286382049
P 4.91687171637078 8.265646948276418 9.298154153490062 0.6977454616891338 1.5404461200671407 -0.3128662308429708
P 5.859546645235617 2.9481677996267 8.723522830219638 0.7151466878847168 2.378953052078774 -1.9983266829716941
P 5.503954326489607 -0.07968076599141198 0.7080491728323297 0.8879093937041611 -0.34847806650930957 1.9073062886280636
P 5.113104370593559 8.232340806402956 5.999928251626575 -0.30432425481023073 0.6213171062270654 -1.9686425256437001
P 2.918064350958341 2.2208109620436156 0.3539937733328505 -1.2920767833559748 0.07964763373031444 0.33382766358598637
P 2.435185986229988 -0.10041983852158977 3.4951000284570832 0.8461425941800202 0.7772889657414161 -2.092611606999209
Ni 0.549873477692211 5.885775115244742 2.536834613164964 -0.024911675640015164 -2.2907336175190482 0.8372997990774096
Ni 3.3925298102120687 4.98182196107832 5.227357416063715 -0.4789088443297623 0.7344021936802191 0.02312527316355372
Ni 6.117312093107431 4.428727115585059 11.589354336311105 0.05753768920515252 -2.752394216291324 2.07844174325673
Ni 4.57860942266462 1.006542047007386 2.373429097429576 -1.6305270333156368 -0.4513039381283002 -0.8458312335871884
Ni 0.23607023602909363 1.0067941540526855 0.5077874745337443 0.6976906971917983 -0.06623907363389238 -0.870367785275972
Ni 2.5763939434916505 3.9708166856393343 8.650737658782068 0.0010004162400563416 1.1373588508533832 -1.7696962194503523
Ni 3.5101984392811336 0.5286311248012315 10.595037613541152 4.770922571021874 -0.9960777605819877 1.7962613715333902
Ni 6.185819848343087 8.734089850336877 3.073254911936154 1.1217797654682036 -2.06010257862791 -0.40720977602256314
Ni 8.439339365189824 3.489497649672649 0.7639730515883487 -1.5414354805636032 -2.206700710236845 -1.250869970100362
Ni 2.4602286193964087 9.062146477357393 0.494117670299725 0.04953975860134049 -0.19506265486822535 -0.4006382934526326
Ni 0.8874111970755835 1.9890125398376532 7.673571684930862 2.0702697489688986 0.09145825321199734 1.104369540411556
Ni 4.454152577968416 7.816485566532385 12.927496514920161 -0.652805920863966 1.2044453600892353 -0.4835394011232382
Ni 1.7126005079116466 0.7164350001428302 11.987638648854096 -0.45169063204375753 0.872309225273059 2.5666068160774382
Ni 8.213096635278426 7.241616142163623 1.3869977227987138 0.8661825435500308 -0.954165436618918 1.5272753870131375
Ni 3.158331702426773 4.3416568119769785 12.022350987802449 1.751974376690557 0.1343563381271041 -2.1178313007979463
Ni 5.08053587526005 5.851619279255642 0.2281867553495974 -0.3052138565040356 -0.661133466893055 1.0726899499200881
Ni 0.6585138733501603 8.160751742835862 4.455579317098852 -0.2844056615094328 -1.0533477979480506 -0.17180291300933637
Ni 6.018047278345232 6.296196047694413 6.5079099419581805 2.2947026294691253 -0.411646214527362 -4.203683477586135
Ni 7.58263293877213 2.4051665732433953 4.191741824354508 -0.6221807397789413 -0.45570823784358294 -0.8334256608339841
Ni 4.6996768281962416 4.273914715175195 2.144248853575539 0.6011660852004872 1.2450297092695009 1.4655449998828758
Ni 6.608986192527346 3.034593829674571 6.5244733748343595 2.0036840906288655 0.501048356541279 0.9156518539247521
Ni 5.047715272881239 4.748240114959312 9.681200929469188 -0.06969412206202837 -0.828992564763295 -1.687249682818662
Ni 0.5042915901722574 0.9466899669936812 3.03351443802877 1.2929931245226571 1.1869011805578848 0.33933085279240266
Ni 2.6649582147755804 4.663849615869785 0.44790178024733296 0.30164259421300954 -0.8607055795958596 2.9849823789088332
P 7.691599206129373 5.209997511670347 6.038302678840354 0.349578755772656 -0.7477212793866285 -0.3849669054639628
P 0.6228164494655435 3.6207707218899152 2.017017897651242 2.1250972383317404 0.37071116687589706 1.8635150024747258
P 0.5342176301791097 8.26562827368047 12.828594921049152 1.2906228245182674 1.1505079866408314 0.833045651786746
P 7.748360640513665 8.695125305891139 9.827536930778203 -0.340625146123794 -0.5880164351924067 1.0997865490265641
P 2.538073672606121 3.354517670159683 6.2902229781804095 0.08882004425820186 -0.3430355553374996 2.5673809752393013
P 0.06910347484640032 0.13256722171647026 6.709265971579325 0.8348806481129556 -0.01195588681029554 -0.4894197711634152
P 1.9198044872539435 0.7648404865701386 9.492909647173345 -2.2416772263120297 -0.997299548804231 -2.9356853324459182
P 6.012192792515498 6.425685695998634 2.6290124187648534 -0.4901221965470785 -0.7532555789412962 -0.8362795853430115
