# total energy = -340859.0151259261 ev
CRYSTAL
PRIMVEC
9.35196813136702 0.00000000000000 0.00000000000000
0.00000000000000 9.35196813136702 0.00000000000000
0.00000000000000 0.00000000000000 13.68755067168240
PRIMCOORD
 96 1
Ni 2.9734207619688173 1.9906037593431292 9.92044869837282 0.842545106636749 0.37908499276188906 0.9987195690802089
Ni 7.179982649325109 2.973392706065343 13.634428412454275 0.19522334881580572 1.0354308084583135 0.1331170664033643
Ni 1.3622918010455725 5.516884803200414 12.140282281852507 -1.220686504538446 -0.5621459951835481 1.082926797156748
Ni 6.530245332741332 7.355004727163002 3.7594227961348845 -0.27633239758299505 -0.09578953359749955 0.11386773125544908
Ni 6.0342824230978955 0.16834383761432595 10.869461142902828 -1.6674624728894056 -0.3340716612759924 0.7485409470744463
Ni 9.01242592881815 5.987092393454828 6.538228172476434 0.5854941829911852 -0.2904097016116676 -0.5038143493221904
Ni 1.7086325774628044 5.345986943173182 7.952302754563748 0.09223498347702179 0.043219987030899756 -1.0485040967025039
Ni 0.6586899553822922 2.584154453236548 3.8924246121431634 0.21498510482376523 -3.1241302248873097 -1.2374930345728237
Ni 2.811762646152317 6.608970197889042 9.936613574757684 0.9574423075979768 0.2304595463102805 0.30818708019974667
Ni 6.588863467066094 6.660462132731437 6.224139527495993 0.5569600801072343 0.12104342306828185 -0.7879081360181591
Ni 5.318669845157446 2.4452870830086635 5.864677005024027 0.6509704103171241 -1.8124834898192075 -0.6685451859760938
Ni 0.44892625227269384 3.517060003582202 6.073603707013321 1.318016643150188 -0.3516245825580912 0.9266762300597137
Ni 1.284258981516886 5.49943403123966 1.9018171120129042 1.7798297083399284 -1.2244182036667364 -1.4497879941589353
Ni 2.7460557202164884 9.282230200558635 5.366053460534484 0.1975990481368339 1.2027309485012898 0.2967140465631406
Ni 8.020518813466923 7.532897859123054 8.135428312521679 0.4681978856701614 1.7169184135276883 -1.666734850694762
Ni 0.3321332668980586 4.673281193612121 4.081079988675796 0.20605797753746447 2.4583124651447084 -0.5498682062574595
Ni 8.263698032810696 2.013366449028271 1.6288733846736916 0.1650972188543866 -0.5716390222756478 2.526877872918932
Ni 9.128661536910437 6.815667390748945 13.698911165801862 -0.735987535889468 0.2920114988811487 -1.1914872572666704
Ni 5.35982785555363 9.15074153294438 2.5989782574353644 0.2421135856094411 0.7061118313759581 -1.334029987859309
Ni 7.281011957734553 1.1791428631680798 4.930583754764646 0.2618108069280523 -1.7043179511548583 -0.1872696411863678
Ni 8.86778839444247 6.421659634329591 2.7466261902537905 -2.907062783613219 1.7479197470052092 1.0729966825272295
Ni 1.973919848743995 0.5182860568408215 8.034482236625875 -0.7664422528348994 -0.8983421590017109 0.21172957400094503
Ni 4.588533661185353 6.773639647345071 1.332373920777809 0.1440329419849197 0.661073817299713 0.6915573306005509
Ni 7.71631800406746 3.8516827643151763 9.8639880630252 -0.8377070618181572 -1.1259164133443964 -0.6162445768001644
P 4.782231618769024 7.548702684746673 10.848300445306043 -1.783391714659574 0.15963131064380898 1.7729373520954692
P 6.634342086597254 0.8434689412516174 0.6700862633733826 1.395733635516693 3.9331553453897423 2.8454807491353638
P 7.24613846971652 7.9899285267125695 12.88054571178189 3.7802518403880705 -3.3587984099622994 -1.5969273429833208
P 9.33400269443577 1.2253976960286843 11.421042075592887 2.066358072619319 -2.3660409720027964 -1.4847531973802108
P 8.382009777760052 7.5537433954041475 4.9025792871138005 0.6418535356175205 -0.25753866191525965 -0.11623366038446435
P 9.045718934273822 4.578555111516476 0.6019319274578492 -0.18664306334596242 -0.818661615150932 -1.2066235986874767
P 7.990340013296853 0.14684927476620355 6.925530567965532 -0.8295399526263327 -1.5692753855940071 0.9631285593494768
P 3.0889549724742573 4.379732275564908 9.382610482401049 -0.8626292789811338 0.20055401700009975 -2.255476079868335
Ni 0.47797907551667973 0.7760824018944861 5.9972963255482785 -0.7176635407692995 2.2687116047220024 -1.0968182104268596
Ni 7.602008901347046 2.189071220517361 11.568347726388932 -1.0711385462725682 0.40022511717461395 -1.100074769690944
Ni 5.831316665400018 8.76137235256604 7.468584376393094 1.1688180978039289 0.507536535368784 -1.2389683335667694
Ni 8.636869604916782 0.4686673211536987 13.253011210317217 -1.7600975200183235 -0.4732992114524688 0.5284357474152963
Ni 8.138035641151186 8.670527337117615 10.712684754290784 1.7597136543163436 -0.5097618251548769 0.645805835397049
Ni 5.087797815470884 6.317366489149351 7.9078313419673 -3.040924698602408 0.43808641099676165 -0.28980163571402345
Ni 6.355896596586814 7.4422959948380685 9.556579528661889 0.01765705096013088 -0.3346398750746366 0.10891115858112212
Ni 3.007555444528705 5.611760516781253 3.550577456265665 -0.31593767067944295 1.1781188063795645 1.4327024994315585
Ni 2.435243069565014 2.959710777137914 7.864305413317922 -2.025588861121757 -0.08159318749245947 -1.1850864959466492
Ni 0.8560838106502566 7.355145006680371 8.822816651567404 -0.4287890448552357 1.1076397265223956 0.7778486948996282
Ni 5.642360155503432 8.98219101684113 13.222077706343699 -4.911820566922237 -1.041776033950051 -0.6242581911332604
Ni 7.184219090749665 1.45785020827761 9.313214205158406 3.4041272158060862 0.03892135965554588 -1.0010137644310244
Ni 7.002912490533624 5.296131602700096 8.2937524518087 0.2298820765402557 -0.47715072398807495 -0.9526387155617465
Ni 6.019085475382877 3.730247462112396 2.006635837784887 2.0378823337771292 2.029975420225227 -1.4531905920825812
Ni 1.9088114487489427 0.7225031078336337 2.087884799048463 -0.5497807887499757 -0.12511013693848774 0.5249773565530508
Ni 0.1709268511274879 1.8380264042843417 9.218003691129445 0.6027524558510007 -0.832149879445354 -0.04894429110918667
Ni 8.491773824117697 6.148890788788698 9.986505387905288 0.5319887548738773 0.32128479392396925 0.7527567849280068
Ni 3.4057061226943697 8.371002511630465 3.254201438345067 -1.6548789797974404 -1.0379255498557094 -1.5606308225451315
Ni 0.7069722948672759 2.258285134387424 0.23804124822092268 0.9465400588631764 0.4416468746545104 -0.22752720315483396
Ni 1.0815176710467997 8.129759149626391 6.502311940045955 -0.014290191370427 -3.2223643633705605 1.3456827416068888
Ni 5.076341654885716 3.8383094503259603 10.083221568754015 2.315942255574192 -0.9766985847244276 1.8743743137867332
Ni 0.7354752224031736 3.97866378343796 9.847425728007785 0.9399582918806004 2.085489394132131 -1.4095620567593532
Ni 1.4511448473473525 9.168575735585945 13.481922132350956 0.6934473485344121 -1.3054802012460742 -0.039754139969486374
Ni 3.2571781697036455 4.619778585687431 11.313787162202587 0.24810682707839848 -0.5746914359487264 3.6677164547907997
P 0.7781360940287742 7.366002641324762 11.28353728707705 0.3840083982054354 0.5575144099488075 -0.7879960677462751
P 5.566665327930902 4.381583965194184 6.409523585683572 3.9221520523007034 3.6643336543614957 -1.3242515683163065
P 0.828353355656673 7.6824919364457855 1.5825409304801428 1.1258999582841644 1.963178417205335 1.3964985387071756
P 3.2094924857658738 5.32597373202848 0.31850838497435974 -1.0301122244588776 2.550172067560182 -2.935057469053932
P 2.3756055707473687 1.913496784629081 5.827570267089473 -0.5397262327274511 1.8129311188795874 -0.12461134292519829
P 7.646066021768864 3.0600386879605113 3.70227666154572 1.9123160831378294 -1.1300070384740024 -0.7525528964473168
P 6.769655709051781 5.643688134934529 2.432072752472466 -0.4133541983574043 1.2396869569003488 -0.19099619810833557
P 4.840110947635639 9.12634224888993 4.694323121217532 1.050277386552843 -0.257185392340899 1.0626150821825895
Ni 5.426741185338835 2.0530936083472864 12.38682259843245 -1.3335011119390323 -0.7979248968242129 -0.40470166488872883
Ni 3.6334732990631577 4.598811473824618 5.816100078552568 -1.2510106094432842 -0.710396317683925 0.35685754882225634
Ni 3.9903817991222175 1.2078440524218597 7.243315110630266 1.0735124458213834 -0.11083897173145427 0.14036140667060343
Ni 4.993006269600465 3.7781108334388365 4.035103844456366 -0.07268534347986837 1.863638672536784 0.5497555919389951
Ni 7.502831282566879 4.6250250396370465 4.985443333220689 -1.1133162080818826 1.0045235773564958 1.1738263496517978
Ni 6.031112106005347 1.9092416392688756 3.175772095380616 0.5529327041153961 -2.098983571963824 0.5153737720250157
Ni 4.640362266869435 3.5706093713460154 7.978131019301803 0.1354392867786377 -0.977163440175988 0.23864208212107288
Ni 3.838870568395438 1.631245043714017 3.8870042115920094 -1.3897673906309291 -0.08793507055008726 0.22480774734114187
Ni 7.0344099181669675 8.1984587052661 1.416647308435869 1.5587827135927992 -1.4290191370427001 -0.25388383877149173
Ni 3.5608552689049295 7.198443433810923 5.292838774829044 0.6211900937308978 -1.5621308041294257 1.2460280686270282
Ni 5.224514233099104 6.2854575749317245 12.723549551925965 -0.6631186156438837 1.3532307291574759 -1.6433591520832989
Ni 3.6315467936912844 0.3592838998865154 12.40294632615889 -0.7834531855705991 0.14689535113437927 -1.0240863299797718
Ni 8.373349855554446 4.631936143859446 11.858592594203703 2.167740269813247 0.2364659004053605 1.6825867301253539
Ni 2.1419934144881894 9.141398917087578 10.378543619900775 -1.4770509436399466 -0.821512968556798 1.0529860437332577
Ni 8.932962258212296 0.24500752905348724 3.3559957377225658 -0.14507012500018243 -0.5496524907022275 -0.021879059461278445
Ni 4.194002194567819 9.02681860730025 9.092338493879586 -0.7739506453968025 -1.7709925696642728 1.4684153794521355
Ni 7.866370327813598 2.1926717281298425 6.816947675144136 0.02036442258896493 2.2370623532478375 1.6566085608940373
Ni 4.745412921443468 1.9922497056802637 1.328111293843344 -1.7681167907783744 -1.4756748892280263 -1.8081141571069181
Ni 2.933515915261134 7.245380960322725 12.429158021577754 0.6156632503753977 0.6470613050707049 0.017874823397891797
Ni 7.016248396651542 5.437206037334593 0.11612806046230424 0.9454524822259524 0.4681240950094324 1.6078082515618826
Ni 3.8355132119463966 4.391871129801274 1.9598657114971458 -0.9558086286492958 -2.3287728316799567 0.7716230257048905
Ni 4.905368979115886 4.043014674039218 13.439203278524843 -1.2655861932646137 -0.5031882857024172 0.37598964166601695
Ni 1.0467938145139604 2.942493804372776 11.739113723669835 1.5344994155654021 0.6209252701052854 0.6851324009108136
Ni 1.1920485787660648 8.003685271382595 4.179945251730622 -0.8721536735318013 -1.1158942532217042 -1.3313622112191588
P 1.805715355450256 5.500434691796895 5.403297672396061 -1.442780966713483 1.263019203868386 0.49805019314490356
P 6.320433934595829 4.490712077739755 11.839909232883665 -1.1347964894428455 -0.6564954539004114 -0.44534592077265234
P 2.8760574249466266 7.675926855032897 7.964278884559965 -0.4892300237501123 0.03216887142306073 -1.2780460162945217
P 1.7355662447977298 2.9072181817382834 1.9490660590532665 0.9541726357077696 0.607004032038503 1.437966061823343
P 5.2692166393008195 1.431804977886024 9.263418717279398 -3.615677069696057 2.0970480455040077 -0.8158629693598723
P 3.0680065645470935 2.3884645265062305 12.803676277050586 -0.05237517116760658 0.7373365937181947 -0.5136799292623604
P 8.800697377268596 4.062120744304931 7.876883810042044 0.2778534622132118 -0.12999317606240193 0.9933076540360184
P 3.4626876626498215 9.069566452226619 0.8576287557348851 0.635556389754899 -0.8356077560869674 0.27997282254905975
