# total energy = -340872.7914086094 ev
CRYSTAL
PRIMVEC
9.28036284889293 0.00000000000000 0.00000000000000
0.00000000000000 9.28036284889293 0.00000000000000
0.00000000000000 0.00000000000000 13.58274910280605
PRIMCOORD
 96 1
Ni 4.9417281964339965 8.30766008000323 0.5416919890165569 -0.007901257124947682 -1.1100251960354366 -1.4322001058738432
Ni 2.2403723690285715 2.215519557611238 11.11567326030527 0.5346961265027115 2.0318081025585912 0.48524301407790627
Ni 6.8949568619286925 7.655900204783163 5.17509498199923 -0.057548744948746046 -1.161930112434844 1.0424005549079274
Ni 6.425853086154464 8.769933508800925 8.032864827131007 0.37074844787173566 -0.540553870835069 -0.7653384782477594
Ni 3.6741976926990216 1.504003426709239 12.678722066910566 -0.16292720778626132 0.040847115923349005 1.0416197108778449
Ni 6.244060060443431 1.5483357195175298 9.526070551792424 -1.1176184350016622 -0.9868791248018551 -0.8374134418371385
Ni 5.014959538814198 3.295790901981404 5.697922777674483 0.3189733721819732 -1.640272028517543 0.6902632943794758
Ni 6.587220033475076 4.045217314675714 8.775610306688893 0.7963066444944995 -0.12418993911706352 0.4968350897908798
Ni 6.984141147858706 0.525868970545103 5.760633900852785 -1.1741438808922164 1.8574592831989494 -0.06971983309364121
Ni 1.8252339025866051 7.931183604735503 5.34741925360679 -0.692265155300853 -0.031648480143216466 0.766621201614925
Ni 8.529052413525228 5.3660263809002 8.255214894087757 1.3180621516761428 -0.27973628105822146 -0.058548904078486265
Ni 0.5670088185708834 1.3491420136692664 10.062453245285509 -1.8094341614699223 -0.8917303101121481 -2.146135032838646
Ni 0.5750651014653522 0.9398223346651896 12.359622362318271 -0.0665252374157435 0.024715757579125176 0.9226892203875077
Ni 4.451520875789337 8.351546915400009 5.77933754391869 1.7427412881280633 0.2772675078027548 -0.7679352924406581
Ni 2.1065866597708114 4.725709192938375 10.072328479276988 0.12020781454086395 -0.44892181104936885 0.5240849266457684
Ni 0.9461701027792511 7.051507300987319 12.036298236606793 1.2431458619832267 0.3358621775175119 -1.290439761973184
Ni 6.480124647457141 6.567378617937264 9.457315128361653 0.4456961050232195 -0.35191486010500034 0.2539681709551819
Ni 1.8340131257385086 1.1759054824043795 2.797108754082709 0.07583803017623714 -0.18972530181571198 0.24230281880211174
Ni 4.298506254934596 3.5916210250397853 8.56291831323551 -0.09277722913373698 0.5504402767108456 0.8877906087381097
Ni 9.130939619381312 2.440345625346983 3.332146723014789 -0.17700888269030804 -1.7424039593933023 0.6885432263645755
Ni 3.836975255156091 5.098102308600566 5.54256300915538 -2.0750895389550457 2.049530973759651 0.3035639796054385
Ni 0.2878230260864335 6.5206427111793515 1.7166824276547867 0.2986048358279503 -0.7834837816982184 0.11002650313248794
Ni 6.812287390642057 4.797279350388143 5.845607686207725 0.5738722824815408 0.5492619401320282 0.2473334392474837
Ni 8.436517916646126 4.014517874732271 1.6408368070907677 -0.36952331721538295 0.3273533687155523 -0.5522248794150941
P 2.879798642167371 8.641734577912557 12.43515616269423 -0.3994478726889572 0.703168432476918 0.3495761846694947
P 0.6678102625786483 8.93815864418629 8.529409707490712 -0.41503467138362066 0.28384181858616275 0.38155916533399453
P 3.666624916703299 6.061450362811289 9.271951019068323 0.09188325656455788 0.008768490221249415 -0.8765091222870196
P 6.362607414082348 4.637091009135492 2.0416361850633833 -0.1448281841927054 -1.8418223479926408 -2.1447641206330483
P 6.842300083742751 4.97239051492648 11.221700476571847 0.6937075441743343 -0.020663956107254734 -0.9536023650265965
P 5.146935577337687 6.516123174525042 4.307863644685193 -1.1396890416484566 0.15520232833817788 0.6511982100572139
P 6.788177008243912 2.7628939127334085 6.993812213869909 -0.20691286933859204 0.4036786229408531 -0.56455331907346
P 1.9692465715836864 7.966458263509694 2.351064823644475 -0.17735983827182358 -0.5463424524923881 -0.6215613610273877
Ni 5.123391297066672 5.813070734441792 7.517236736869335 0.44393567068868706 -0.36869902154187467 0.5812040402562635
Ni 2.3270323962933444 8.992792139635819 10.38744783629016 -0.52241653780441 -0.1547349017834561 -0.5102259092754889
Ni 2.1751406993301257 2.9452901620225327 4.47425219628434 0.26327273618555946 0.5857705765810234 1.3274932151820558
Ni 8.752514267938215 8.626653988460292 6.562151917642177 1.160886244551362 -0.3927401216514784 0.6118181655976948
Ni 2.3780836717252907 6.929043634272182 0.25721546173411536 0.7620312682513973 -0.12272749563892411 0.7143851271283439
Ni 7.962551230796215 2.5073220032405215 10.716978668602053 -0.9184574416943472 -0.1766111330312571 -0.7225933739707491
Ni 1.4295934782610757 6.82174408027397 8.955010854885593 -0.06294369071207224 0.6321450500805048 0.1665797169371841
Ni 4.654092633674908 4.7949128578894795 11.280241932771132 0.7965979504826732 -0.010899420521323165 -2.3717704182874058
Ni 7.511507040913747 0.18373633366875966 12.322011836242458 -1.1419302722741496 1.0760696650255983 -0.2702828489548055
Ni 3.4692223208638278 8.75922397019913 3.6971155484850953 -0.9597226189917214 -0.13337494805044126 -0.32203684159864543
Ni 2.5937036196230987 1.7803819094648823 8.778095587830627 0.6997064420702466 -0.44336540000751384 -0.23967926513633558
Ni 4.328815919642965 0.8664406504086024 1.7753064790824553 -0.4363637718787001 0.9881705899197689 -0.7782101920041049
Ni 7.101082998743627 6.129837355841286 3.2796774081561924 1.284467089329517 0.5797235990559952 0.32065255965660905
Ni 5.0264393475234 1.3780410632411773 7.053250153109863 1.3014194009131395 1.0066079706893503 -0.03349273244080683
Ni 3.48648379555996 6.948634480016018 11.325296237800583 0.1178835372830615 -1.0493407336711862 0.18492505221359118
Ni 0.18685267947680323 3.715532428342339 11.801737996393214 2.2942670845936037 1.008952559662127 1.4936620698340664
Ni 1.3169669960501866 4.1026813207609 2.5584735065900586 0.4249604151377649 0.7591380058640024 -0.40641530514572594
Ni 8.959577721389875 8.155063075471782 13.555936290423867 -0.0626644689087566 0.3406629413402649 0.834965237406962
Ni 1.9188634822690096 2.705420626285482 0.28343805469185174 -0.1916135199773603 -0.6861934951854762 0.8816680407801396
Ni 4.100259146085798 6.799536172237495 2.2191361149709596 0.22656972433757108 0.06500391567521063 0.2271219972966153
Ni 8.817365442764327 8.216861010956482 10.469867665819093 0.21369055438205775 0.9480405546681028 -0.5234915160361436
Ni 3.2089267067363543 6.96839237228917 6.986341521864325 -1.590587259697906 -0.30909159429188704 1.9865728848698754
Ni 3.218977339583618 4.849138017378456 1.3613985887397941 -0.04641689670164264 -0.02840117685051238 0.2846236910575098
Ni 8.872193825831394 6.23897442166199 5.537646272975804 -0.19873933238886415 -0.6554065917116069 0.41160276288393627
P 6.665518453911239 8.648917578673204 10.237466966015077 0.37494551667221876 0.2553455109186828 0.2829434751416095
P 9.086839335641518 4.4624253020086675 4.131763193478786 -0.8558369386496486 -0.052516838951793425 -0.18916505843686776
P 0.8730362042078179 0.5186377118982073 4.729621793869498 -1.0284178674755902 0.9407481347717477 0.15531005756063576
P 1.4843661791517044 5.579799536612778 6.154968578140815 1.9610148338951132 0.5488454214198999 0.493810186921627
P 5.628939057320314 1.0261018670576283 13.530741033621434 0.6803977144393055 0.5323782770028123 0.5034153141115588
P 7.1929121880545 6.610699351206911 7.287959807163554 -0.577573642592528 1.349903978777088 -1.2354333238303177
P 8.10819724363551 2.4116693044808284 12.955185000967141 0.4057295919326109 -1.3009599447782176 0.6740437471968198
P 3.2779262037071817 2.9346734270481383 2.547213642477791 0.11032372265793258 0.11597012231043252 -0.891877891433606
Ni 2.87022130781984 0.9408338942038339 5.659387927469781 2.3664919434972855 -0.3097503109218085 -1.0955203175510424
Ni 0.7945438241903922 3.7362647587031765 7.312462748905595 0.8542546817641933 0.40743166222538224 0.31088108209214205
Ni 5.036313653478606 9.252243240753966 11.584033679024033 0.3400954988725691 0.003639396524800184 0.06546517158234531
Ni 6.865324663700333 4.265644490472767 13.300227959598706 -0.6094838610375632 -1.3783246960116262 0.3102141379321045
Ni 6.654957401113283 6.483270690425952 0.6107861456873308 -0.9092158684914212 0.6764747252358156 2.4055778537551538
Ni 8.626551904470153 2.311162976008191 5.783140636569482 -0.32182626824973604 0.8700908774655015 -1.508867316819595
Ni 2.801546623544908 4.503722916201026 12.506316128110896 -0.8089796119764777 -0.12269587107004032 -0.07263443563727491
Ni 8.971577230412509 1.0161718789259828 1.3285099112260192 -0.18181273183685462 0.07618461488237847 -0.762690499101951
Ni 6.959167691725754 3.1555831817076636 3.9402471317252052 -0.021899371176252607 1.0678735023680512 0.5243134977168067
Ni 8.41323348653183 5.919804186312872 12.88914593971033 1.4831233750862716 -0.7091896989703335 0.33443804347647565
Ni 2.203984066725597 0.188089751830026 0.7052546701614182 -0.5790674535292349 -0.5323286547117994 -0.3389467299801066
Ni 9.119636137564168 7.823939732913731 3.8598504212735616 0.2754736491271256 1.0587566276684475 -0.6940410162543531
Ni 1.1481664781749508 1.3836742434242697 6.880477639981969 -1.3268905486010503 -0.8449963963907189 1.413504586346869
Ni 4.510349095197283 8.223644956119315 9.495672723638027 -0.31066433809564564 -0.40623327104190676 -1.551244239123909
Ni 8.281860671586431 1.6349493449686032 7.986683886064936 0.21029361288536685 -0.6976924969640114 1.5093745954733166
Ni 4.690712945046379 3.368688151302971 0.3626849282000278 0.43545154447707585 -0.5573105214681175 0.131878823120889
Ni 4.608396127543858 1.6616767896593878 3.8436329873856634 -1.0302423222788388 0.9407375932487864 1.8842185535706648
Ni 4.926378476462275 4.3706981966879335 3.6305196654638907 -0.7149086037319816 0.3172659025725633 -1.6989201771780544
Ni 6.162244382528862 6.989857851306456 11.96080526982689 0.011952030155553609 0.43773854073903967 -0.7091645021593529
Ni 8.826599403690484 5.833803064802629 10.628174877544375 -0.3139931453585625 -0.9892643372045802 -1.3801913169067197
Ni 5.709195634294586 2.698413952416891 11.619308337798227 1.4647214755403162 -0.21949687665118972 1.6780353633092455
Ni 5.6759997767741215 8.341635487993843 3.210744729797092 1.4646867656476388 0.9196854005641774 -1.2345450076880933
Ni 2.2980127020058156 6.264365494118235 3.767868105977481 -0.2636851411326297 -0.872657095530781 -0.09244041461960854
Ni 6.6397004847689605 2.074123950906796 1.7564395016323286 0.04123689516259995 0.47431813963528635 -1.068642776433908
P 7.959321664562745 8.116456766473982 1.9495044559271912 -0.4521079220868343 0.04597800939201114 -0.1008972871377101
P 6.57409760056092 1.0789349721356272 3.6868059935173894 1.4540634816058378 -1.178123948585887 -0.15640251929386612
P 1.0864149445039508 4.699993307786235 0.15112142685581068 -1.3829151435957863 1.5691743412397687 1.155609569533455
P 3.6516278505156925 0.05810991933188063 7.64184509541365 -1.4004171570352915 -2.8385986773035503 0.9908213972790548
P 4.544723558785709 5.84144080333753 13.134396229763949 -0.378728894974051 0.6156707065745655 1.8852991882293533
P 3.1308417346432083 2.930998403403155 6.913089762686096 -1.2160058112333252 -0.18425836516386976 -1.472600878288393
P 4.25126920858873 2.1022712910967787 10.336608153128683 -1.2226323154109071 -0.08527860676384667 -0.7702428575279121
P 0.20247988229444627 3.7197457130262332 9.559715578869497 -0.22323371798580263 -0.3101956259893432 -0.538434510499221
