# total energy = -340863.3108046446 ev
CRYSTAL
PRIMVEC
9.31540261148162 0.00000000000000 0.00000000000000
0.00000000000000 9.31540261148162 0.00000000000000
0.00000000000000 0.00000000000000 13.63403333723001
PRIMCOORD
 96 1
Ni 1.1318959558748174 3.035405351334048 12.752675494870706 0.3522529601707095 -0.31861213218781254 0.7741249661911378
Ni 0.8863363504625504 7.704369042186183 6.549844109980498 -0.017335148844337886 -0.9112426691134629 -0.9751512948419656
Ni 4.3966930996292595 9.125610722502417 8.77990867457735 -0.853886242681181 -2.593646079583417 0.8428497823613613
Ni 1.685473078976316 6.999547040232399 8.877296552500558 -0.29902701096703344 0.10544274041654744 -0.3245675784402991
Ni 3.186966953879421 4.617840760626628 11.629353435675839 -0.06506819325424278 0.44276556163998587 2.32554763987444
Ni 7.93247530902875 4.443987399329497 9.493105223592492 -0.9054630863172083 0.07283652434575198 -2.5247569699211874
Ni 5.627639732815999 4.283082447838026 2.7036288989618424 -0.6937419969566955 0.19503797227787703 -0.026864942711644055
Ni 2.513901159859084 1.1943743620378056 13.58954612525482 -0.5911241275834529 0.8084299101205947 -0.21831134098352079
Ni 6.9374691963871395 6.95502873054805 0.7074750286535336 -3.3230443922911412 1.4853473793207839 -0.204699406627041
Ni 5.3984249330476235 1.5147310621936387 7.556254138653826 1.0156001468856315 1.5327171268539992 -0.15546586641220966
Ni 0.0744617402450025 2.2107686393655985 2.8840347145448004 1.4553230650445517 0.878389627139184 2.147493089528437
Ni 6.609706751054689 5.377986939440706 5.17569737974591 1.0680989881152958 -1.1725060881784775 0.18675850587790416
Ni 9.167707027474917 4.275909587729855 11.247409813399033 1.0579269326783007 2.1127155768379358 2.184071145762787
Ni 3.8634608161073003 4.351420242323144 5.300462294775486 1.0176050931308023 1.7757133721787097 1.5846055881931742
Ni 0.6741286814727301 0.3616956628857412 1.2849079666264795 1.0726750375217526 -0.7203133196873207 0.7502155065633919
Ni 0.7017805229598651 4.589298366637751 8.048483745484717 -0.2717332082480869 1.5136089452696386 3.230906596513616
Ni 2.296377190526753 8.66717180756293 10.411207097391227 0.6002029499562695 -0.005301614718571514 -1.3926634812318015
Ni 7.326415206902013 1.5249780052053112 5.946142667826993 -0.21447191263277254 -1.3763796564701134 0.4644798133886259
Ni 8.673496966021952 2.226604824020001 10.553396473242014 0.024078381105442404 -1.5386049530933439 -0.486112304056737
Ni 3.131363314936991 8.653990512688823 12.668566723550352 1.041270812178858 -1.0370624305244656 -0.7962760483668803
Ni 2.1341680826519775 0.9233082523889387 3.77807210845076 -0.02794660581159703 0.26591068802903883 0.25600139933512683
Ni 7.301030734441278 1.4175062038183428 3.567576610484162 -0.14697171289826946 -0.16751097050220184 -0.44471162962276317
Ni 3.736594346220057 6.562608074811946 1.3959615403661645 1.1621345151361664 1.1195187373481685 0.7741054258071121
Ni 6.051043418058305 5.087448843448839 10.674466899545745 -0.5552886059420824 -1.489670689286486 0.2512158050210254
P 5.30145159054625 6.5372329177539505 3.435871720414862 0.4405171319254413 -1.3586315884580729 -1.7819619241915827
P 8.124065197138812 5.638697115865867 7.416887329832616 0.22363738118212453 -3.029415669521544 0.8307319160519048
P 9.077543244374937 6.462774903670043 12.093619135027874 -2.573394785533549 -0.08224753324700673 1.473702595993004
P 1.4807577884085754 1.1616772984278325 10.05612257582856 -1.4770655989279657 -1.6072413233148188 -1.4491994686453171
P 0.5025007698896802 4.064440630177149 1.538709840381226 -0.19076505593413598 -0.21962054671324757 -0.4329454902257705
P 5.982668361962236 8.911058366643472 10.981355390423147 -0.6608671006055457 -0.05048926699880337 0.1789590644381434
P 3.817340257152036 6.81670431529321 8.66071995962667 1.0299127068535616 1.2443601940063023 -0.42419731171949526
P 0.053817876237577625 1.005513886929944 12.71597187654317 0.045379713686379906 -0.12660729030930454 0.5054251454527361
Ni 6.66032664953235 9.130156639038505 8.916603825893334 1.5902743564431772 0.35234294878135447 0.19608518259546875
Ni 8.970341589667365 9.060719627030316 10.616522299895287 0.5671570752448942 -0.2571360271602023 0.12046081109193447
Ni 8.658834522112523 2.214513431266228 0.9210678980304775 -1.7464051101328952 1.562745040674657 -3.3645520246166254
Ni 6.294492153210167 1.4342832441492719 12.238099168411907 -0.6319149363475698 -0.31811128129199406 0.23355592584741713
Ni 4.7995749526400076 3.5364622337993556 0.574416610566419 0.19957519802659823 0.18320087043363287 -1.0810712320052478
Ni 1.984683814917152 5.346100315868929 0.5331642810819732 -1.232687128543748 -1.350795894463738 -1.0270847504864635
Ni 8.18210015619583 8.367905179205664 12.959598535887325 1.2136931039397485 0.7090714282249143 -0.6005189385347915
Ni 1.4605806260783185 6.843886660482356 2.6870092889371833 -0.331447593389584 0.7164147559638628 0.37510903883327656
Ni 5.118077887651003 7.089123952959892 5.392873884556119 -0.24495902547803616 2.7322442237060107 0.47127189660979485
Ni 6.877319640908622 6.964968265269373 11.4842054879155 2.07057185359035 1.115042703854686 0.32856821495926
Ni 8.753404490707522 7.003263885924814 4.486551337519437 0.9192151457959782 -1.153728293350342 2.3675694928321804
Ni 5.886803552386671 2.9817300007583594 4.739680639196509 -0.8758612042903754 0.4836566434273929 0.809464007812064
Ni 7.121029207337145 7.272162301356576 6.872439301414244 -2.7545362023349913 0.6432601861570599 -1.6237925428052808
Ni 1.9827089495367207 3.1072736834568233 7.070527614474255 -0.19018938593632406 0.33497797514034566 -1.5537382091903564
Ni 4.600812204421776 6.870044311370334 11.036668388800155 -1.9603563743755077 1.5214011876205475 -0.582756472345048
Ni 3.9170989050720366 4.809942995887273 9.537919763083904 0.2860318842589461 0.22682657754338356 -1.6005569693161081
Ni 1.3262432031952924 7.569407487319719 0.24276032688953258 -0.39053102981530163 0.446073028746664 0.09638242998649207
Ni 3.795197544844086 0.9792258204036353 10.914425153291724 0.998999562214473 -0.002742338631827535 -0.5696117074329738
Ni 3.3032511262564284 1.730214958326373 8.317578715914246 -1.5823041937535074 -0.3568714327793273 1.4004202423590848
Ni 8.990677113844168 2.105681581079528 7.3944176468885665 0.2142726521377729 0.47415770279802216 1.6467440093951318
Ni 0.3047850729391861 4.924159148856469 3.581824518971756 -0.715445192961742 -0.4516687776668866 -0.47379157770785496
Ni 1.8172580815091617 3.5902680000133738 4.5553893691315785 1.5710306777222167 0.09220413023908637 -0.7931475300402275
Ni 2.2164696658411835 2.75799265779986 1.7470516172348247 -0.16198104182290812 -0.3710675217740513 0.1959499425691851
Ni 9.068311680261692 9.188852991689913 4.259026351807714 0.44735189545908766 1.6057629389970798 -0.1694236141438824
P 5.1284831925092185 0.19218141618391724 5.956641126712588 0.42058388333662405 -0.7498447534875344 -1.215268161736352
P 3.384006352591145 6.528019984446183 12.968679190476216 0.11031189558339066 0.004215323632928224 -0.6769503793206535
P 7.183246782223472 1.9696487548982071 8.789957199510704 0.906733982609832 0.9266895997961525 -0.557973094752781
P 6.460650991845805 2.12724673841773 1.7822135364092417 -0.654801096917124 0.15865223455999128 -1.148703586442241
P 1.7643931709716696 6.634765184419597 5.007630746629553 0.3389241042722873 -0.6605467411516495 -2.549538033520609
P 8.37946559400338 8.786623216870815 6.450888449776503 0.49145582775683755 2.324231235055862 -0.8466043643077871
P 7.036147257589545 4.740151998575046 0.9014151928743634 -1.6754719734574435 0.03532335789164239 0.07270385542262964
P 7.9517116156824805 3.3262415402135264 4.565151911200882 0.6225188398446504 0.7326157912037577 -0.060419638738637885
Ni 2.846908176932964 4.801642972047818 2.593588841040039 0.8208894760401863 -0.542465228925169 1.7957507504455588
Ni 7.561955165129411 0.18412825051701648 1.2830821476898542 -1.2886325335611162 -0.3742569752456264 0.8559706360140356
Ni 6.662366722731948 8.459289280064308 3.765651881980339 -0.06498411818086873 -0.32288222031807623 2.242595624361241
Ni 0.005445784440567026 4.377158700087917 6.023243461667638 -1.172937005068309 0.11156993636020786 -1.9814782439557874
Ni 3.5905847237064625 1.9329833297218955 5.626207023874912 -0.42826119737622376 -1.1267306817155758 2.0752386629384
Ni 4.825341356612996 0.9719784370735615 3.882018029901439 0.3957290290764733 -1.436892883363822 -0.7338272950133555
Ni 8.32465376429367 7.253335872423312 8.870833526081014 1.704531352717245 0.09747283483719342 0.7494272063341416
Ni 0.39517242570487515 2.047600045008821 5.128087287892859 -1.4332234049320347 -0.5742499775359337 0.867960718496376
Ni 8.764433927549176 6.0841317285832694 0.9480807028897936 4.694721758189578 -1.7887858890919517 0.05598962799174229
Ni 7.453896493369957 5.862322673991511 3.0161886070260664 -1.3801735762949068 -0.8048938719428784 -1.083632822084837
Ni 4.214353406437917 1.5407117204295975 1.5520029200881869 1.3546610338460991 -1.2028217084428834 0.31612536121021684
Ni 6.092264075173442 6.8258147791708605 8.983519158380377 -1.3979255009616893 -0.5831611639826344 0.9914909125422535
Ni 5.117528278889467 5.745749724129631 7.049545601347444 -1.1145328540978032 -1.6527205386935404 2.218196112470954
Ni 3.564482965234911 7.816489229539355 3.717277927102781 -0.919124900075017 -0.22996409473110072 0.7699394673548805
Ni 2.5694209601768727 5.975579340478706 6.8712664922095446 0.575344496151693 -0.8349215286532201 -0.09898592904761017
Ni 0.6676358457644249 9.069373636173811 8.201620582633065 -0.35930163948737476 2.5954602499740203 2.159351274418604
Ni 3.282906286676889 8.471203680166061 6.303490832254964 -0.6785863722621797 0.4411910180640144 0.17582000458852945
Ni 5.5175130416487335 2.824439425529187 10.011893043629087 -0.6491161307172046 -0.643194623026447 -0.5717182122530154
Ni 6.570973306470567 3.884150325588141 7.329275035542543 0.46376864625421416 -0.9592513357822576 0.19867582614078041
Ni 5.561630789015352 8.485623923604306 13.197730970696677 -0.0804773287204614 0.17931927599103958 -0.8590711293162302
Ni 5.408737083878461 8.243814699334312 1.9540296191275972 -1.5995197863008452 0.9250104123215165 -0.5533530794822663
Ni 1.6704939113737984 6.958820099462369 11.601376486633152 0.7868544979426643 -1.5414799606482934 -0.5234377799800727
Ni 2.089705665384057 2.9965880681252846 10.359711551056204 0.3569506227566949 2.1954325935221934 -0.06284213213720144
Ni 5.322746601205053 5.655129486295494 13.0282185870754 0.777978535609273 -0.4618955976012174 0.3341817044912954
P 4.003098703148183 3.6891975770897028 7.633735932466451 0.924069388564486 0.22968641558968184 -0.9115612287951462
P 1.5191745092996096 0.9462492947115257 6.490345701153358 1.5525526735226876 -0.6742262955212711 0.7681119272278384
P 3.021916648169592 9.140189327787207 2.1992240607525386 -0.5359248567034899 -0.0960093629177895 -1.9175652473519105
P 3.964709928465362 2.4612505035845627 12.324566599705497 -0.23028471129531308 1.4914231532012185 1.4569495449043812
P 1.3080874832591565 5.3488669904820805 10.057567394793208 0.7037037361550977 -1.800927666660808 0.5804221677849166
P 3.806655490211683 2.911994895862559 3.7360112020086658 -0.42231372154353725 0.33376724266169616 -2.3518250855137306
P 8.267429245274847 7.793452238568569 2.5638531439604395 1.4586372170194493 0.8610099982101558 -1.8165679443012264
P 6.990091906453447 3.370825057717039 11.580802488146261 0.625695180690103 0.7341011175000324 -0.08842332304041546
