# total energy = -340884.7634402134 ev
CRYSTAL
PRIMVEC
9.10258007224194 0.00000000000000 0.00000000000000
0.00000000000000 9.10258007224194 0.00000000000000
0.00000000000000 0.00000000000000 13.32254603862451
PRIMCOORD
 96 1
Ni 6.593499216931981 1.8844251801788843 11.713848746598341 1.077280654614564 0.7685150762035281 0.4656946596323335
Ni 4.783897243003045 0.6815929857798615 6.253309410988105 -0.03643381734700177 -1.0400711354438024 -0.3586236395837437
Ni 2.4787417202354947 2.4089249328952147 4.770656630373948 1.8530706672129504 -1.3388708608913782 -0.5204928384191359
Ni 3.6683123660717984 4.795057005881687 5.237185693148257 0.044632036887077974 -0.4484842092913179 -0.23273754371117983
Ni 4.189862882921343 2.8445015831960054 2.5901563871672146 -1.6574883923958295 0.18088096405120463 0.4067757738089382
Ni 5.123259624439852 5.112017938342688 2.8189570134029123 -0.12921541735611294 -1.2935284282008368 0.5775700430481021
Ni 5.467309834492075 3.4745093387886308 0.4107074919315105 0.5713130063947968 -1.399408256154803 0.15333082234707787
Ni 5.77940998932078 8.036549403454696 12.971283676400153 -1.2321222571792136 -0.31585899492270764 -0.24363773556345136
Ni 2.6031830891701704 5.784962563020594 11.435447252579603 -0.25410392520209785 -1.3535022376513077 -0.30493592025230065
Ni 1.0610695262948793 7.686445977811692 11.526773436071784 -0.11096572711730567 -0.2283458424013874 0.9364495073963937
Ni 0.6364933437256046 0.8307460384526586 4.851645013946656 0.7485478890529818 -1.0595667822745687 0.6171246654122726
Ni 8.61977900127135 2.5759663754612476 1.2149522794503373 -0.3141075594492397 0.6911953192754418 0.42275955083170413
Ni 1.1604423903618717 1.4922860408543408 2.6154424436929724 1.4322854664987978 -0.2742644593103728 -0.26484136622425997
Ni 2.264303144464659 6.530518467048357 0.487246534480499 -1.3203774300728808 0.9872195388604095 -1.1124741717965616
Ni 7.628535364896587 4.244560285154425 4.075499890380821 -0.8857830913897777 0.1768394469919793 -0.641490752961463
Ni 7.77756280196765 4.22018357635426 12.825747988954086 0.3388870803867648 0.21620946414916958 -0.7568795488471288
Ni 8.194961600336429 0.09802659250928371 7.131465326257335 -0.6366064282859681 0.12850759265581094 -0.06675535114867859
Ni 6.884272027205501 0.7965831460710676 0.6504521499037426 0.2823112408742493 0.506958551378127 -0.25493104908908354
Ni 1.7255669568851995 6.945077260508378 9.295992362368278 1.1121121604714523 -0.3952559460947967 1.0562230626133164
Ni 0.42557928686717533 5.184474473835338 1.532092532734103 -1.1125397349271744 -0.7115903379920261 -0.8593382669346877
Ni 6.137824070353832 2.440347038488259 7.180692078009126 1.3281426758405965 -1.8557057908429526 1.4659147245174688
Ni 3.320175097673319 4.369265628904338 0.36712707045184206 1.1081215512548206 0.22396416839392394 -0.6673557936536829
Ni 6.052004947662287 5.919908309085737 5.049790882069464 0.047890653033691714 -0.05303260224594738 0.8742573501383653
Ni 5.740687614699456 3.1678252189622027 9.487997630133883 -0.49089095639230296 -0.4093342785647337 0.01638332645402985
P 0.27121591749638896 5.915384326907364 12.68388974376167 0.21097315545089473 0.9770451694305688 2.1659155578996825
P 4.301023587875645 6.18654107763482 12.70104901701006 0.13580695453070157 1.297779747278023 0.9863582193013787
P 2.179357869437346 -0.46153174644447686 1.2163285895215044 1.3032335713037426 -0.4800164755716443 2.4951993108687285
P 6.5041209855246525 8.139872787170408 6.105988707636246 -0.7314140575861726 -0.06699600640457494 0.011278658237612834
P 4.796959445067361 1.467536126280909 12.94847534210569 0.8943212107677759 -1.440731540383622 1.2341220612180617
P 4.167051817852928 6.3277311934672955 8.57171282844862 0.03365908281534203 0.6463012869762288 -0.5460331487820853
P 4.536525533386429 1.3028704570520095 4.205621269133011 0.3264655667939604 0.9850477280200712 -1.4294215146874414
P 0.15859515873643118 5.825277889113174 3.58224565320872 0.104068228666524 2.3968533293979624 0.4532901153203935
Ni 0.8594100623554671 8.050849556376674 3.169473696170459 0.029471269986239564 -2.0170952218284484 -0.8851773394849788
Ni 2.092218872669615 6.659219843346169 5.004880573675791 0.6498656072887194 1.6663674400530142 -0.6880320910561118
Ni 6.140345484968337 6.187478643357903 9.439489982189118 -0.19114455076074177 -0.046933688437061104 -0.44186516131290354
Ni 9.223097992785526 3.1275189954494573 10.495848013161007 -0.19758799239324037 -3.1588023223481985 -0.36870107842440375
Ni 2.4584429672017496 5.650280791770688 7.310706956577238 -0.002208063394912326 0.07926968156560542 -0.1817893347980869
Ni 0.5256193700361291 0.3304564173254991 9.833371355294226 -0.7454525379571098 0.29612423549794165 -1.1232959450024138
Ni 1.848287938230917 1.1930751390730716 11.719709897754587 -0.8535494281670526 1.4433705206683658 -0.343682444892879
Ni 4.120373788455151 7.052269240654288 1.7940538573114746 0.6364717024803167 1.3095939663041316 0.004957086894959204
Ni 5.7812760181871115 8.430135852973125 8.270422897432862 0.17636327868650917 -0.24989580065802125 0.14930524612745255
Ni 7.4179926932954565 1.3334824330396704 5.14809783403769 -3.2937631268285212 -2.5773972218247225 -0.5203781672181425
Ni 0.7758975333943029 7.565263332458218 7.179186511304291 -0.1547395297691464 0.06800696416759254 -0.21615881341689225
Ni 5.130159379955358 4.523745511297022 7.36552906415407 0.3035439250007805 2.4871072778892134 0.015455672433437897
Ni 8.04660775417321 7.620388555943582 9.085296767425906 0.6178689997774649 1.066515702788576 1.7679812936417747
Ni 4.684497071196545 0.7135475922932971 10.742941183834647 -0.5473343840920122 0.41674136966208225 -0.8961109556783471
Ni 8.375402040420699 7.856045245311574 5.118228628564627 0.3305975866844629 -0.6447030892511736 -0.9319117674270403
Ni 7.652429636965457 6.434986891672056 7.160348722334185 -1.6825317085177023 -1.261543390653808 -0.598870347187775
Ni 2.5614113503038674 5.294806844024586 2.5270873422591835 0.4819152352562539 -0.1561613498173375 1.5265755327326354
Ni 3.5386461163113965 4.376556795352782 9.23521534706289 0.18944453735049954 0.16016018656408545 0.13114811560245154
Ni 0.8543699639004069 3.8400962527322626 3.8204128340954147 1.0464240742450237 -0.5721738117331953 -0.7252410960062412
Ni 0.5329132672585237 0.35764764381088154 0.29555439546124423 -0.7289416847862801 0.1379844217979946 0.7164651495858242
Ni 1.336012950234012 3.6204965141945507 8.259218531913026 -0.3582888819521442 1.2779974224447732 0.51309088952811
Ni 5.545582918499775 3.2610993545392364 5.102308216431883 -1.461268483994709 -0.7392286685345849 -2.0517313238450794
Ni 4.501553421657439 7.106202026181167 6.342330821265871 -0.5330346796398884 0.22397728102004652 -0.0740580554576789
Ni 8.140610096137104 7.496529752118394 0.6080341278691007 0.33318977289167134 -0.3203532832486354 0.12308924985371703
P 0.17732735778044179 5.826133531617736 8.487847119389828 -0.17147818268006595 -1.0686633452591983 -0.6987343079649644
P 8.89056254622554 1.679908416429027 8.287489324366929 -0.34470908638518055 2.0266142170624772 1.0988804922725266
P 2.537271308579432 3.6245107519021214 10.923927778709066 -2.050232884922682 -0.32696950301357236 0.547378092845754
P 4.015120657814257 6.617939643790997 3.974169061391156 0.1936891715594664 0.06691116000025252 0.4084259078178514
P 7.270913208309246 4.419284305101839 10.262383225017466 0.8272218460161171 0.17002910893836523 0.6891672331018196
P 6.42233430570035 8.538210783363105 10.772317029480613 0.6804848748364732 -0.5859230429984877 -0.8367673236127073
P 2.173996449914083 8.725359824786333 6.130035903046356 0.5872119370132403 0.3687954379104229 -1.471493247046511
P 7.042311018313968 4.148701016904036 1.731104966457276 0.23943681010822637 0.23056778975337067 0.40816699772950993
Ni 2.8622880241950805 1.6517086240978425 0.6280343162842329 0.034920208915952766 0.5082389607524472 0.4854816124512735
Ni 1.5474203669195394 1.5874080001380333 7.170420726922454 0.43771411525900744 -1.6271897414122878 -1.3657103496817256
Ni 7.155547111470823 1.1753888264521897 9.511272016515937 -0.08162738316450459 -0.42967170457050513 -0.6601891007019146
Ni 2.476438767537047 1.9186326752016705 9.516574269270269 1.168152439195472 -0.5887116614872183 -0.5596540819996297
Ni 6.424901233214034 2.1991923908994675 2.67081070605995 0.5885039163517864 -0.026028048632645497 0.3505796862333446
Ni 4.139543821589261 7.50443989399567 10.72278443104634 1.147337816442966 -1.2578939668266789 -0.5004312917825705
Ni 7.375920569294573 6.7875207061312075 11.605149379231628 0.7101363791543189 -1.0305647386152639 -0.105841775627179
Ni 8.035548119672763 3.849144217089008 8.234199180976455 -0.2286821426948836 0.10897826437363166 0.387810545560345
Ni 3.3050739177257933 8.85086619556179 12.68047900709721 1.2461023735083894 -1.8849428333311988 0.06091457609718541
Ni 0.22370500204363936 5.267080385844861 10.745059354162429 0.0458283711880243 1.625939928165587 -1.2947697568071055
Ni 8.68294180275169 2.896695775974254 5.817942120023536 2.455281134517552 1.7363595529714355 1.8337863650620418
Ni 4.4312633001657 3.0131450798131323 11.578638115459977 -1.0566133560731996 -0.00493060453239796 -0.5004852849489573
Ni 1.2478453619448397 3.5744647679651123 12.831156741892496 -0.29480037448019547 0.7762898350529405 -0.6648553958293324
Ni 3.27264142577098 8.363887276928464 8.04741697352061 -0.4311752856992252 0.40987703844208123 0.2050017683588082
Ni 5.892882749553365 8.525995121223515 3.9498551603918575 -0.9637805911111789 0.3030150490805039 0.972054658194513
Ni 2.870207268652192 8.939288656086363 3.7274754939723045 1.2138088035820063 0.10847638503654866 0.5523143538051069
Ni 3.683277007321788 2.797523168663648 7.238765627103291 -0.877859979887959 -0.3623964763626146 -0.1455807460880138
Ni 5.5825393926329605 4.959577033833214 11.404592237710327 -0.4846233782160363 0.2913306707640402 0.9696002831167496
Ni 8.141711508297233 0.17557966245197587 2.7126434322111526 -1.257148346909906 0.027921923221248687 -0.17449845756362853
Ni 4.770807733199222 0.4581000738463953 1.892294360446899 -0.9081182645518683 -0.1518267269977256 -0.06990418119030542
Ni 6.050402893611193 5.767767789710843 0.7182982287095803 0.36742015482945106 1.418667361494731 -0.8613254725680456
Ni 8.32606605771088 0.01962243135194797 11.759984262237905 -1.6305825691439209 0.4322235244580815 -0.011316710564399864
Ni 0.28904058933077437 5.572298990317732 5.75033088777746 -0.7754164313090517 -1.8964261513804501 0.37895540916256026
Ni 7.113274730713552 6.454812310554342 3.102461413677577 1.8726537315512009 0.02742955696586244 -1.0978674776269803
P 8.419622373262822 2.193967510073741 3.5168190401232273 0.5754967054588411 0.08561850660176867 0.26031082534375816
P 2.0039329508425783 3.3068398182139305 1.6721657620207295 -1.0142778285297822 0.7551075445483705 1.314841330746
P 4.4959735402181185 1.133007214736891 8.461175650213068 0.43514326920803764 1.5884506729708774 -0.08618543484883222
P 8.847944267434512 2.0629995913968253 12.426604414445928 -1.1734705089742758 -0.5385101009321629 -0.37762254928374966
P 6.359326248077218 8.008859355594314 1.8691000767673986 0.11374200431086218 0.43312829566053795 -1.3303461112498185
P 1.8579639805963297 3.816511468377808 6.146809226909712 -0.43277194076238373 0.6764099334361513 0.0021283591969124636
P 7.01078878434273 4.221539860749788 6.293663878173979 0.7283840125105973 1.7201248362801278 -0.16333189942384774
P 2.507396641558467 8.791863273066394 10.164156375751796 0.42231320732290495 0.9764610147923247 1.0713496338421096
