# total energy = -381163.7631076408 ev
CRYSTAL
PRIMVEC
9.30400236404755 0.00000000000000 0.00000000000000

0.00000000000000 9.30400236404755 0.00000000000000

0.00000000000000 0.00000000000000 13.61734792276561

PRIMCOORD
 96 1
Ni 7.3604798322225795 9.146224875747526 1.7557796438194195 1.4018425766279083 -0.5510198033633994 -0.49392871477736217
Ni 1.444976660994872 7.530110399313944 9.771658507878707 2.587284141921131 -1.1640684989340855 -1.7107405668517504
Ni 0.8454239716279545 3.4896706921946126 5.798103411372932 0.724156604692811 -1.1151432339882923 -0.7748520741651493
Ni 0.8722511314102736 0.019616558120635823 7.560242340657849 0.12354330667200013 -0.24345338746678716 -0.37127423846821866
Ni 8.516576530645064 4.324704884628242 8.65310252770748 0.36093223311226225 -1.028147387423023 0.8981596106772596
Ni 1.4995539375722056 6.407247596550211 0.17018787681979627 -0.5638267253200806 0.7518561274906084 -0.6448966933192183
Ni 7.725987556453835 1.675883386207327 7.650620487085494 3.2827968576250046 -0.3322662326361374 0.036051751417234684
Ni 6.611461139611222 8.010038741913432 3.7476846276539235 1.2215696784743477 -0.3594371366239745 0.8558845040581324
Ni 8.463869358498696 8.076329757190194 13.048863937510697 -0.5327945386046243 -1.3675975394021094 0.2051516636731112
Ni 3.316839548365675 5.145243441721353 1.600133922350863 -0.2750818130053456 -1.9579081699453316 0.08459854997768655
Ni 6.35691294495059 1.490491839483845 13.356751976463498 0.7093277672100945 1.157713246140019 0.30577050033845404
Ni 7.732249149896819 3.786040376493006 12.061593009994114 -0.6635626451598379 0.5884082713141866 -0.6142548000636453
Ni 3.838040444476422 0.8977040900759078 13.579559567809508 -0.04742785446466025 2.0058139924876746 -1.4626566225914874
Ni 8.198519217348757 3.2422028431656464 3.844150382684457 -2.602105008984047 -0.2592397037667664 0.8395487430125864
Ni 5.756907150679255 0.7146208662843788 8.030259129773219 -0.6579689531221442 -0.9034110888841861 0.2695806806814583
Ni 6.977917872061176 3.629072556319772 1.2910214767158996 -1.7825152255918915 -0.4306973176215421 0.39075137335622384
Ni 0.3264309152260045 5.618417078764218 10.842458905844659 -0.20041517742939036 -0.2883332786986131 -0.4956444119168883
Ni 8.696432196092802 1.0137733776240752 5.597165807466863 0.1842478236409085 0.9586833790939296 0.02915733829024656
Ni 6.748406747170337 1.9701038460104319 9.93723253003524 0.5705715002430819 -1.3541982352770676 0.013050405426054944
Ni 3.2765718270859785 3.086695751329037 2.7135699101421866 0.770228459350209 0.09875478687341056 0.8536977808194588
Ni 8.941760124628624 6.692880462374305 8.76358010996704 -0.4967924094784025 -0.5009231438173244 0.33137611672170025
Ni 5.0507147799372225 4.469661238033434 6.4999415091115225 -0.3915584426385515 0.3164660323790872 -0.924453511376782
Ni 6.367147347309108 2.069740404971677 5.533613890421323 -0.6169071500848279 0.6339481647275146 0.7093619628821396
Ni 6.729287022764197 5.97451845682778 0.14848908301930924 0.7584083267868292 0.00480487758781108 -1.2228254052583198
P 6.229959835694246 5.105710736611041 3.9944723541261555 1.485771611342396 0.4446599504492213 0.6806453116737374
Ni 7.0852953608063185 6.3860158636573585 5.721369584089623 -0.8308607283202851 -0.6125696990517385 -0.6952008408904091
P 1.4660130098426987 7.2562657042064345 7.422394244890756 0.8287272269170503 -1.298205264851216 1.384430294688732
Ni 3.8169482716157304 6.340947277271303 8.357415757166464 -0.04863704428141301 1.4857178752863252 -0.6857792904661931
P 1.9167267857096884 1.5016473380546298 3.581335582118786 0.6405705551400387 -0.14102526550684746 0.43437425225249715
P 3.238257946256545 5.717439573583952 12.52560406572546 -0.2547654700454967 0.31871754741742525 -1.126771305145524
P 4.024325175405738 1.0025806630447143 11.31962489020756 -3.342544924217915 1.4633839876758152 2.948119958664845
Ni 5.472967613245388 8.7155426164968 0.05490291665237716 1.4252416722781391 -1.4307214644457875 -1.0224079138360844
Ni 0.5125063061070785 0.5180682385888258 0.10884659068369686 -1.6211319652539822 -0.1683036416068263 0.8696044247473863
Ni 4.683978927422945 7.240346556537867 4.71650478851853 -0.039668522234215554 -0.08273192908259301 1.2297429583137596
Ni 5.17257860002074 2.7904935390692374 11.65369904319495 0.2572537836849892 -1.988325348784608 -0.7069980906356533
Ni 5.069704248313346 9.117494117126522 10.219955103988658 1.309992487294131 -0.7068970462814148 0.13703388495926722
Ni 3.0717349158813123 3.6481271527109036 13.289822706639647 1.9854865937842319 -1.7847207178836424 0.9050486244876091
Ni 5.094080733930906 8.28979147838245 2.199038122768336 -1.358627731803331 -1.320413939737771 -0.2716473334024999
Ni 7.5075016741037635 6.901094726357282 10.894218930572757 3.5018982986099885 -1.0408332104208076 -0.9093966170436597
Ni 2.9231965216506395 7.092645522500163 2.9538206447079687 0.090691807359618 -0.49791443889798764 0.04727821626067342
Ni 5.405895061788519 5.946932090470502 2.1541965540345966 0.2126091483924209 -0.2756415421635575 0.7611851182010181
Ni 2.150722439633987 0.38493168950750795 5.562972669187054 -3.8010800899873307 3.0747868985674915 -1.5747024701468493
Ni 5.754208990057464 7.058537050639866 11.85616157305244 -3.5183052792131018 1.1476360644096752 2.4805913311475667
Ni 2.6604980211117697 4.296299766082282 10.887927564322911 0.21491234260430084 -0.139486717375134 -0.8533028593738853
Ni 3.773814917675649 4.156125669779162 8.564535870497295 1.6927906672415491 -1.70352553716055 -0.16088600898651645
Ni 0.8259860503484855 3.4121962663406307 2.9963203961020364 1.742147620408122 -0.3182686328054648 -0.2589720519276766
Ni 8.059722113362964 3.8438368378122005 6.277855908331896 -2.547683496810374 -0.3702738222281623 -0.043936810592266264
Ni 5.856785613696247 7.2320008666146025 9.34513606798661 -0.07541636925778625 0.15587672869738314 -1.0750587072625808
Ni 1.4213165835424073 1.89795130938288 12.30248385990741 0.9909468671133257 0.7010961233289216 -0.8505196402017933
Ni 2.613242994221849 8.879330270241663 1.230891571658963 -0.9407864442088507 -0.6497576209559455 1.3358960945337701
Ni 8.88672695194623 6.294203970499307 4.047266053492463 0.42275955083170413 -0.9246540574233624 0.65348572053981
Ni 1.2054544297969738 5.612304349355539 2.314186314104237 -1.2288615841500707 -0.22911537357756023 0.2741590440807601
Ni 5.18367827457866 4.599452067943731 12.605401700914827 0.2658242989628196 2.954596053307492 2.733380394192983
Ni 0.20433542548909886 2.820126785898219 10.430234856447626 0.4964190852993838 1.3416430243198767 0.0781327397476848
Ni 1.1381306702822134 4.328082237406553 12.657174751245925 -0.2760251507552214 -1.3240991018988422 -1.3492444908162182
Ni 2.090804665825936 2.342394187804741 8.088894812085812 0.6830402942684752 0.424142804332476 -0.4476131195402743
P 8.80114874022473 5.5501163990243265 12.905132921187887 -1.6219202654832325 3.6235842403582756 -0.551710915893153
Ni 3.5191085549785677 8.82699525818106 8.634010715307772 -1.6721763334253072 -0.3352474267516484 -0.46714347626371805
P 4.991960006397185 7.898660532246322 7.345129159085017 1.5486394545112103 -1.0618985157315388 -0.5533507654894212
Ni 2.4161842288096564 5.119750475846499 6.287578590572489 1.6661972330237371 0.2259724570732044 -0.5314249119506074
P 7.1738415492117875 9.046039380659778 10.291555913289065 0.5372515459347134 -0.41511231869909154 -0.5145615605363655
P 7.013952272365303 0.9111297651698547 3.86442659455711 0.6421517835842296 -0.12068938216297279 -0.6956464130682601
P 0.3710575615102152 1.3969587059291342 8.97257963173098 -0.9589448602854324 0.5963061860050246 0.3048808986446491
Ni 6.842414384834398 5.739145810586154 7.936544568176699 -0.3290248428807043 -0.5164986296580782 -0.4355955262541079
Ni 8.086815367606604 1.3530996398218125 11.645827857381033 1.0643366928593863 -1.2247236507222972 1.4119423840660716
Ni 0.16078246105231822 0.9788461535750964 2.341707552446506 -0.13533232888712823 0.5203028338955169 1.168300277627246
Ni 4.1702491450339165 4.866188505413143 4.388585232949469 -1.9370385255851736 0.21342315965328407 -0.6809314754555886
Ni 3.608668879617744 9.089451854664183 3.7088887995134248 -0.7406132075869374 2.0397970343013387 0.388254317965983
Ni 1.9020822863348636 8.544674617120268 12.481661263598843 0.5318208618374454 -0.32627221983623167 -0.9059647085439752
Ni 1.8337723025928276 7.585320348037077 5.341132694064031 0.7559557514812787 -1.4184069087444928 -0.7964768515237766
Ni 3.9999300817838885 0.17445562260329828 6.38106148251562 2.5788707210464556 0.31346118411449236 -0.8840787071041614
Ni 4.449471553380721 2.2068907005779628 9.54170265168538 -1.452028710563996 -0.887787266304 -0.7405134487842795
Ni 6.202708413414157 3.252390725513444 7.9963246427530175 -0.4969608167354667 0.7606004493421417 -0.007420717944103349
Ni 5.507876229290079 3.117836246505364 3.3821675994205243 1.0986946015139658 0.14678402236749558 0.16609069311590752
Ni 3.808304853623855 6.995214012047072 0.5686466550446219 1.329663483360497 1.3115567464574573 -1.4177332797162359
Ni 9.16913132902632 8.510752225302854 10.746279714080163 -0.09196476053477064 1.5662198865971348 1.0149023494876586
Ni 8.970900259343967 7.793599740035063 6.134029991187214 -1.0626809024235182 0.67678325761517 0.857703302434426
Ni 7.713241073516408 8.479537298109374 8.068183172912814 -0.6863577886774824 0.7011724850928118 0.7574922427304631
Ni 1.8514219946601993 5.046127906880177 8.442251509516863 -3.2012972582876156 0.6055886397482151 1.802045582315335
Ni 2.0746529181037654 1.966103125088466 1.2124147538009806 -0.8239390614997874 -0.10189050428891484 -0.6232919705652491
Ni 9.061056040120368 4.1917227819825165 0.8626466099969116 1.2428926083218401 0.7948025491451474 2.3777109521415567
Ni 3.470857999859227 7.274538764417461 10.750174369377687 0.3242788435552867 0.0596868743376714 0.8753223010677699
Ni 4.8988734649453916 5.438049693198554 10.470978012236886 0.3308212726594948 -1.92173866200331 -1.2207806069141491
Ni 5.5437710695620455 1.1559106183796024 2.0148365579190854 -0.8341291146589118 1.6060563018677823 0.11766473640403607
Ni 2.0211269937687164 0.48154165657127496 10.186497912278446 0.10433562339529773 1.1014945328566061 0.803903483005151
Ni 6.55253889403259 8.945816669563454 6.030919317825359 0.00680442451634312 -0.6267210508514561 -0.6357409949618793
Ni 0.352851490114626 7.837161078073772 1.7568830984737107 0.1228984739991496 0.6879480159827378 0.20406408703588727
Ni 8.888094640261412 8.604918031003363 4.096724268090109 0.1922573242089463 0.7121909476905025 -2.2753689621375197
P 4.333934454755196 2.131053779101344 7.2361355651674435 -0.8035478994379452 1.7118271150477098 -0.33019752303256683
Ni 3.2417283390562965 2.6785477852713377 5.256977064270366 0.4593044398352735 -0.059474501216549194 0.37067697120385196
P 1.8218352678419383 5.688252918857887 4.360424809659899 -0.1291989622958807 -0.8542053165834965 -0.9519303766408121
Ni 0.05783832932884301 5.638467203384769 6.773513596956211 0.3749545155332833 -0.639325369879028 -1.0666794820599501
P 4.86815164986555 3.0764334369640864 0.9343665105247626 -0.5124465710758916 -0.2783823381334883 0.15444565267781143
P 6.6761518665192 4.023608767240642 9.959850559247565 -0.18310368273413624 2.1809832508660825 0.8057335942353542
P 8.526652764967132 2.415598076674578 13.573731540866438 -0.10384325713991148 -2.5534839055422345 0.11077495126273824
Ni 7.68653858736282 6.61553629255034 2.040627251862551 0.6377773086656177 0.01994019056735275 0.5673483653200938
