# total energy = -340870.6196117356 ev
CRYSTAL
PRIMVEC
9.22000117787564 0.00000000000000 0.00000000000000

0.00000000000000 9.22000117787564 0.00000000000000

0.00000000000000 0.00000000000000 13.49440369582150

PRIMCOORD
 96 1
Ni 8.041841684812026 3.173847072885839 7.899650828106445 1.9131419214732341 0.8471949467039345 -1.5148207061895524
Ni 0.7736954688991761 0.005155824605742476 4.119166407948592 -0.39782216416007615 -0.1428137248658379 0.1340154098479176
Ni 5.079178736737581 8.274277912120265 8.04091046470262 -0.473359632376759 0.19875347345625125 1.4875659842386575
Ni 4.368123033197764 5.551731452256392 8.146652813125973 1.199254045696283 0.32867183041665976 -0.14269828233389617
Ni 1.7476235453230848 4.8459311493340165 -0.2089436645481688 -0.9603623094582492 0.045756123189192165 1.8804169204363876
Ni 8.921614188173876 6.867130566798716 4.39209134801373 0.6437684932520461 0.7637276821172138 -1.607301744239109
Ni 0.1942147128177081 7.323686580438121 1.5688320503174047 -0.891094219190046 0.07739817557450542 -0.8073253642025063
Ni 5.8763215903915205 0.3905850618886755 6.305381716800516 0.9127315949541636 0.7711504569438461 -0.19314435479958994
Ni 7.8802980458327445 9.077395326476138 11.183513719917716 0.90186739854615 -0.36881934916982284 0.404834076701535
Ni 4.51332883025756 7.567140709040822 12.202813421672202 -0.07684513128451281 0.19122991138569645 1.3722077844806109
Ni 8.37252624366317 7.934732932228138 9.019915995723064 -0.7402481109380348 -0.1032328772494222 -0.3161726695083845
Ni 3.4377142838868116 5.8609610685868585 1.0622132747962738 -0.3257446294675358 -0.35503720778406594 -0.05005269368201703
Ni 7.233063189791049 7.730768068264912 6.434644287987191 0.5043059442466283 -1.225662874707115 1.6284891769500018
Ni 5.0131358689784005 1.0687733055669921 4.192009026506653 0.20724865541145598 1.1564518629290923 0.26281636537443126
Ni 2.0781605841568966 6.698127946943101 5.341408475546172 -0.46832258417348377 1.480996558551256 1.1490344874190985
Ni 2.943568325831075 2.6869849156858545 8.13133654732651 -0.461748787610708 1.2331841227848246 0.47466009635573736
Ni 1.3731993013330959 2.6238740082711414 5.965187648832129 0.3638933726231152 -0.3685013037087718 -0.038698445011462385
Ni 6.66801542340527 5.3702357309329996 6.8372632952896994 -0.1378170429821949 -0.6568122138098818 0.5014980424841878
Ni 7.293435756884042 8.884227083781377 4.5003295507303145 -0.6540431357051768 -0.892043984697825 -1.295042036631886
Ni 5.863284508859833 3.8851332764527364 11.47658528434982 -0.3860531965496061 0.30365551087798026 1.6550851822709753
Ni 2.4961862132694828 4.963845743187451 9.269198087010473 -1.1097192347592437 -1.0411021478114781 -0.014586382454607135
Ni 6.216650270375723 3.0604779395664368 5.147386460751103 1.0800823857294173 0.4437263828913584 0.6662090816437494
Ni 1.1018638894547064 8.865316861559672 10.400406473912778 -0.33972088914196974 -0.48567753051216356 -0.03609546017097655
Ni 3.3359623519322796 8.90255644593484 4.813750579553218 -1.272314513127383 -1.0126086683574753 0.30546196795909974
P 3.8152641082440155 -0.05355714229226912 11.01401045400328 -1.1882641223436825 0.43768814711707854 -0.4007413946894002
P 8.300969815256218 -0.07404306269909888 2.501241539863418 0.3168501551913833 -0.8459675020547366 -0.09727460278345827
P 4.960203842759575 5.505751306854322 12.80927927692407 -0.062499918306434296 -0.29326825410638524 1.049666235331405
P 4.393607116191813 3.081683942057867 6.305813212851211 -0.7777787608936412 0.7321280529340617 1.0097709417983642
P 2.9596480077202285 8.121917394219881 7.23924796651768 0.8211974941989083 0.10797939079547209 -0.7614103468379466
P 5.186029329291138 8.077034428946716 3.45459426186999 -0.07687495608118372 0.1476895649009005 -0.00905928198879085
P 5.53814117065971 1.8683317995047382 -0.02414626083687226 0.6916732873531249 0.36194704753002177 0.8236580399242589
P 9.252086687000105 8.316653037098794 6.11388229430182 0.29053285745309315 -0.16836714785491003 0.09939807688436429
Ni 1.3419527176620276 0.548770776473444 12.56307389999813 1.162264355845811 -0.0365240630679629 -0.07520039659223822
Ni 4.153868648025655 2.180170676141759 1.668677286047924 -0.20909882124631732 0.9165237150067441 -0.28551946339890183
Ni 3.5698829994149204 3.2332423198640097 4.331743674923662 0.08912394865186586 -0.5622460110965221 0.46335161332145364
Ni 3.387852518028701 9.099753829102973 2.3223596888471225 2.487367987749768 -1.614013609041646 2.3844045621116483
Ni 5.985845983259215 8.812274195327847 13.587784820388364 1.7347662403423865 1.2567441694929515 -1.967095492871554
Ni 4.950762561650347 7.375816466562707 6.020905959378307 -0.8179234514333268 0.8203932531300581 -1.8971370614045453
Ni 3.8853729964809 1.074480486237512 6.799222492820398 -1.7361014142140423 -0.9005008572159265 -0.12043150051589582
Ni 5.3167228446459305 7.0329430662795325 1.1262932043248337 0.8188505912332864 -0.8257473183531199 1.2645271558724804
Ni 8.037582044311574 1.1358211534442442 6.4744802246673965 1.0509466447057254 0.33797690986766954 0.013662327978440988
Ni 1.9522153693599689 7.250885451884933 2.9881193710652445 0.8006587508156081 -0.6721771263017263 0.5420865054295116
Ni 1.9259014862684292 1.1842077191290377 1.457152943196559 -2.324873753735867 1.1088964817476323 -1.7162195876884507
Ni 3.4962244107609917 2.4042443624675087 11.89286095725681 2.063783627023923 -0.3684781637803202 0.4250316346953325
Ni 9.227192684075384 1.2746559297555284 8.978744080885898 -1.6724180171224678 0.9189222971459076 1.7091598526281921
Ni 6.5685592717204635 4.391652475962168 9.184236699028613 -1.2202015944822278 2.0810372718980483 -0.02396576678697808
Ni 3.0797754018336385 5.120097101544957 11.564514590680373 0.7764021922610886 -0.7382843023434447 -0.252056812865082
Ni 5.772246218164015 1.0643108250427087 11.542289778069245 0.29906712017634945 -0.254032191423898 1.769524469759178
Ni 3.679084692244702 0.16626059153346165 13.527599419317362 -0.29221307336899355 0.7357322253455523 -1.584099080870401
Ni 7.1052463147742255 2.4936875929759275 10.18758672090922 1.0974910681241679 -2.164441544457318 -0.7256329321280213
Ni 7.613222274454809 2.768148585221532 0.9391216503346054 -0.9281756974233757 0.5372775140766424 0.5619253945323097
Ni 5.38185293229787 4.364545672777471 1.3591019196768364 0.16947349354521135 -0.8842190893367676 -0.7703441589924669
Ni 4.946539801154227 6.06663163275048 10.635047203480019 1.6821912944591482 -1.2734995345744196 -2.2449237582737855
Ni 5.903603573596799 2.4407279067538514 7.871312232777028 -1.3029785178701432 0.5817411437066562 -1.4636475257498471
Ni 1.3951244639090177 6.723141809881906 7.702011806886426 1.2287479413903417 1.4439564750788227 0.05622976902700639
Ni 2.9488052864463494 7.270929734239877 9.626664905008186 0.5490377399363641 0.3421863199633268 0.29640448574252176
P 2.9891888911908993 5.4405474591937155 3.9833991259976984 0.36862960175651993 -0.2482415528840499 -0.5457580407438278
P 8.922268808250786 1.7599599067724472 11.148887083849536 0.6235046007966875 -1.1169777160938699 -0.1422218569181099
P 0.2856826555640043 4.916076917575234 1.8379509739353852 -0.10846430085169063 -0.0005890397342505984 0.29413265898920954
P 4.335419689355546 3.694057974003868 9.814870943119953 -0.04760963145816317 0.6904792670450237 -0.23761081264308107
P 8.659093097331056 3.175774053112234 5.328346500011559 -0.9284906575606331 -0.09151481748154562 0.04918443214445078
P 6.384555710102433 6.558527910541908 8.739353206760576 0.751899322023718 0.0683535488737339 0.5346729865742598
P 0.9821882753943749 6.628821198800457 10.443791189009918 -0.7829325371804386 0.306592224908801 -0.6123640107988356
P 6.881274048460391 5.986989263393536 4.745333561515105 -0.2329463172878762 -0.32438014501984136 0.22686720097333188
Ni 1.8237715342694854 2.5196879960306373 10.465651811578258 -1.456675208197072 -0.5723278208125563 -1.150530869458967
Ni 0.6565986891418243 2.6498283113204355 2.736651217521 -0.7361019499801451 0.8122120028708464 0.1063804217394684
Ni 7.857340243135501 4.091753500727931 3.353777238025298 0.016987792807248162 1.2042442998220229 -0.3955845330788091
Ni 7.944128113331949 1.6774869970829505 3.6591694899049236 -0.6386879934053452 1.3331730391756524 0.1576073382352447
Ni 2.4764369709492033 4.722963994886972 6.63982711409351 -0.8550758921139081 -0.7694031352354362 0.7563298469912458
Ni 2.8371602933295117 0.3285289225978846 8.90885647267501 -0.42810924517939175 0.002448718650808686 0.22936245659135981
Ni -0.009362911100020535 6.1612749438698415 12.784651732030651 -0.8266186652144796 1.7911232789758766 0.000238598373367331
Ni 5.862722088793756 0.6912419212119544 2.070580821266373 2.087516708974805 -0.21963982998695725 0.19212876905088203
Ni 2.6573057321989353 3.96006422525615 2.3300648437523783 -0.796697452175015 0.5726201552419944 -1.1564300085522212
Ni 2.0953097861717054 7.354804084094025 12.216848107321093 -0.004295799161876473 0.31149171909294743 0.47477528177736306
Ni 5.938621137710908 8.24860020910347 10.276825267393589 -0.2575628302849758 -0.14327883742771452 -0.45282166032440724
Ni 0.9942203768079906 4.590942799376195 4.383508449005351 -0.38209112657806454 -0.10696097683328674 -0.17236572749134188
Ni 0.6728295790487431 4.57072333700067 11.053954264696161 0.4616593132206952 -0.23855337906200852 -0.5371710704057652
Ni 4.490223507542986 5.29583032219133 5.7389675462542025 0.017723385421692057 -2.005860272344578 -1.2202627867374665
Ni 7.299170597557812 6.654222301784758 2.650206331364848 -1.0264604866389033 0.7188398204655878 0.30996345537387904
Ni 8.40152314706993 0.8552343924789413 -0.2001911175198581 -1.292325666141987 -1.3030271117198913 1.1054136654053541
Ni 4.661116227620662 1.4856095545398413 9.64969923371442 -0.17781080976631314 0.875842178126982 -0.572275370308066
Ni 5.024716190338938 5.487836844749605 3.3463422291517806 0.8205225796190706 0.724864686503429 0.14332948815999186
Ni 0.4297055264848224 2.7353161613641483 12.858520536709277 -0.02234905711916151 1.5381650373424476 0.21124286417251364
Ni 7.836042040633238 5.884075611302517 10.790880895788455 -1.197634507814989 0.8216273826474754 -0.28789696249214286
Ni 8.949486251448482 5.932323876971061 6.371908634616566 0.2693004304368781 -1.1695688599270244 0.700535108619129
Ni 1.108732790261713 0.6280637077893343 7.279029505191494 1.6589500645430204 -1.269203221191911 -2.070933093584511
Ni 7.455237555893654 5.30185098289868 0.7275585834786908 0.4372364042916405 -0.016168125119430218 -0.37621358475136496
Ni 9.085444387421798 5.513754267794566 8.783439563940151 -1.0168466176982232 -1.1501030378929291 0.20058795556182873
P 7.910650289398739 7.908677209166928 13.544602945315054 0.2113678197861521 -0.7647147286208313 -0.8139130447223532
P 6.003032065278356 2.8686373770276608 2.978551775941176 -0.5033075848891009 -0.466295526441126 -0.7388743705189598
P 2.442175446923919 7.7546202110672295 0.8746397287588165 -0.8423265628680395 0.2599858379041716 -0.18215854521204758
P 8.12484935456435 4.242297678414918 12.25484834178563 -1.6179489395403104 -0.1761313651813612 0.8187251213990157
P 6.695804506670127 0.681385740053981 8.768285570159755 1.0352711429519976 -1.039452785133513 -0.0427373909675264
P 0.8628233753705483 3.5318873749509274 8.634812224478368 0.36449655342475296 -0.5016695350650457 -0.4748138483247823
P 2.4050833825660827 2.9167842226842904 13.642032540761768 1.2402240603507415 -1.1152514774313824 1.3451836904832835
P 2.2718174869090695 1.489233014965551 3.650546944891887 1.2619768786468009 0.3206119362266607 0.34587816699261725
