# total energy = -381160.33440742217 ev
CRYSTAL
PRIMVEC
9.31804428050824 0.00000000000000 0.00000000000000
0.00000000000000 9.31804428050824 0.00000000000000
0.00000000000000 0.00000000000000 13.63789968688440
PRIMCOORD
 96 1
Ni 1.0392228547845948 4.505060147789717 2.048235677850723 0.6052158297898286 -0.07369115903656341 1.3676456190312252
Ni 4.335276060950267 6.730050741488428 4.244700942256772 1.719602902338387 -0.7270506384111544 0.04237332275988831
Ni 6.07345474351127 4.740871897180307 0.9463676106287419 -0.5581294178249872 -0.30766617469927016 1.1431708295494698
Ni 9.042938447922804 8.903661638417878 2.5738395395905562 0.18730692218220646 2.237677618234333 0.22937325522463725
Ni 2.7213069101147385 6.472751581733327 2.541190975655094 -1.1733239560940825 0.2968549430163791 -0.8987527641765682
Ni 2.9930210845419567 4.952251734178985 8.809606230144528 -0.8039366502359317 -0.30755150349827676 0.4109059939272278
Ni 1.2813895104495117 8.92129137840472 8.825780491597571 2.1619568303622505 -2.055556096907808 -1.131247852859639
Ni 7.628235676378292 0.8640128706965525 11.404870749202178 -0.010850826671574861 -0.14399411832718426 -0.08308417021568917
Ni 4.267785465429817 4.50511605605606 4.565791433909293 0.1178395714190035 0.3816938911396458 -0.6841322417810733
Ni 5.064161447308988 3.810064488879275 8.522732529298391 -0.23681505621466317 -0.5540457346739168 -0.4322798316173136
Ni 7.567677705884379 7.551399082334161 8.776342675279292 -2.78622504879784 -0.6135703724021111 -1.4375788536872531
Ni 3.3244918776455035 6.674636331498077 12.695261490532923 -1.2930219208780636 -0.49813118289448405 -0.01739454132736359
Ni 8.552939765603542 6.1880480534257405 6.911115252867027 -1.30605561413357 0.00646529600936951 0.5433679432450965
Ni 6.897440090919517 7.397120221360518 4.9618903192965265 0.14673645695901183 0.5402720779285921 0.3856204798875617
Ni 6.0658978095105685 5.440852709839671 6.4774161947552145 -0.7878127480908755 0.18035183102061197 0.13880717480960608
Ni 1.075181188087566 1.8187052221837745 9.198695150736782 -1.0988198142379204 1.1638337572154602 -1.7041199762114394
Ni 0.17867256938355505 2.436435657008123 3.0746508806205646 -0.037670775077896415 -0.8338938587196542 0.15263019673562747
Ni 1.5118527023599502 7.16081461561723 7.225918859969272 0.6601106820554954 -0.5354047225339618 -1.1037493903290538
Ni 9.042053233705706 0.1304628713159439 0.2999012587085053 2.017583474318777 -0.4616582847794307 -1.0350937368338688
Ni 3.77385456837776 8.236666702900912 8.57368359602569 -0.9164450392500089 0.8588890952124111 1.4424603501492705
Ni 2.9498133127031707 2.505678044873989 9.685609560362787 3.466489322983075 0.5057773865858322 -0.9413194338941853
Ni 5.612751992755766 2.8748216914483606 3.868158768436337 1.5897426523094236 0.18739896767538047 1.4990392749855794
Ni 4.7504135746361875 9.284956014877473 1.274357182347995 1.0403632127629243 0.8294121687992169 0.7066337653176992
Ni 7.7832879350363475 3.0430776190077666 4.88843710717059 0.8539564337974841 -0.1544785627982759 -1.2206353395855365
P 1.8566389808975334 1.2143461810598053 3.936702302972915 0.401690903086863 -0.35667551471843734 0.9024266134837297
Ni 9.119980038943524 5.3409819100622045 4.857028774943504 -2.0933999072284593 -4.12100014235329 -1.2060371300563875
P 3.5676462460158147 4.375967960803617 6.461746039503697 -1.06256391722968 -0.431450907958115 2.7110711891728214
Ni 6.777805718989782 1.806740853186362 8.333820360934107 0.41751552882394544 -0.15121454733502346 0.501086408868066
P 5.358397335028064 8.41118435629074 3.651288739682772 0.7686179203299794 1.3752044052150896 -1.4011450363402513
P 5.846644225001911 7.794982080746435 7.199406228264959 1.0498030180195856 -0.7410214987689496 -0.15298063809651075
P 4.118789935625592 6.310067844719445 10.581087603357208 -0.7418663632677481 -0.2536357273164277 1.2789631287921521
Ni 6.179298409743053 6.935979522518659 10.481489822280382 -0.6212769970177494 0.19500249105425127 1.1318849722230055
Ni 2.133552624094655 7.058222946877736 10.24457202102064 -0.1085874566931162 -0.08285045693832828 0.5185277442729651
Ni 0.6765449992127969 5.444840832838809 11.760383960442114 0.08263371294183189 1.6325659181225367 -0.35975106831996756
Ni 5.177049555099995 0.3751621714462008 6.122476043245295 -0.8584298961878054 -0.6122390551851972 -0.2234401775696539
Ni 7.414451783926863 0.9324194299805902 5.9679586403352545 0.15404687457749597 -0.4976889531507428 2.3046363436430695
Ni 2.1550213983703856 5.839776826286107 5.049241394630906 0.08729949384861739 -0.6967848975480774 0.499372768611069
Ni 8.689300027214237 0.4683910691821131 9.178129294962492 -3.7691744995279857 -0.038140772735779475 0.5057658166216064
Ni 7.0486719513774645 5.045711719415781 8.894597044834791 0.6438199153152719 -0.07552152737708284 -0.6191638073294885
Ni 0.2968812805215416 0.2964740819816764 5.193121318064743 0.17375540875001688 -0.197553282500563 -0.9810339788749878
Ni 8.172549239449827 5.441812468411893 1.822896478550625 0.692547205317646 3.9079189394204574 -1.384034344801894
Ni 6.347079117038542 2.9272263731005785 13.019612365917682 -0.2378147011237711 1.0190634228438835 -0.5994447316340064
Ni 6.63052470935341 5.022882510659037 4.122860057415365 0.20947394519754892 1.0099082387071767 -0.37610945507333293
Ni 1.1811087167188628 4.65602178496034 7.438519360783107 -0.29565423784005856 -1.3620676107228156 -1.5066242864216892
Ni 0.4284697715998589 6.224574787436532 8.929482871228416 -0.659564065523406 -1.7898400413880788 1.120007504059129
Ni 3.8474857551515558 7.208532320941023 6.547705930810574 0.09927620659451934 -0.6677427446794564 -1.5743078058115918
Ni 7.537953144278658 3.1710143684894434 10.649222075745042 1.0658073638676417 0.03638136684251154 0.29932603026469096
Ni 3.570227344311985 2.4598984927834224 0.17807435093368443 0.4743402511224734 -0.35257306251428955 0.867782283936983
Ni 0.26917221191748747 6.575361886561603 0.46287292329405416 -0.05523140966947907 0.1661410867378687 0.48883381675295806
Ni 5.799401739942035 2.731472896544783 6.544091461391496 -0.8749870292155382 0.5957809096291738 -1.7307815446630255
Ni 4.795652680152104 6.20070195770805 8.607751298121828 2.337377799740149 0.33990035214262754 -1.156515369177176
Ni 4.832766450959499 7.036996441756158 1.6266333049666688 0.11287399988361206 -0.8440299187123915 0.8928744510189204
Ni 7.998087494326342 1.7738574745322588 1.4226370863430295 -2.219691723179874 1.5803265012018461 0.6385545531512744
Ni 3.913681142501726 4.300324076441472 12.451375655677957 0.12096037643617231 0.8452517069346346 0.4519436285948281
Ni 8.472497088380283 3.870501324796111 13.457102004487552 0.3155309221593276 0.7664967602219186 -0.6766850414744088
Ni 5.721176757283719 9.126810165481768 10.703651568443318 0.045576917298850536 -0.46104507667546407 -1.1209737246271403
P 0.21439142894569 7.189793733671711 5.2275980823096235 1.3025797397698275 4.551788477026742 2.1016976284608773
Ni 1.2019065917984768 0.4588223693975002 10.919661541699638 -0.4308641822167096 -0.1250558866617846 2.4263942762798734
P -0.08522376580002675 2.086039915747454 11.83573339460152 1.125570085748571 1.3481471439869814 1.0975682012190067
Ni 5.516617728778893 4.556859156556552 10.971526708581646 0.9478325524223546 0.4285334772010039 -0.9024196715051941
P 3.78558598626541 1.9738879334632975 11.512378618162106 0.5068271680065852 -1.1916664631570122 1.745648434472529
P 6.946527548768715 5.590183689241955 12.981521132253723 0.5919350535205224 1.2500816698711117 -1.2862941152359264
P 8.748292566250544 3.2810604727413453 8.832217396662536 -0.40862953918822525 1.1969439095058676 0.29902289720197534
Ni 2.1648985254243245 2.1714118384532894 6.958028810959918 0.06357438231753566 1.2912923397814664 1.5439312504022635
Ni 9.066979002450315 1.9288258707908 7.2613497919597405 0.9135661750403169 -1.3454526278739538 -1.402343941744359
Ni 3.8109962933183255 4.951319929739934 1.1728939287841906 -0.7370578861355113 -1.1950281805403933 0.21108422710746225
Ni 4.147638601058604 1.4390601395813 3.10266278566731 -1.3380002853609667 -1.7797656878712125 -0.12896447768757144
Ni 7.1851533475652385 7.610121398083144 1.9824186031028077 -0.5955677651771034 -0.576824166021013 0.9431891401130723
Ni 2.0650370436912486 3.069196097434361 12.06418202531473 -1.986220129516147 -1.6767755227602155 -0.10845015978430354
Ni 2.205506562878159 1.1983470988413027 1.7873285713076164 0.023305250384843733 -1.5322275888120904 0.5785439769255971
Ni 2.5875184287558226 8.05507665381869 4.272999843070745 -1.8892314334042237 2.4950296180600837 0.6749557174881279
Ni 2.98977840509406 0.08434321060512372 13.406068938969618 0.4839412645473472 0.7639606240636262 -1.1869428324290978
Ni 5.391029126483624 0.9498441729908405 12.721665101117866 -0.40385397217645286 -1.1858285163189966 0.12302934315005908
Ni 1.1802700927237169 3.919048336070658 10.151343123284725 -1.7348091777651802 1.3011190960639012 -1.5277744381367429
Ni 5.564950425032459 2.4545965255252233 1.706619398014791 0.9012228229836156 0.039039630400965024 -1.9306321078381976
Ni 1.734786914402858 4.740862579135916 13.547698554683144 0.7134407609372037 -0.1673119671175183 0.8205547184085868
Ni 7.982638176726879 3.946061346758741 6.853413262978805 -0.09827707590604365 0.7668173767861309 1.0613824953270687
Ni 7.204190112255047 1.0154525235444085 3.892052097862478 -0.48470745328941034 -1.2157708124043836 -2.926756405387405
Ni 0.3101408576892348 6.929540753844818 3.193887372054824 0.724461023307107 -1.0693709128491842 -1.599323354019323
Ni 3.402213685906732 8.858059129170732 11.127435295519188 0.48108836847958436 0.4284026080500945 0.10276082270901012
Ni 0.7391930070635004 2.3323437831217566 0.6558123504439162 0.5259978273977651 1.1856449395532807 -1.9444666997284445
Ni 9.018963119706026 7.739632897066817 10.308206809772296 0.8606757547991887 1.0543191607223843 3.56677263068587
Ni 3.4962607079401313 2.234010460668723 5.159940693794582 0.12258814184758243 0.2526949606697132 0.02937331095579457
Ni 1.1357950668478214 7.959324429661828 12.524283762207048 -0.23981450516261926 0.20978633423164517 -2.2571709510722546
Ni 7.835506255800755 5.523839213181536 11.027728493322996 0.9731458343761626 0.002519166877427919 0.8635790444889128
Ni 5.3153852421214784 7.585670849602451 13.034641439715132 1.424641833910611 0.5128204094755426 -0.6137457216377108
Ni 1.1124720017383796 3.4718567496813906 4.983779337374269 0.9140783387900451 -0.8355514489277351 0.6849681074188075
Ni 5.486445901042428 2.164917161513105 10.253177235015272 -0.588223151886574 -0.1972748320281957 0.6218688649654773
P 2.027093966933099 7.933532082788901 0.7654009387162437 -0.3967392155085425 -1.3585948216828667 2.362310044205454
Ni 8.719667533882903 8.469478041997759 7.1399999680577135 0.7939404582551681 1.4891708668319321 -1.3265689035955734
P 3.120762155091433 3.649989804294735 2.951773829242933 -0.2860884485284944 0.007297819212993883 -0.9546727152726397
Ni 7.680444679098309 8.163753005545187 12.565510517808413 -0.4712359011655368 -1.6561308499266703 -0.09706300099328445
P 6.964576600753128 9.319162555835026 0.8315898034353403 -0.9545678142636592 0.18928898560924176 -1.119072908060002
P 7.756032655194111 3.828542170905653 2.644388317279972 -1.30348811051671 -5.342400385129309 2.355335155549518
P 4.313369338588183 0.881349092285093 8.080005217976616 -0.1338608865479243 1.9019473383089953 0.17381557256399097
Ni 2.2616757344641423 -0.07126440349860647 6.657368131633587 0.8743213706070813 0.12558399125111275 -0.491792642270966
