# total energy = -340887.74928196246 ev
CRYSTAL
PRIMVEC
9.07869862944025 0.00000000000000 0.00000000000000

0.00000000000000 9.07869862944025 0.00000000000000

0.00000000000000 0.00000000000000 13.28759313310529

PRIMCOORD
 96 1
Ni 6.554929331795698 1.7076850487971211 11.366712218072344 -0.3592157646417878 0.16333215653416386 1.2570221057446869
Ni 4.59886016806891 0.45697266242694545 6.261100883166264 -0.3828765985938374 0.08059559946588055 -0.8654559497966513
Ni 2.721122015841561 1.488915648692579 4.844497068802966 0.35525112356708494 -0.07675102890880975 0.09939370600899011
Ni 3.713214962483222 4.0476379040216255 4.913073926529225 -1.5141043968488181 1.3425704212301524 -1.092454277031209
Ni 5.180668567691254 4.720896034616832 2.6580232448490477 -0.8325897951962501 -1.357384089204217 -0.10396101366469837
Ni 7.117981140115556 6.041183935558994 2.7444324823605646 0.9851037780689872 0.5150575263361774 -1.6532522428272949
Ni 4.835832358861489 4.575073977743396 11.93431790160872 2.642079492494456 1.0242398248385005 -2.2950643836839184
Ni 5.850258904053058 7.9834262413217525 12.373632495263482 -1.1251412257412687 0.39760464883263136 0.14603531712692913
Ni 1.8395349885289665 6.543680824233365 0.5272172770855701 0.003235733328478298 0.44991477109025746 -1.0572918701974632
Ni 2.874788068303257 1.4424871840648397 0.39393290297531613 0.13150678449345093 -0.5377565105955899 0.8204955830358772
Ni 0.5776621579728539 9.180198447844598 4.829189475097681 -0.7899526772520138 -0.27783237916728926 -0.9322187571444976
Ni 8.676593957941328 2.529806600295932 1.2800429379291978 0.052579316758612674 -0.610711048576445 0.8830029575414793
Ni 7.001891821149013 0.7382779542109547 4.912330381114089 -0.35195676908652934 -0.05816400993524177 -0.40054367685629727
Ni 0.8308252998442575 7.728541778196258 2.3522626626528877 0.18812607564939213 -0.7108058944175177 1.0367004191993565
Ni 8.254162112198523 3.8162672702637197 3.4826250968047026 -2.3264462404293096 0.7592951002671569 0.9624338472752973
Ni 7.471850654049857 3.784746028733115 12.469808596726216 0.09147676515475858 -0.5505827158259808 0.6967157348730388
Ni 7.922054238802488 8.853928177646772 7.0345052301208995 -0.4994524728090689 0.06642033640676302 -0.47730447595711994
Ni 6.91741453069905 0.9114650243970472 0.544060078723697 1.265640700651633 -2.3658517388101257 -1.1937338872090024
Ni 2.092349508374225 6.160169359378147 9.547388228361186 -1.7414125420143107 -0.6551263414670265 -1.723927754965986
Ni 0.13410418059361034 4.888334472850972 1.6165685060627883 -0.17452005483018332 0.40826495675995494 -1.5664934519734957
Ni 6.331547952803613 1.917294042016762 7.124249073627287 1.104617137645988 0.3306073568764758 0.0630323937711366
Ni 3.530633254988411 4.293180386290268 0.36901096745525225 -0.47379671991417766 -0.15431272664437296 2.822956857001235
Ni 5.901399213252913 5.88098122010708 4.739564562542921 -1.6922391656134534 -0.4307340843967485 1.0157333300293863
Ni 5.778364689859264 2.683472652757628 9.310563112485887 -0.05341698216855961 1.1417304975585176 0.8399153823233856
P -0.10727844197764562 5.364575765181303 12.61783223800955 1.9871128165337453 -0.15735768411828385 0.2972478075794236
P 3.825128080094903 6.3508765021177425 12.97083019687849 1.3365141877337434 -0.05963262406096827 -0.7746206748806337
P 2.7505551566947353 8.606234043810515 1.46734920017416 -0.8178640589503011 -0.2262784183493974 -0.6754905069456754
P 6.165462240660504 7.954955442519916 5.933547792856606 0.1017578353657925 0.3546571987368279 0.4530623155803036
P 4.611470480420871 0.9214425141557264 12.395848978601483 0.47186222189562604 0.08667420155979266 0.06270792055218233
P 3.833716528968161 6.123872722385245 8.206045009631646 0.23933936529841363 -0.12464656703850792 0.5924276768862249
P 4.640540473330144 1.0976237391392825 3.903390093485002 0.865219151195497 -0.2973804765025459 0.7655611357815267
P 0.14564229864120395 5.996317007090029 3.5769273548769065 0.715307124721981 -0.6193563829562688 0.2512320029709415
Ni 1.5853949786884693 0.9732546470517975 2.698191946793794 -0.962191392247188 1.2403158487335995 -1.0818248223418208
Ni 1.9907407136707331 6.405112647539352 4.821921069000502 0.6202518981873447 0.49247578438091955 -0.302443235737434
Ni 5.770602402558381 5.782096034982846 8.995355236529143 0.4137043826079714 0.7941428040739613 0.9710899802883987
Ni 8.790304657875321 2.0712142980391883 10.190308071853046 0.5964463111273148 0.9650586864926541 0.26385380550001014
Ni 2.5476280856428724 5.052731547054941 6.838181096559016 -0.7250042974050869 0.3349954586418424 1.0044937525598248
Ni 0.45631899612792365 0.014935367062787187 8.770661985589717 0.6623804519262787 -0.24131140142311988 0.8897168792265451
Ni 1.700022627180811 1.0944734307259416 11.340057158990014 -0.6926968435216329 -1.1341827671182467 0.6613257854095191
Ni 4.181176481692611 6.9049222414288565 1.9870801823962114 0.222426648703475 0.6142509434089035 -1.8385508763302205
Ni 5.3452744519629665 8.14893091675462 8.232593847940386 1.024126696299404 -0.3151246878598444 -0.5422983643300016
Ni 5.433764527193035 2.7421573604920253 5.125728823128336 1.492003965405353 -0.39144402854787425 -0.18848474454039152
Ni 0.7395970891171749 7.4391582604001725 6.476187055249791 -1.90401579080225 -1.0643932571289347 1.585124951031754
Ni 4.967264678457847 4.496052985150545 7.003890042710328 1.1060047620221338 0.14289677149794744 -0.04455593223350391
Ni 8.189748745649089 7.049800113648149 9.195744811322998 0.8775470766332306 0.10274076810435208 -0.01810750823398817
Ni 4.758273036742838 0.3012602713013676 10.284039279783466 -0.37709290203252477 -0.014809554209006754 0.6398223641201045
Ni 7.76007209842546 7.232808519977043 4.682879892109558 2.2776343611329293 1.5553433488939472 0.2617799536901169
Ni 7.175285885663129 6.206870184963813 6.885975905325683 0.5029658852789661 1.6365740108406654 0.6643959396944106
Ni 2.255457407377346 5.460446822371159 2.5883297071952933 0.442875861965605 -0.648644847507741 0.2847064805793032
Ni 2.420362888702777 5.118543033188394 11.667955239846377 -1.1357866212702568 0.1419989422740264 -0.06390219797059962
Ni 1.3410962781276885 3.2434830970473154 3.5812987482516148 1.0406707167010143 -0.08073212504374483 0.22962085245906907
Ni 3.8514290699319313 2.665088288097641 2.667763780574332 -0.8420774229717111 0.2689636159227497 -0.4625550855620873
Ni 0.8395444819773197 3.467309332270679 8.229405408992935 0.19604275939330754 0.7496547489639155 -0.04580291726672757
Ni 3.369640692758513 2.6890560523951055 7.2133955387659565 0.5494308616097248 0.35115741311368553 -0.36066715237633373
Ni 4.148983416465789 7.026077474212818 6.266615284694399 -0.1333932028828864 -0.19496392450683198 -1.3350489160421266
Ni 0.6710937688495555 7.080840184153084 11.437654076783259 -0.2909455195104796 -0.26396590559784217 0.545836459390247
P 9.397905640213231 5.836286786911469 7.965181688620168 0.507252685579778 -1.5527815017040418 -0.3697310623508149
P 8.4251321641871 1.8807159653673367 7.935683181137092 -0.5165600790236329 -0.3288595209474336 -0.09275151810212413
P 1.8120537678742603 3.3097939116036326 10.466677275209582 -0.6304982585057012 0.2263349826189457 -0.42877516089816475
P 3.945339128224722 6.068347401762787 3.93368571070494 -0.7821817750573432 0.31729341337638906 0.5364079669874956
P 6.679752358813059 4.416614372422208 10.477067845754446 -0.5971451369665522 -2.2116842794943654 -1.0245802388970549
P 6.474900603658521 7.68900404580404 10.152491660714919 -2.491233641352761 0.705296020342882 0.21700959145296173
P 2.373108262502663 8.5611855413696 6.002324381952011 1.1222590190974673 0.923183643525423 -1.8334806608961651
P 6.890868415999889 3.970323706765109 1.4989866490468124 0.3457809792931206 0.3193839773568306 0.20138602598309185
Ni 5.454400409105207 2.4434318618390862 0.5390549921868819 -2.2220067444662956 2.4183240976772287 -0.4256121897891509
Ni 1.2748217783657612 1.3208870950495997 6.842990991075984 0.1957044022172823 -0.32085182015160874 0.8481531968521459
Ni 7.095248078827355 0.6029563201354163 9.279045502434723 -0.1952565160465863 -0.22160106747838612 -1.0080881547793026
Ni 2.455942308506475 1.6670397151760052 9.20072810898318 0.4509894922116749 -0.4177083615610419 -0.43706491171078277
Ni 6.430560239708212 2.1578977122483503 2.78097333634574 0.3806729060742992 0.15650253520684013 0.274716716356443
Ni 4.114311866521844 6.89112261956062 10.354622529899776 1.264886081873796 0.12291750016254314 0.21632953466680163
Ni 8.310568066584942 7.085406769547639 0.4020656011789784 -0.3051683479780809 0.8600748879903963 0.4018009463021661
Ni 7.238482706600496 4.306172003983325 8.189755100738108 1.9922691639237042 -2.156174419352519 -0.06333321284100706
Ni 2.945674546952727 8.117545855702978 11.94058946659989 0.6841708083284928 0.9498249002620351 2.6580915516519963
Ni 9.007330947849137 4.752453590941825 10.31926463034186 0.4280390540630886 -0.20676168847270845 -0.009249029402093748
Ni 8.728633058302337 2.4802369059534497 5.537869964010846 -0.8233924449676979 0.6192609950289851 0.30791068660990845
Ni 3.4574771016895602 2.7870696824539776 11.837558039826167 0.38315916283126267 -1.0067990036542338 -1.2770839094915682
Ni 1.0801835591334383 2.9717485693248165 12.730842970281671 0.07941314912200517 1.4068495429241965 -0.2589422271310057
Ni 3.000827640932687 8.39811395716087 7.999170520429579 -0.9706755184587993 0.21279478204066576 1.7667409934767702
Ni 5.601784002137417 8.089165843887118 3.653809406080181 0.2979934274961965 -0.7714834148032326 1.2522431962988048
Ni 2.9723568421308504 8.426521205072522 3.6224107269806436 1.1206739339985343 -0.8915323351687291 1.4062797864636556
Ni 3.7342230710378925 4.228830570631016 9.533422466308615 -0.20822567461274463 -0.2938842904238293 -0.17863099167476332
Ni 7.248097048415274 6.109147073260061 11.522881267737377 -0.348564969796161 0.9546315776220591 0.2634439716561011
Ni 0.6008863768551809 9.21524222443104 0.3916069403946304 0.3608959805576881 -0.1477219608007327 -0.37655759835434505
Ni 4.999648396355217 0.3570080200394654 1.9420216933868388 -1.341995522563289 0.26667302011636007 -2.2175448520402004
Ni 5.97596256483438 5.803694258946356 0.4809540447723058 -0.15866714695832676 -0.20745614343657173 -0.2797527361184537
Ni 8.038034613385861 8.724075551606381 11.257833201531957 0.9228046629194495 0.4969086233412926 0.9210496279015556
Ni 0.3954327039836271 4.925130438266737 5.843484379159586 -2.067142259083511 0.17710324217632722 -0.32956708853741956
Ni 7.924460093930833 -0.14201263494191374 2.354042995447862 -0.23629903581019307 -0.7215556767348541 0.8111712203111578
P 8.574640172691131 1.5479271895764868 3.43954667195945 0.26920864205402023 0.8636340660965642 0.7678280774388324
P 1.9815984641830262 3.4400278429851188 1.5251768787609505 -0.6101253512763041 -0.7590295053105961 -0.05334370572846296
P 4.55298550405562 1.2791069241037927 8.360221284954523 -0.6430066753853572 -1.0119455808521798 -0.511125795381939
P 8.513304484966257 1.539656495154142 12.505112931962406 -0.18125377400959108 -0.07528498588624453 -1.0909077584796953
P 6.356977387575279 7.760580505546922 1.3473224496258707 0.01831499625910394 0.10129272280391588 0.30565480069619616
P 1.7893661000790473 3.2516720831822825 5.7621782781297375 0.039730742930718675 -0.1670941946797574 0.5846799146200059
P 7.176438880385015 4.519094722191062 5.660447828865038 0.2278280222247044 -2.9514860469236006 0.12277403260614338
P 1.9566683578342245 8.224084383744925 10.147323157603346 -0.12570123355526738 1.4321152594695208 -1.5689385710798784
