# total energy = -340890.5030099269 ev
CRYSTAL
PRIMVEC
9.10597041762854 0.00000000000000 0.00000000000000
0.00000000000000 9.10597041762854 0.00000000000000
0.00000000000000 0.00000000000000 13.32750815179338
PRIMCOORD
 96 1
Ni 6.344912603432722 1.5320066508608499 11.462856722426727 -1.1509288762283338 0.7008703804713607 0.7469725741460619
Ni 4.782027607372284 0.4810711413735806 6.208726443803856 -0.4674931462936529 -0.5637513919974548 -0.22603236377686234
Ni 2.7833126620512454 1.6385647150087657 4.636613457467611 0.21926419181509338 -0.2545435838426777 1.4176132091986036
Ni 3.836591137690049 4.42561993084268 5.153493826944224 -0.008165823640244003 0.8861247909999125 -0.7171146102443651
Ni 5.018291112104965 4.508520684218396 2.883273450735551 -0.6296395100498318 -0.1559132383622734 -0.29683951639741135
Ni 7.4763385159641444 6.116571292838539 2.472439389877448 -1.2559327293352498 1.5821653541827976 -0.32228212484023205
Ni 5.252414713823224 4.605699598983954 11.767949524670504 -0.4583346197228364 -0.932424959618033 -0.8170793582654767
Ni 5.6081303366119934 7.955221492680851 12.33886016876869 0.1620635742343854 0.5615479565882329 0.04965237291980481
Ni 2.049080066907274 6.144781588747805 0.4389205155716418 -0.9509592709767944 0.2385029854400473 -0.3405942928858586
Ni 2.4848280624354073 1.2670866576754698 0.18204200473534954 1.21196095173999 1.2502451920321693 0.9243267559909306
Ni 0.570248640059257 0.03228612820396945 4.781870074086542 0.26065355339515756 -0.6310675007456099 0.5952754307476651
Ni 8.566833092113333 2.2382110695010367 1.2937234419213666 0.6701878637858394 0.27691500955934245 1.4969417690266025
Ni 6.796723530524429 0.8208904718547948 4.802567033922621 0.876044266835459 -1.0456974804916441 1.0982022352585794
Ni 0.5888311935976821 7.1374507262419735 2.017198243783476 0.1821765429341766 -0.3393704477810865 1.1058854628354502
Ni 7.771235363291973 4.336700131115761 3.8092286076133037 0.6792116645510045 -1.79823649298189 -0.11206718771160054
Ni 7.477631563743071 3.4431221621447197 12.63619650553296 -0.08727609680984968 1.6876844563632354 0.38249761798786386
Ni 7.979315890026208 0.06371902699325256 7.004378808446862 -0.15276955052696914 0.1042471774465495 0.032651981707066347
Ni 6.910347827605072 0.506497742170045 0.40105789117179275 -0.04880365176626434 -0.09635234807950502 -0.3171291198843829
Ni 2.0735751269446943 6.4312098837206895 9.331907608575797 -0.7237030620951601 0.6388337749545902 -0.5940137904264221
Ni 8.888064405473958 4.631842839640992 1.3863675834904057 0.7254953781088924 0.189201568101758 0.12215491096490576
Ni 6.626441886398123 2.1424253681874212 7.2582277629729495 -1.6250009612910854 -1.1609142695758201 -1.7886115682976165
Ni 3.5006901062177946 4.0148313998359475 0.0935456326261784 -0.794663966684754 0.07207727758222425 1.1768448247631473
Ni 6.07822605201416 5.7133133992485154 4.821452816271175 -0.22305939719146745 0.5895616681923395 0.5076347515095451
Ni 5.3621325496562635 3.1179661755959436 9.359375767907721 1.033293964620969 -0.8902434411539766 -0.05459351897516404
P 0.08392790682263811 5.5741559615192 12.674566332477077 0.13359400603978283 -0.27951285219350575 -0.0528593098928767
P 3.9281061389450955 6.0933692805800455 12.789982684507672 0.8703287045079205 0.3168930926141768 -0.5886358139439605
P 2.2090082228318892 8.436089570917318 1.3796765165329719 1.4333601876202153 -0.3093379059747382 0.5297148712380362
P 6.549842464452108 7.866037619815981 5.813499105398591 -0.5438973333860053 0.08945279274619433 0.6614692529659189
P 4.537951180144397 0.8612235459900166 12.611927273558338 0.3375243957112832 0.26231525736829664 0.2878267713758398
P 3.881702114428109 6.1843197116780955 8.168082653809005 1.3361822583156215 0.4616189469010631 0.42991955891525313
P 4.801933258391541 1.063149347415965 3.930668558980237 0.23421489958765468 -1.1549169143418045 -1.6450882189592637
P 0.4854720568070696 5.527378592220973 3.6428880274216433 0.047998125145833466 0.25581345169403685 -0.40451731679206465
Ni 1.4088666148437359 1.1035434315520234 2.55848170299774 -0.5436011423018251 -1.1449577462465634 -0.3207080954848928
Ni 1.7091086667224815 6.930590399524472 5.0463010766682 1.0798450729076305 -1.7009050688185674 -2.185202945374385
Ni 6.026103478165017 5.878095037329244 9.258126484429626 -0.06888988099317812 -0.6567093696834303 0.45425890699156607
Ni 8.491708837351728 2.43564671698481 10.450259168987618 1.5073354535561008 1.4260011761519829 0.3539010372970937
Ni 2.300013289751584 5.313260807194987 6.854910680576145 -0.2601835557372745 0.7910880764080376 0.6760834033346679
Ni 0.5907343413849762 0.11627595562447167 9.032571600739328 0.15377022387734163 -0.00932873360009361 0.3471215524814151
Ni 1.490501638351347 1.208052652388259 11.393033052961696 -0.9733468946433754 -0.1548282328282108 0.4189098380683108
Ni 3.9946434637381927 6.77000661374012 1.7761304291341626 0.48732175098380587 1.1086275443569615 -0.4960460182306811
Ni 5.591703166237456 8.020511299546392 8.153382885995471 -0.0005466165320893812 0.5547533022639026 0.03206808417913832
Ni 5.285396538156136 2.630860507721694 5.179882928798664 0.19653435431774538 1.6884143925507245 0.44011166895690657
Ni 0.4787846322377456 7.499604270014556 6.8639866011483734 0.3056373171946994 0.04660458723241651 1.3643705478243793
Ni 5.34760852706902 4.862870411466046 7.091300758295635 0.01687543559909997 -0.5415051790047448 0.019247021155070078
Ni 8.347907354782604 7.329796136342505 9.429945216338206 -0.36620865101985317 -0.4289425397139645 -0.9041438532851526
Ni 4.400378181242781 0.21455669279319975 10.405491487328892 0.4481551080866733 0.410604403526409 -0.7720534283740896
Ni 8.326963623152096 7.104969730274138 4.626790847332903 -0.4221795099585181 0.33441978864403055 0.2675420529848747
Ni 7.3560304367022855 6.373468926212407 7.216498743594703 0.13373413116207292 -0.16556618807100518 -0.39530428283422886
Ni 2.412790731596733 5.103040377446329 2.660544149621316 -0.38723256156968794 -0.8249268793343536 0.3076396923367089
Ni 2.2533542980669217 5.124093380720128 11.520057695897753 0.08144560617100167 0.8840080017672259 0.2549253926621287
Ni 1.0303041126371637 3.084119284086987 3.853635692849173 -0.24779495226493453 1.562333149948219 -0.5963792053348053
Ni 3.584556092442569 2.092724982431198 2.3776671830553435 1.8903344366604151 0.6660144491344401 0.46378870085887225
Ni 1.4776257963837216 3.6429799977214126 8.392318082406582 -1.5452769657968808 0.07101566908692931 -0.22903181272481846
Ni 3.8042012014249544 2.9309386521355054 7.261999455860496 -0.523892093908672 -0.1689721284287606 0.13909693813588303
Ni 4.201084915823085 7.167108871424828 6.102052733833459 -0.06787815189921215 -0.6127293645580544 -0.4934895703574146
Ni 0.6950286613227423 7.184428426886231 11.294676736239692 0.41506578173187225 0.9071075638991667 1.1785857187136541
P 0.2495800756615739 5.690348142217149 8.129499747160473 0.048758914571257965 -0.053995994600481205 -0.6826363739618373
P 8.830669474836093 1.9241370487758815 8.141015157169143 -0.08235371980756784 0.2157710910601703 -0.41575972247510334
P 1.8016799605293277 3.2564679834655212 10.612400986285873 -0.3406313167713811 0.007448228747929108 -0.2411198542376041
P 3.9918297189234853 6.266464669521058 3.8825161881706163 0.017644966775272837 -0.044913572683238784 0.6823008449992894
P 7.051080598191813 4.14724131359213 10.529064056934025 -0.4083544311499677 0.09926309396839679 -0.6448113326942637
P 6.523280349162459 8.107609905218482 10.218813633126981 -1.228020062085382 -0.5424338614666012 0.3949530701423972
P 2.408948012141049 8.68099464144015 5.9386980012946875 0.995852274834743 0.27055024368357916 0.013589308648660467
P 6.738827771521484 3.830817952536248 1.9212932542592696 0.9249718457740974 -0.1996682719610368 -2.0632012721578916
Ni 5.34791813005834 2.6163273791641766 0.3332730484511393 0.6846719163346273 -0.033918250013999646 0.7546478313031326
Ni 1.5478510391378428 1.2200998510609384 6.925719616024837 -0.3397391439744149 1.6990705867129898 0.2542198819546719
Ni 7.097038430165368 1.101886144962131 9.294803511499783 -1.2127147991868792 -2.0351615924118565 -0.9187865428989919
Ni 2.4825970997182445 1.7094911174739953 9.246505445165775 1.6161615086225842 -0.6278489938083123 -0.08170708736250444
Ni 6.621142211698577 1.619159892354586 2.5373176068865977 -1.0825449883372968 1.0447045204507557 0.4365584043880094
Ni 4.188873809685471 6.864280723988228 10.600420261196195 -0.24307466397112976 -0.4826927368522268 -0.04423865810340123
Ni 8.089152103472813 7.309599094274477 0.12783598488748477 -0.5811117376527735 -0.2351826628175627 0.16435674114393628
Ni 7.510768189570645 3.8877120548090374 8.193885331177793 2.0378733349160645 1.998657326838235 1.1235111463370135
Ni 3.087916473691301 8.250482578819645 12.465844745435543 -0.5481080290332431 -0.4772710516160232 0.6074863709915602
Ni 0.05519219642855349 5.150327681079907 10.246654226643118 -0.538792150948956 -1.677178671735905 0.17343427796517227
Ni 8.648786824580538 2.5171269389977606 5.741304241274175 0.8682507389329692 -0.9005131985111008 0.7546730281141132
Ni 3.8205191001562024 2.606319917832903 11.423700139650924 -0.14164670114093025 -0.2888665254942638 -0.003969011950077036
Ni 0.9828437955683774 3.4914475463895487 12.85094260250786 -0.029917870605354925 -0.7421237306941929 -0.09748209080857406
Ni 3.0832997467623153 8.664430881511501 8.093981910106214 0.13565988742987606 -0.5855854571534109 0.2527615522415905
Ni 5.756229837150508 7.881271908084608 3.6712221645266387 -0.08773529583445536 0.2024746310615803 -0.03563317582257734
Ni 3.3453240414005205 8.462305659336549 3.7214670873052555 -0.6697296932024982 -0.054423826166519175 -0.10258007415677173
Ni 3.5597423234455534 4.424399730825946 9.640012665786257 -0.19603478897350754 0.553214497021873 -0.7649214453149988
Ni 7.045908407076105 6.146238543991667 11.583203957360764 1.6022009326774342 0.21197639990442846 -1.1179858456434102
Ni 0.5206475093790217 9.056898200326676 0.1584429721729039 -0.23530684710025282 -0.5154524477817509 -0.1491203838101561
Ni 4.697105328595711 0.23332682931927215 1.5479366352584196 -0.14504955617489212 -0.94684730569095 -0.36801305121844363
Ni 5.950023096524628 5.899157146573316 0.348259654328309 -0.02069455223487404 -0.5697896277717348 1.5540940498678784
Ni 8.15725565515306 -0.005605635300756881 11.303166232326266 0.6877009329689382 -1.2042787526043839 -0.04448985488225886
Ni 9.044259113586177 4.990900353520369 5.887146371781732 0.5708633204518878 -0.02865468762221517 0.07912544267825727
Ni 8.17615054347189 8.79509244897505 2.6665012753746544 -0.18788336351096674 -0.29479728915640196 -0.37356843381903404
P 8.590645204380193 1.4873873965175932 3.787570967913304 -0.4067647180653446 1.3307754854777534 -1.6176442638156978
P 1.9981503751640424 3.0712616540599105 1.5865195419069529 -2.1558553454502034 1.446076349635303 -0.9859437574717793
P 4.7666111996981755 1.155511203906506 8.271970847472545 0.13861434207250967 0.5368949339262431 0.8532077285569176
P 8.481919919307034 1.5902120128531143 12.664771040253193 0.8324964641514953 0.15976243690503453 -1.7222691363166405
P 6.3975633235577645 7.845412597145068 1.5518950005365857 -0.1731673974570308 -0.85118067082456 -0.4895943490680665
P 2.081005598688388 3.436538545636521 5.818536528154243 -1.047632492730828 -1.1284036985426245 0.5624678972993409
P 7.050388544450978 3.9104496625835496 5.755604256992675 -1.5678551082077128 0.6980305970297205 1.8891874675401659
P 2.2963071598500115 8.531319808044211 10.408330728860367 -0.09295232125902056 -0.546896268113329 -1.1985166533096263
