# total energy = -340888.68459545827 ev
CRYSTAL
PRIMVEC
9.10131653881866 0.00000000000000 0.00000000000000

0.00000000000000 9.10131653881866 0.00000000000000

0.00000000000000 0.00000000000000 13.32069672973430

PRIMCOORD
 96 1
Ni 6.43320199294266 2.1989873280471928 11.364846005116377 -1.429184716086287 -0.4590367879961836 0.19699046801855752
Ni 4.67050448305267 0.37100516340985945 5.941364108632821 0.8936452677466737 -0.47377872219204853 -1.504188423286687
Ni 2.8531262624905813 1.6610904103654671 4.6777891769311575 -0.11273284632005745 0.9622333012287171 0.6102917016508392
Ni 3.444793759175431 4.640788684060592 5.206567485421409 -0.5449674265217324 -0.8419802352722143 -0.1401372064749393
Ni 3.7535832318257345 2.763596610213375 2.586613315995899 -0.7440448589763057 -0.039770080809086346 -0.31711189349320223
Ni 5.095900025132227 4.577780268617357 2.2518241119579474 0.9774807143060907 1.1178878866129651 0.7761664221011988
Ni 5.3049026615959605 4.755356058551338 11.705442759334067 -1.343473392660396 -0.13923192105185053 0.5408528901327265
Ni 5.797320299778938 7.9327440320648215 12.314851452642273 -0.5409305374481974 0.8289869083363401 0.22736059566998265
Ni 1.984496597619531 6.47631493010207 0.24580290036712482 0.3955511087377123 1.1069077334523774 -0.8412497848640931
Ni 2.6650202491465445 1.5180905225358994 0.23564219041467258 0.36409674688317295 0.8258514480311518 0.014537788604858834
Ni 8.424642895196481 -0.38210330898135736 6.9296396827075055 -1.1813475977295074 1.0146902334768524 -0.10154237692087674
Ni 8.783171063556344 2.3802673538739065 1.0476289007353088 0.9949372192196413 0.41244814160336707 -0.6267305639331529
Ni 7.081652604454946 1.0493272064296189 4.9524350600198135 -0.09741189969227095 -0.1264864484607241 -0.921887807532135
Ni 0.9231465518427346 7.281699545295952 2.320559075862381 -0.06348593636878744 0.42564175747550564 -0.43917167364114035
Ni 7.375115459799687 3.993084380516867 3.7123315139293807 1.5595208773104046 -0.7843067918201461 -0.8659822546137667
Ni 7.625947747769575 4.138896575203572 12.469691243353553 1.0147583677106267 -0.48578088885924725 -0.43003294456466584
Ni 8.347035967782865 7.189166458511125 9.038599516454562 1.354022886041468 1.010490593573208 0.3033582913525356
Ni 7.228165600526762 0.652872941291842 0.07446424276063986 -1.7297407621033372 -0.024584888428215726 0.07044616973670448
Ni 2.2160522968405 6.563578354523526 9.321397448902237 -1.4236869261965095 1.7724912656969862 -0.6302925702527984
Ni 0.09448804960978903 5.106848909110013 1.0942886210087206 -0.6235809625605777 -0.7947269587122054 0.6989749632208607
Ni 6.263016472160768 2.2150784559546954 6.820689640877681 1.5910667704374857 -0.03997319795882793 0.8860823677977514
Ni 3.293529875791558 4.301637218933236 0.1414681362306804 0.11894720266088545 0.05318069778803745 -0.1019522107647857
Ni 5.928533982495262 5.692900893397279 4.46363246482601 -0.5912889352960914 0.8328813582947399 1.044322968741621
Ni 5.174535401331786 2.8610535093273657 9.081731566379021 -0.3838042526144293 -1.2195786161862479 0.15728080813376139
P 0.26792274044992653 5.790212171444232 12.222978211317452 -0.1619123933685018 -1.5941749770491642 0.18788670594507642
P 4.227889249796081 6.281974514825547 12.88452379728297 -0.5767678588617808 -0.03025108557505758 -0.9916168965971567
P 2.357186414748666 8.669905177352234 1.3535423573116472 -0.15830590696416608 0.3556858971116584 -1.1141435890791842
P 6.565380415228098 8.112804481455106 5.603710720232601 0.36704194555442593 -0.8390365792628582 0.9907005554304745
P 4.854678727586729 1.037222455232233 12.644777823172884 0.2006198372410287 1.3929753560452656 -1.3508519445126541
P 4.2115068797545065 6.524797644108442 8.029782270611081 1.8170279146567803 0.12047263816647637 0.729895306948801
P 4.887898533504368 1.2168005348379611 3.551523989864621 1.0860686852198391 1.0365009015940405 0.5229412999596285
P 0.23439075936983006 5.6113986024404445 3.441601927412331 -0.983789687243254 -0.5981039013353957 0.2532618889167767
Ni 0.7103240927643065 0.16650494831255144 4.488182356464979 -0.7922628134424291 -0.1724361757179611 -0.13048708497968495
Ni 1.6492040907686356 6.896941382236191 4.572968402483481 2.3566757287378124 -0.13455662706336827 -0.09334647137364568
Ni 6.440719680528405 5.898863690086632 8.913864150958013 -2.4998483796049658 -0.6490233138930822 0.9041034869655203
Ni 8.48785153960689 2.56079197041537 10.05967077508914 -0.3270173255323723 0.34159239513306977 -0.49062484721510985
Ni 2.7009977540211803 5.312165512314393 7.4211071434280695 -2.015827925080251 -2.2216920414393546 -1.9467069019128733
Ni 0.5185493386626261 0.2734344978372475 9.066505973688717 -0.1317296991375344 -0.4824901339231174 0.1788593056354855
Ni 1.4085106695911442 1.445489319301654 11.066528507449314 -0.02178572841652377 0.8017517267694708 0.5323888185257735
Ni 4.637494007418898 6.926939322045652 1.6015477763176948 -0.43508207695279905 0.4856073393958605 0.7610997575760634
Ni 6.020029519177456 7.991210890479864 7.868136515279195 -1.0980024605429477 -0.42116932352644887 -1.3111775087411677
Ni 5.236142214004796 3.1372329642782453 4.681651775734293 0.22323268954453812 -0.6351295866301255 -0.024998836037182753
Ni 1.2656928080953718 7.387056387296657 6.931291571686697 -0.2170687268256713 -0.23942009793767796 -0.13714469950551864
Ni 5.263182225890085 4.380691255700524 7.1638839108786305 0.10862602324053551 1.3028975281205626 -0.49502400472407
Ni 0.7968029836871036 7.551071215362889 11.157362378408163 -0.08330785619072105 -0.34539171427450194 0.033582978161767967
Ni 4.601461894644123 0.5608941246934208 10.487131405925606 0.1851857620741456 -0.6849945897813686 -0.2622221834338581
Ni 8.433671401352727 7.1960834591953455 4.902935728939195 -0.7617695299495784 0.5548674592442637 -1.346306748344133
Ni 7.481864803253926 6.351963640169829 6.902585108715514 0.18284194443231738 -0.9149643409394242 -1.1174088900940173
Ni 2.477551327970791 5.33272538671657 2.264159126467584 -0.04166909760401211 -0.37710421488643436 1.074253694862782
Ni 2.4620972922315727 5.3086888093389035 11.299134498616281 0.396354321365298 -0.45940548418951205 0.9242876752228791
Ni 1.393839347087245 3.565841271149288 3.816499723970402 -0.8442386922890881 0.36956548330722805 0.4746662670033245
Ni 1.5087798755622712 1.4157280137261268 2.4382600336894127 -0.10045171495985926 -0.34219300483154613 0.5671707020916491
Ni 1.0457594902872314 3.173601825770541 8.276335119473444 -0.3730930368445123 -0.19869433808354167 -1.2585231157702454
Ni 3.874921985933665 2.399634955789724 6.935061337059597 -1.4468106566981662 0.7751675485230392 -0.17342142244936587
Ni 4.196180262448944 6.930980306655908 5.810941330336838 -0.023958310587810352 0.7734302541169583 -0.08361561723912697
Ni 0.5576112797634231 0.22251263095801943 -0.43261743687288395 1.246951608882562 0.3197465029025719 1.1870541611959813
P 0.413280779433812 5.616304212136228 7.9700257556211 0.7886540130452483 0.9076061008021401 0.6001438145835599
P 8.37423980336857 1.7715166857623703 7.886066109158029 0.15603150910769256 -0.21055457985623738 -0.5349763767472916
P 2.316230489644729 3.2266351981217944 9.916579874092674 -0.5346436759982212 2.4696942246190883 0.611158934747141
P 3.907641219433365 6.111761690093585 3.7032074439478926 0.3247979492835503 0.32179541501180065 -0.5808530846747482
P 6.5443472723580545 4.080893883939707 10.171018103735049 1.5013836068480402 0.15025501163523156 -0.5383774320090405
P 6.381051448310314 7.880593487432475 10.102096562838474 -0.8434768744223989 0.7074989415314719 -0.3643276319470564
P 2.626485274282085 8.69355039811224 5.348885684630914 -0.5434520183184705 -0.3285317052943697 2.0311689263126955
P 7.170754494847733 3.8255746468417655 1.3572192892543116 -1.1206857610730763 1.1808194931401792 -0.07724853737051857
Ni 5.189261331735823 3.046265303964057 0.5442532772578569 1.1320384670817343 -1.547650865345696 -1.2517724273099733
Ni 1.498995960120775 0.8079766701871265 6.9005873697021105 -0.16756162123447915 1.4714541662784593 -0.7723251939782376
Ni 6.87850211462273 0.7214267889941492 9.028954851158419 -0.18397554381612832 0.7258149662318404 0.6628687044166068
Ni 2.770449901680767 1.3755639031741995 9.00983935571491 0.7343690264494385 -0.5361752821513992 -0.4440089471287837
Ni 6.817040923016756 1.828117774256011 2.3134982743744623 -0.4546335167221654 -0.07531301091070255 1.1428944359596318
Ni 4.2169949737184345 7.089352318374486 10.416079246791957 0.8506422818225866 0.5355921559544196 0.7305902761332965
Ni 8.591424523536402 7.3999802569961215 0.21370619692900406 -0.9748473904483018 -0.527003385844144 -0.265099247871337
Ni 7.918655193829067 4.189445288098519 8.269421759315899 -1.109134051679735 -1.0538064827520237 -1.2200396149830666
Ni 3.316419687266314 8.459546444701726 12.476910407751873 -0.48695382612142585 -0.40551978991465 0.349942566869978
Ni 0.36265743574200815 4.88009870510124 10.066078102038734 0.09148216447139729 0.30005442379028324 0.5669457305650365
Ni 8.783944675474974 2.814773313959917 5.846480151747028 -0.3629235525106782 -0.4079865062875877 0.4780976612823766
Ni 3.6065605620192915 2.7214029060396308 11.379538260648662 1.4176510044150745 0.12862020697427523 1.5207877224062647
Ni 1.103871397351373 3.5681074990050394 12.58031956798097 -0.3066346481109622 -0.24603708903356336 -0.4409405926161051
Ni 3.2683192285609124 8.475000480440944 7.708061647207963 -0.4503924820576243 -1.0660763012583123 0.1592908965852547
Ni 5.896351726680257 8.326831044731591 3.556506050620598 -0.3970251221800775 -0.0864353460761092 -0.18664203490469794
Ni 3.373821691628654 8.83262761844852 3.3265512730053586 -0.4020092056582303 -1.4249552513859718 -0.634852421709339
Ni 3.9662172936486844 4.905946444500168 9.389705561053923 0.6892176267237807 -1.4771828412321206 1.1189962891857954
Ni 7.233926733991383 6.3281363930760275 11.178595750245384 1.6310579661184428 -1.4189769223153497 1.0854418502691177
Ni 8.630987947186805 9.072420009273724 1.9612199801854604 -0.6006019851669011 0.8032619927664102 0.9188441356098046
Ni 4.784225435091268 0.35523622211317485 1.2874549664322659 0.018463348911510136 -0.11452079145841566 1.2400579670865224
Ni 6.522130958318341 5.983214693167362 0.22878980907894947 -0.446188985499238 -0.5369820943234107 0.7880361769555912
Ni 7.976894519326865 -0.1862939411911047 11.100550139367321 0.02411334810843589 0.47280633097645025 0.16446935546240063
Ni 0.4172753473289493 5.231254806942393 5.774588851214584 0.39831761573925595 -1.3229845286784248 0.3278511342875773
Ni 7.148201432090498 6.326589169238768 2.578127248314363 1.5135143286733033 -0.22226004121862367 -0.40451191747542586
P 8.740003518496794 1.977843535119314 3.7613248118020475 -0.03519505984389422 -0.655525119567342 -1.2229981833907582
P 1.822802605309189 3.3674325673124392 1.5370622171757118 -0.325957002588658 -0.3618169497100608 -1.3472819677732086
P 4.850865275893719 0.6933910930630011 8.107668608447073 0.4686614555701412 3.113256001176967 0.7091773576751593
P 8.422030817306519 1.8286638532573967 12.05656245590846 1.5693895425743682 0.8592788744516621 0.9594829921770897
P 6.613626495000536 8.139589656473081 1.4356517060916885 0.8807419294214444 -1.0385259024438696 -0.49435731767434854
P 1.8304295086952107 3.2791862006884904 6.201503403049662 1.54835920426663 -0.08273655706828331 -1.0520403919905366
P 7.142048942008217 4.435062521605173 5.840832784741029 -0.8389918420678519 -0.5401247537174505 0.9412186466502629
P 2.382187731695447 8.737882911708079 10.411403900408427 1.3161240541131654 -0.6846117525206533 -0.8757290495878853
