# total energy = -381164.14412334247 ev
CRYSTAL
PRIMVEC
9.25688027970514 0.00000000000000 0.00000000000000
0.00000000000000 9.25688027970514 0.00000000000000
0.00000000000000 0.00000000000000 13.54837998915139
PRIMCOORD
 96 1
Ni 0.156129314672719 4.870238947779038 12.242600518061344 0.7351686395325984 1.9275948636737708 1.4747397790082668
Ni 2.4083346916903694 1.8256603818491897 0.29597022334660505 -0.9841347292874986 1.1966698299088747 0.2848525192388643
Ni 7.237093560314617 8.629522702591528 11.700624081017315 2.5188848274111266 -2.2255628372486704 -2.8979597928706866
Ni 8.18104538170527 4.0250487788102705 7.314620855768599 -0.21885770040529404 -0.07389067664187919 -0.12133884282151361
Ni 3.694855870206967 9.075213702606197 5.784873304610187 -0.26253765779174787 -0.26951460333021326 0.027890555762681
Ni 2.3548021548119595 7.5729146519409305 13.390148157557437 -0.28344638291995705 1.2135156978216197 -0.05774929099532635
Ni 4.981988002801721 8.346956441444464 11.645117051640867 -1.365775398591706 0.4038213191663045 0.5892531358129851
Ni 8.97455438979004 7.5181694637861805 6.0702027444289115 0.4905279166259294 -0.6037832111083602 -1.2100804468878255
Ni 6.483065145310674 0.6478612586044113 13.086610434833675 -1.1638558687026472 3.0089926257805018 2.0457725351584832
Ni 4.430518635346347 4.542850873807269 11.69253634498573 2.5778001136900963 -1.827912422779768 0.4080209590699489
Ni -0.013403036511542534 3.1591694831039527 5.135431896594545 -0.939931295297407 0.2017009861203494 -0.2606083019795189
Ni 7.26805782382115 2.83986266534779 9.341784075161545 2.0667799906480853 -1.0005327110295479 -0.40920109542097916
Ni 3.342122458871703 8.697755164865566 8.085835594128664 -0.2279259812551494 -1.4772625454301203 0.6216073837739745
Ni 3.118309614907289 4.834498134206922 6.481721046338731 -0.8439818390832755 -0.1361900489017332 -1.1663071584566171
Ni 2.213051551799838 1.238764934740751 7.349833101494309 -0.8762052178933555 -2.6011323606581334 -0.007936738348573428
Ni 5.2614346953982025 4.090087617493948 2.6283994249540976 2.469774957258353 -2.1445365780032746 2.00145031620234
Ni 6.034939585863355 2.200462195037839 7.345186147748336 1.9021064895946789 -0.5370353161588493 -0.09482048481601088
Ni 0.6691418999721752 2.7861820183898263 11.445969164362001 -0.4910254250876382 -0.9250029561223488 -0.16977122729128827
Ni 0.8601566925075913 1.2185479088817768 9.592496486636763 2.408958083081296 1.0135679469469512 0.352407997691335
Ni 2.9848068919502713 7.662252800551261 10.372978287536856 -1.0155047589583477 1.4305939377289878 1.6924469107488853
Ni 3.8022449347628102 0.5241263953939088 9.994043277440682 -2.8669654013717008 1.0757652464113021 1.111445730532047
Ni 6.617252877385624 3.5402752315535735 11.396896592254127 -2.5355340059320333 1.4528074977115495 -1.3046335369750628
Ni 1.947064362682728 7.2661509065469065 6.4534995963679185 0.6861359024746635 -0.08309059797359239 -0.6544203165389375
Ni 2.6768582659198237 5.58135246723252 11.921002622512098 -2.30031817588369 1.7288107940899 0.8236233300315816
P 3.812020200013303 0.9529772793634096 3.995715577554813 1.0260856197979877 -1.1924079693087273 1.0214000413968602
Ni 5.091293241511779 3.293875600457338 9.629809118428133 -2.689491920340149 -1.084098963087978 -0.14414144253832598
P 7.64731219627636 1.5049002339374136 11.268282427610352 0.17337642814404336 0.3340714041656762 0.3116809522856181
Ni 8.085097820794891 0.43654520260227525 9.419064211920274 -0.5018795941933227 -1.7328494829356482 1.9340282780039404
P 9.077370555639686 7.413492665062151 2.574869665139679 -0.026779067866057108 -1.831575473453652 0.9821992028276827
P 2.5765599714225766 4.6496474980449 0.3913188641227923 0.9376736096114818 -1.013113633018352 -0.9622695537832912
P 6.588269586193111 5.012841183748589 13.226239360956201 -0.229518779663566 -0.4473241275449457 -0.28902953343468935
Ni 0.9434519498721621 3.286016509361061 2.7871725045468367 -2.953901598343629 -1.6336231557424576 -0.7903941356648064
Ni 4.33808868882535 6.087555691624531 9.908526368882818 0.4242546473199919 -1.3401813521726855 -0.6501034343311384
Ni 5.10442875419213 8.29580292271887 3.2637777809161896 0.3300553410277477 0.058919400044027556 1.2016521136148144
Ni 4.94420141875578 3.75006390236032 0.48214366765663497 -2.760787582561342 1.7198021628333866 -2.493668733156815
Ni 7.9563531341435105 3.044485997130128 12.864700805391514 1.241299038582475 -1.1917834483508507 3.4785503679126677
Ni 0.07369309576955518 7.372364347346298 12.267488565554219 0.17890918503681444 -0.3299488973568705 1.6398418829586596
Ni 0.8194042041186039 8.683073753229882 8.052763539052492 -0.3353286736115451 -0.2648465084305826 -0.8535373439821946
Ni 7.715988988789056 8.636548674490319 4.293034528313346 0.2964057712941024 -0.9444186416447994 3.067139666434879
Ni 2.9954060195182777 8.162402025441546 2.338138845174258 0.10344190793643476 -1.134849197057652 -0.8445413111311713
Ni 6.198814132008694 6.074105445025131 1.6766662702589328 0.03294868701187874 -0.26716718614395923 1.4136323701739846
Ni 8.561123616477992 1.6696912111999873 7.645648734945381 1.2993738312380203 1.4021788769214045 -1.794313760888716
Ni 0.36539219469705275 5.405962362401941 3.494086177556997 -0.5061116299967994 1.557722647759401 1.127289125322207
Ni 4.494168942034217 2.878648992430712 4.758258470757055 0.06385926054780615 0.27768068408077334 -0.629976067453644
Ni 5.324946148886491 8.340208175944833 0.7232548432248336 -0.7666011470102668 0.32350237040057833 0.7414436739080328
Ni 5.799416788734288 0.6431680204585781 9.566307847507813 1.9140315231670395 1.0224282255510584 -0.5154920427704348
Ni 0.6627814977433742 7.921371384729104 10.2622474893111 1.4599960450401888 0.5811911847404572 -1.1092764907948702
Ni 9.055191071226634 0.9697970302726386 3.435421626422077 -0.2079893902322224 1.5858083502520237 0.33234310862065986
Ni 3.900691853265645 2.531941809957258 7.035931375953831 0.19354210445864087 1.0036486309507102 -0.5062116459097734
Ni 7.249192302438097 6.281811317838165 6.994418897719138 -1.9295386176637026 0.9197059693894677 0.019915250866688283
Ni 7.786304249056808 3.83620842738029 3.0076315808973746 -0.6216297523714778 -0.057086717710662975 0.33096653998810743
Ni 9.157007494039298 0.6514196032656705 12.92962485876354 -1.2530602928834613 0.8665566390599979 -0.44294785285412097
Ni 3.3251823685228374 6.9784007926154885 4.543693249884726 0.08970116131157455 -0.13483816285952907 0.7969363076586985
Ni 1.354642558230971 5.257148759971139 10.099408788034633 0.28703435738153144 -0.20042957560709354 0.6116453874652562
Ni 3.8468075549482963 5.626340903896722 2.836298766558547 0.7217119998070602 1.9194136134145587 0.3032469625856519
Ni 1.3153563596295574 3.1114502668479944 7.168379740282031 -1.868296997244402 2.6594110417943684 -1.4774594919322748
P 5.3699068149107765 8.869285150747798 7.525067690741358 0.5670398329407395 2.0545839628025258 -2.201837982827905
Ni 7.204527856572917 8.450920460410645 2.276101086977521 -0.1475944340839329 -0.22372916956498243 -3.287988172017957
P 6.965746637693686 2.7986417788322164 5.073488558573524 -0.6834586127528166 0.2753535786094935 0.4782388148459312
Ni 5.856531738161884 4.553264863775834 6.223461500622295 -0.4811454469697649 -1.214523570260844 0.24214186774421526
P 9.570503065511149 0.9197589655836801 5.771298090131165 -0.41797575628981565 -0.8561524130075384 0.5622714650178188
P 0.46540352591516554 3.498554473519509 9.224996500370073 -0.8639593106464669 -0.5772383707402962 -0.1534624628289357
P 5.319234653943732 6.112864001468138 4.840158716309837 -0.002696315885240518 0.4666626799725576 -0.9217176005028577
Ni 1.9823145616163242 1.7779781931131196 4.728370782391271 0.35552803137755545 0.609913235265498 1.0514068721715957
Ni 6.468735495113928 5.03353956736611 9.104876448788659 -0.5431038909504324 1.2557260126410825 -1.548338892551656
Ni 4.27988142756105 6.318394507487738 0.3478096768781261 -0.47250139814152164 -1.3403636433868207 -0.53795242865648
Ni 6.034541540024556 7.565138872764402 8.95580365371864 0.7203693697362368 -1.1942789610791948 0.9724655204796864
Ni 2.744979645634197 3.586800310293136 8.787857931761588 0.3161374453950749 0.2918068390695103 1.3848555551516084
Ni 3.0247040446298405 3.4870481717142408 2.399160197950063 1.6906594798311594 -0.7052065459528694 -2.0191644456526516
Ni 5.941741318304676 0.6467754265836891 5.276078153826001 -0.2890591011210441 -0.0011860498883011833 1.754928060002242
Ni 4.479052457039846 6.728974161768391 6.936593945597684 0.6604405545910884 0.932099200847498 -0.18525621030076483
Ni 4.369571337610318 1.9329198500854237 12.28409911097608 1.8299230254518937 -0.33896344215065494 0.40992537518151334
Ni 2.0062065688242057 0.8798914349200214 2.5869545219432006 -0.2690006398082722 1.3289124641270855 -0.28955558114148844
Ni 0.32016493052957257 -0.18264009322469543 1.4677097929616743 0.34700019641220237 -0.1093076226885924 -1.2307708853576418
Ni -0.13266867807153562 6.078122930933005 8.055175881973211 1.4036809153882277 0.4336067779588532 1.1794992316668589
Ni 6.371788191166567 1.5578958717774447 3.2593335528416043 0.6750523909669922 0.12100999872718515 0.34670477665897065
Ni 4.1863591692033495 1.3775163086419258 2.0754359970712346 1.7635355991655952 0.4863948682941623 -2.4816945915140742
Ni 7.73395659281482 8.88629929613644 7.313659065939501 -2.3500278844039917 -0.9617087961838147 -0.9522733618025278
Ni 6.299167967785773 2.3586159893604473 1.1739371529204357 2.161061572241491 -1.2470418546035231 -0.08413755118086799
Ni 8.828203117431805 5.400491546338455 1.1755608096675345 -0.6140030890641555 0.6257818268666384 -0.0028932623873950173
Ni 1.4174319750814393 8.476793439932546 4.330021317929702 -0.7269128272817094 0.1440311422127068 -0.01772724207643399
Ni 1.94419472989139 5.984063773536925 1.808722142876318 -1.4905790600333684 1.1663621800642685 -0.06750611327177405
Ni 1.8107660619741486 0.3523566563204009 11.863245245614438 1.4127142292350896 -0.4688455465564893 -0.6333593821035802
Ni 2.8464998482877553 2.4897674648045625 10.862562635315031 -0.6733071261411113 0.779112134993084 -0.7418311391544384
Ni 0.7445604781685219 3.417547516884031 0.3226929844499416 0.19747177853035025 -0.3902970594276246 1.298171840510119
Ni 8.344346001292342 5.070520802854482 10.382394385844432 -0.613264411125918 0.3553997333298073 -1.2719591866704933
Ni 7.501636676156085 5.750420123042185 4.636160223925612 -0.5547149928267995 0.29117794723625984 0.017967383111698088
Ni 2.203470681028758 6.586677402837917 8.565055013402125 1.0555694881897177 -0.39323480189970983 -0.5710168153106165
P 7.981133801828709 7.400449721181522 9.955227328341849 -1.287816465417724 -1.5013494111759949 -0.27064537450054676
Ni 6.331576304567948 6.353820587140803 11.267401172637014 0.22916396742730857 -0.7105858079869117 0.08485411763191837
P 3.6906902742195413 0.32835449224085217 13.562199305782094 0.7938862079784651 -2.783879174273483 -0.6808731114138273
Ni 2.2424976869909536 4.241955990315529 4.354273417768495 0.4974724662645626 0.7857934036680015 1.4999530450491005
P 4.338060918185434 4.854530022466456 8.10615814841932 2.051504295435938 -0.33155429417077736 1.4528758890556397
P 1.0296705299319087 5.289973656352056 5.98980674187159 -1.3610453401058884 -0.09359226883586462 -0.2390945962774592
P 8.418549151148358 2.1950469202541854 1.6875319959701343 0.5845109931423095 -0.21414332564876024 -0.8731080670252706
Ni 7.2446194037319 7.011114606436742 13.469121377663054 0.9265214496494043 1.073561553891764 -0.36132689744751967
