# total energy = -340872.6541362936 ev
CRYSTAL
PRIMVEC
9.22571073574796 0.00000000000000 0.00000000000000
0.00000000000000 9.22571073574796 0.00000000000000
0.00000000000000 0.00000000000000 13.50276021089853
PRIMCOORD
 96 1
Ni 3.3833080574602015 7.68075490568381 0.7376472508604922 0.08600751451007123 1.248862966972662 -0.5845570158888965
Ni 0.36749789077315326 7.132064975301486 2.5070306616810893 -0.11508386305073727 -0.47519874246802674 -0.37155088916837303
Ni 6.669524733352935 0.7895898483995607 2.5452297176845193 -0.2626415303594638 0.026664910885696013 -0.9125796427573316
Ni 3.8594562229940834 0.4870455752552326 5.51146183653753 -1.646974380238383 1.2708590116277791 -1.5758795211740861
Ni 7.200667361593362 6.481984482069822 3.639547564999695 -0.06434699881750208 0.3620951430721119 -0.5925328350055216
Ni 5.957512042813933 6.2403631134597894 1.1304623374999934 -1.207459464325211 0.36124487925667464 0.9473342726296974
Ni 0.5077406899580209 7.625612831602781 10.374156921076311 -1.2366934214896637 0.2618491163651555 0.1962762155603523
Ni 3.9821028237692557 5.086484999111033 5.146712285043068 -2.7636836731622147 0.76847111033947 1.9765538100709767
Ni 2.7547788249033367 8.514796074367329 7.590549594736064 0.06796942606143778 0.47864350648351767 2.0659986323973714
Ni 0.35820298703605485 6.4989782415574 12.544847685424747 1.4235938522620708 0.4182390372535313 0.7927166131503961
Ni 0.9313078387581871 0.6554987532463529 11.813943506664943 0.4189386344237172 1.0176968815136602 -3.419305209098105
Ni 8.168223018498507 0.6520225053772326 10.344869901807408 -0.5262783347526613 -0.22343323559111844 -1.4415404094381623
Ni 7.5666605389178585 8.083992277933039 1.0711769966513898 0.38948227683581316 0.7005338230675484 -0.14262629144538017
Ni 6.4466684607243 4.3987451539638975 13.142938529991724 0.20642050308320575 -0.07212869964544996 -1.0065040981216342
Ni 7.630917615373333 2.7033454866062416 1.0319751058725526 0.03994825825816346 0.887773382346929 0.9978106841126945
Ni 8.245663635837666 8.89299486721955 4.066234849228037 0.04702959058497707 -0.1863764399481371 -0.36295132042482003
Ni 2.8841325175066688 5.805370844274489 7.3302304778342435 0.055956717871277824 -1.21846275741425 -0.638097668119514
Ni 2.9000560945292313 6.852830383330512 11.30420083744047 -1.1404727138920165 2.4810775267553655 -0.20027736629994541
Ni 4.925081186822658 5.072258952895046 3.2951056483499985 2.4719452254367944 1.176214390268 -3.116311243063523
Ni 5.420907793717563 6.6107477291752135 7.473845274355002 -0.8045837969016272 0.2127328184544788 -1.3156622839853986
Ni 0.05727690358451791 6.396969556077403 4.897275816725149 0.43700603344838934 -0.5181983859580043 -0.2000253981901394
Ni 0.9577856290564228 8.850722659851426 0.16750846519441664 0.06949023358133839 -1.663904323224502 3.1415437923780667
Ni 0.6229070843311691 0.6722102059802288 8.207125996244011 -2.0717442766318963 -3.8449191986594684 0.9749404643827402
Ni 4.533569693134077 7.539896751581559 9.46912113926317 -0.7707141407373759 0.7483339732699628 0.23245703635628354
P 9.129477514855326 0.020016102380157535 2.035879141173522 -0.0823632328892646 1.5391346003445687 0.7278602787966433
P 8.50226755895792 6.306686749158053 9.147391077720162 -0.8498614377925042 2.516255874428712 -0.10476576895418087
P 8.15741971102839 2.262033605450805 8.633475619453218 0.22086778885678734 -0.7269732482059996 -0.015700441454392314
P 5.579294798539903 5.980142711664655 11.268755656142273 0.5794482339074214 -0.2719502093548994 -0.8951653039356262
P 8.537168423312703 8.42051853462598 12.170240461827962 -0.3774646835496467 -0.30755561726333486 -0.5382841009642859
P 1.366945907706859 3.073001271160147 2.5014804740004557 -0.7590963539927894 -0.8463613950590456 -3.8616254556705565
P 7.036837187336892 2.125437729786806 5.3468631605626475 -0.29579333452108414 0.045434992404347556 -0.5896930515638812
P 8.575030740868089 3.4329608335525723 12.547440110189138 0.09567897616156426 0.2746933193176753 -0.5380447312599701
Ni 1.368016090171875 8.673201530611477 5.330647128504387 1.3227518438423282 -0.31690877634346065 -1.256281113813604
Ni 7.870647713247777 1.1869522879442884 12.588204836395334 -0.5422939934546274 0.8708480673465002 0.5814642358961858
Ni 1.7035644215088541 5.697789829407686 9.3874431529052 -0.031192109332088217 0.6938954918154243 -0.1146118085103252
Ni 1.1137462719106646 2.7087886560403738 7.954746526147298 0.6193054751136754 3.344312043420666 -0.9138096585096909
Ni 3.0257287284813454 3.320665480413156 0.23163269141285459 -0.0019267847090676494 0.19192256657734688 1.6446675864820772
Ni 4.838267247203705 2.906504866452042 4.975618708590848 0.01949796082361158 -1.568491456240131 0.29502354623459515
Ni 0.2556121591979327 2.7565593871080614 10.291034188390569 -0.480457676874121 0.21776369601016693 1.2219165202908053
Ni 7.541483573857271 5.786245945567785 6.846250606312845 3.2028422341772322 2.0939506375256065 1.5843939864030006
Ni 4.215024346995582 1.5437658829180039 7.443626458284664 -0.06265675559927274 1.3105190492215624 1.1068054035465582
Ni 6.66982918181281 3.3589152778265654 10.688447369345278 -0.19050280341168482 -0.8957774835983283 -0.1862355434948986
Ni 7.883978865505949 8.292973081360088 8.317511627226029 0.3801388879477002 -1.2248966859650516 -0.30018323605866365
Ni 1.6009376133982012 3.9473126679453374 4.232386212348282 -0.9215947017717483 3.669941487466576 0.9436709648454973
Ni 3.7940920612299722 4.956716149516962 11.750237205150516 0.5763811649463234 -1.2846079857827555 0.40625409697751325
Ni 2.4332074455879003 1.5218917223615172 9.527871388879266 0.22920973306357945 -1.6062869298213498 -0.6470872732126339
Ni 9.16398167364118 1.360331072987753 5.740739203956259 -0.540713793451701 -0.1379898211146333 0.5817432005891853
Ni 6.312093015748564 4.726802208045766 5.560788022463853 -2.503247635094502 -0.033984584475560825 -2.0057116625818554
Ni 6.59105083639238 0.5284256563788133 6.87050130999854 2.980066943885087 1.6330346302288392 -1.7376656733773685
Ni 0.8757155499849786 4.7239606890869315 0.7194227815381457 -0.9104728808269739 -0.7709177721077497 -0.03632377413169873
Ni 1.9280351935459177 1.5813145263026098 4.265913368349264 0.24731595574598697 0.06872867282496552 -0.5945709484814728
Ni 8.362691778671506 3.7789618953452657 5.594004272007326 1.1488802212294214 0.44006050400399693 -0.5505428637269809
Ni 4.660183349598532 2.979618625376613 12.106345033239975 1.836632319151269 -1.9020550675314534 -0.46302636877155096
Ni 6.476504409792069 5.069002276945473 8.854664806121264 0.776678842961243 0.9263553563851852 2.0335209714846396
Ni 3.4469008827304934 7.5056878155446745 5.701850987348203 0.8946300002574463 -2.484508663924102 -1.9281288818003695
Ni 4.173610130741651 5.134283407311436 9.193260389770266 -0.20163645143100112 0.04404453981472414 0.6247238179157693
P 4.439264476260013 1.1670708809433483 3.552252043271484 -0.4225170958035949 0.4944174814883226 -0.16406749203829163
P 5.411617502835918 3.676445795765477 1.402585751505157 -0.018428896129148907 0.05774106346521023 0.3759302491829913
P 2.358931247089261 8.344720093827965 9.754123645692145 1.1260508820397317 0.9123880955718157 -0.37798224661601354
P 2.348644579429842 3.6856991838035014 9.8265666954339 0.4470585325883849 0.4082646996496388 -1.4722982594463097
P 2.1455497795603784 6.845154591857295 3.91195236318747 -0.09184828956156439 0.24503924389666834 -0.3601367337941604
P 4.93559849725471 8.681458541871729 7.08699091953142 -0.9652798013645247 -1.4550908944290875 1.299205423980956
P 4.554844182481719 4.201711646159222 7.04988603284136 -0.359438165065239 -0.17405031428261636 0.8842759107166318
P 2.032497918126727 1.1410359247685675 6.676764148700331 0.24177265733025463 0.3638311519266121 -0.5337512460909388
Ni 5.996665959896062 0.43221994305825523 9.075948095040545 -0.8988414672356325 -0.017123032833531802 0.0006363480324182588
Ni 8.05935040410496 5.094197693427871 11.006977954346324 0.9851999373272196 0.31274358922217754 -0.3625875093274981
Ni 2.741770572526852 5.653091260071466 1.9560370712857102 0.24624303439678236 -0.2215344759065088 1.2211804134557291
Ni 6.646017621966209 7.806113865465144 10.682574281782959 0.4655375652291789 0.4147343665343825 -1.9925825813990652
Ni 1.3968464367509643 4.615660068769513 11.53142456161168 -1.0106667141397563 0.5308111896260085 1.288988374238638
Ni 5.538821604798313 8.983231545584374 12.408226900341301 0.5658226727041867 -1.2070673710931148 -0.5628692465028177
Ni 7.30300817266595 6.673454886198597 12.525903610651785 -1.2547569638595941 -0.09710439575418116 1.6298096955336383
Ni 4.445113576973979 2.7883050583332287 9.44484368101585 0.9526402582236433 -0.08730026517956578 0.9156050598472167
Ni 3.6035257767699176 3.336441446061234 2.774210017212098 -0.5890394771402824 -1.5912099808835691 -0.24379431574597368
Ni 6.488756153874318 3.257229492228254 7.562518194721375 -0.005319355330384388 -1.8535514635041113 -0.6932522018044706
Ni 0.6381737907372738 2.202195644518973 0.35015724455553526 1.1675767691976602 -0.3303885559974504 0.6875862617679448
Ni 4.1310057977809365 7.539693785941641 2.9921443730727506 0.28434344081292967 0.24021636858672824 0.4858688205873633
Ni 2.55979342491964 3.1225617901434646 6.005757897993244 2.0321204915926874 0.29579179185918736 1.8116072578618412
Ni 5.79897742661711 8.985990033145061 4.53517219911833 1.2962836223484708 -0.7329893724930925 -0.002912031440472404
Ni 5.778099642838397 1.6071003882829473 0.20816894086738325 -0.3663611174373174 0.8794486645313175 0.6533311972398167
Ni 8.698738298397373 2.116027504663391 3.434198001384974 0.7513223664743254 -0.25577179982282405 -0.5807674669394771
Ni 3.5933129147977407 0.35386044491292606 11.273711708040608 0.11804243145842896 -0.41062265835885414 -0.712653746259534
Ni 8.999062865497883 4.494461904606474 8.5492596400252 -0.3669013062115036 -1.7305138928239356 -1.2708741811364306
Ni 0.9039369996443176 7.006087892889498 7.124623516885265 -1.0919706525265709 -0.7259334940875757 1.2410020761673466
Ni 3.9414635672313714 0.8793790797854766 1.4930816723464193 -0.8169338338265478 0.37937964118417244 0.23755887635922318
Ni 8.520183889536028 4.740825288621835 2.88788922698731 1.1155756935400207 -0.5405384442161013 -0.5478915421470628
Ni 6.634153357741982 3.3641923844644017 3.439220478401824 -0.13265169673117155 -0.4884190978130427 -0.5202496120600782
Ni 2.4196364248461912 2.5308431440987813 11.635868834770676 0.05138143979576957 -0.4495884980990902 0.44995668007178635
Ni 2.040985572159611 9.11082312740479 2.658585105006956 -0.30900083435029363 -1.0702821118095438 0.14609856626469678
P 8.100718491804363 5.94157001436956 0.9714950354617113 0.8048401358868075 -1.003016139573034 0.6744173284861547
P 5.450817548472575 6.845495943160792 4.680029698898032 -0.8069636099877134 -0.7092064111408818 0.8326134493453338
P 5.908781837812093 1.3508654935989064 10.936344989084192 -0.3860493398948641 0.3455464946848113 1.1191726668626596
P 2.7381448681410654 0.9147043268419032 13.145585386450458 -0.263521618971572 0.3675201707424251 0.7807486421552425
P 8.693940928726612 8.264520988928117 6.060794798969953 -2.013869258691983 -0.1998932434876493 1.7827355691328137
P 5.419182585778271 8.61929570179176 1.0051836414035362 0.43792443149760063 -0.8255434298724299 0.905274624455486
P 0.9678139768104933 4.6385859603692055 6.31987213518392 0.455328485906661 1.2985783319199184 1.543986529120231
P 2.5355298052386783 5.9781868609527296 13.311494113373895 -0.8568689794585888 -1.090013271689884 -0.48873637194314534
