# total energy = -340897.5261183039 ev
CRYSTAL
PRIMVEC
8.98852899361023 0.00000000000000 0.00000000000000
0.00000000000000 8.98852899361023 0.00000000000000
0.00000000000000 0.00000000000000 13.15562075658689
PRIMCOORD
 96 1
Ni 6.270838211064714 1.9274911526319198 11.419526000692795 1.2863959309211135 0.45812661747708844 -1.4644939329105424
Ni 4.560608790908072 0.38678718557321506 6.011579374926193 -0.12633321071231146 -0.3871556855851655 0.3246421404319764
Ni 2.8602487755033175 1.5782508500546806 4.798578296304477 -0.22676461395719655 -0.3455336391690049 -0.2798830910487309
Ni 3.4452941457135235 4.270548962726482 4.894982965507948 -0.22566958112080487 0.3339037682395604 -0.2547024780180452
Ni 5.089538775083644 4.559485224793332 2.7396317059536193 0.28715391367853127 0.2798247270069697 -0.7990050172622691
Ni 7.2548753914129005 5.934793068938996 2.547073147503487 0.2950436008392532 0.29211022924254204 0.05004575170348156
Ni 5.0173878534594225 4.484125398345409 11.466530613816214 0.5563730972555129 0.2325735073294898 0.4124633111120187
Ni 5.643699559931844 7.948052764505801 12.247303897773016 -0.48593515504892437 -0.6949313892791064 0.0552118692854533
Ni 1.8076920392137534 6.555639749829316 0.44515959121914217 0.586501541209777 -0.3135750839845373 -0.5528527428070801
Ni 2.7859945381123 1.6754078591285824 0.49075839841979935 0.3562595102269413 -0.9524093731597598 0.1313895421892963
Ni 0.4004173908243636 -0.048598279300570334 4.892417639354771 0.8309990536703623 0.8618448354066253 -0.2088964754275241
Ni 8.482915177767206 2.3399298020311226 1.2797462989546953 0.5312415922952077 -0.38593029781849664 0.3225124956834833
Ni 6.605490131208153 0.6674548998884607 4.6842819602898675 0.7693386005460879 0.44861070756685323 0.5828055804154285
Ni 0.9338542233993848 7.40444451260725 2.694810406504363 -0.19018912882600794 -0.05071346719446749 -0.3974208149565994
Ni 7.713676872970784 3.863089958347812 3.7965146212113825 -0.35762785132937763 -0.2199015682887761 -0.4009735653048643
Ni 7.520675180044999 3.7967096722889018 12.554698103972834 0.3998829033438468 -0.37020388822217537 -0.1396576957353595
Ni 7.641543928404399 8.836425031580461 6.803968534803634 0.7214317495624801 -0.13825644451245866 0.07034589671341433
Ni 6.811866755163819 0.718458509527469 0.32873027729230736 0.3990712060758288 0.011550166731444624 -0.07958901257823713
Ni 1.8364014005776206 6.312985423160887 9.170533145724365 0.38576137634080016 0.21738882916925142 -0.6635595598360442
Ni 0.19169116540955167 4.667707112965204 1.405440988490132 -0.22751666163187267 0.3668555405752327 0.7839501798116756
Ni 6.241436732974167 2.0895003978486844 6.882441987668727 0.564053496618906 -0.4106239439104347 0.6006711478419396
Ni 3.2250931642820824 4.343499863424399 0.4685648216685392 0.1816893188851129 -0.012174173468688711 -0.2238980910426789
Ni 5.996472354373829 5.605003942940157 4.737115634416566 -0.31110656783938684 0.9263237318163013 0.12187543205127399
Ni 5.296841217517855 2.8375347629277092 9.204211365874064 0.10320459511464807 -0.09100393928339812 -0.03268103517278888
P 0.20779501381891446 5.360713704008663 12.47723765831679 0.28748301488317585 0.11861038814675702 -0.7408890869561434
P 3.966161419449712 6.125817285502837 12.524979330811483 -0.04346475605185418 0.25929112582999214 -0.21607705233636335
P 2.5323022979326533 8.417298916666319 1.4071254388093521 -0.9213725584586133 0.9272022777665128 0.4313886872616119
P 6.026556960662139 7.715888051084596 5.763095987254487 0.9780443001190448 -0.5958457014288384 -0.8231600172419179
P 4.716604710278742 1.0797290592084654 12.50069412338102 -0.7829621048667935 -0.3958028197372022 0.5495321630742794
P 3.8228033717376517 5.990162407073442 8.205634341148235 0.6756961951985782 0.10981284445978508 -0.8502807847181099
P 4.693863732116379 1.097544323523802 3.6306223315020727 -0.052282354343484154 -0.7201937633903209 0.3728914623566674
P 0.19507534654715217 5.575692350138787 3.638726389174478 0.41826834782956995 -0.2869855064214671 0.01688494868079673
Ni 1.3917208979498041 1.0708034499929613 2.692179464090085 -0.013346082289602821 -0.1761100250251225 -0.5806517672972193
Ni 1.7236223282443572 6.580043605841494 4.911782526055559 0.1489046682549242 -0.5280824778409356 -0.8302688603725572
Ni 5.886093219261653 5.544268453041706 9.092743719909928 -0.1459376152068003 0.15988584985677626 0.7220249030617888
Ni 8.634255039158388 2.252759048585041 9.953292894572028 -0.13254396750871367 0.5302910554564803 1.3105894974481818
Ni 2.2701428635123166 4.925534076447099 6.9626646082612496 0.9533802217134613 1.0096925231519451 0.6636366929308829
Ni 0.7221114476797157 9.160479476129662 8.9860390954194 0.30737846825552223 -0.5662103950609088 0.3381885116578434
Ni 1.5178119816105216 0.9567749721401054 11.282707107768527 -0.28588250316527536 0.8529459902550988 -0.32113001351365983
Ni 3.9859901142426644 6.632374821201682 1.5152511497218033 0.6220835520794448 0.9277697202342087 0.6781703677706837
Ni 5.771246785277265 7.676778961762683 7.951178076010565 -2.029384323608447 1.570215123799457 0.8496176972128141
Ni 5.439174572933272 3.026689365476621 4.756546137378454 -0.45108693702148767 -0.7578236579279529 -0.5246824510204512
Ni 0.7120793505544143 7.432740401640893 6.9220535357571515 -0.05668074052149594 0.2868502663951834 0.42870394134059714
Ni 5.042996172346604 4.561921116130089 6.894676274378921 -0.06169696278916471 0.5919623072140322 0.2993139460798329
Ni 8.332051708408674 7.2827038769428105 9.04747569057345 -1.2320646644684006 -0.4138097978375841 0.39825873747686247
Ni 4.340911167096036 0.4436369344204449 10.331700973487948 0.4521549732746858 -0.8352483158650196 0.155210555868294
Ni 7.9176535597053626 7.214633747447329 4.596626725135108 0.08392543517006193 -0.20125438550123406 0.25943767871018547
Ni 7.137404306984478 6.139515803573762 6.9889632461693285 1.2190242863446747 -0.9754464574848812 -0.8058618922831025
Ni 2.41283576008445 5.151128175229298 2.6290853842035693 -0.9211920670166909 0.11679776041805047 0.774739202736369
Ni 2.216679093508471 5.1129359158570145 11.34553872261064 -0.4462779456686185 0.5355034528953552 1.2857606113299598
Ni 1.0798369215554806 3.2263875124462644 3.846809035918766 -0.2752754170733904 0.711038322143298 -0.6308067908850555
Ni 3.6852069710619846 2.8067850054994716 2.7504323223014033 -0.5888155340549343 -0.7814546670833317 -0.4254946903746801
Ni 0.8072094463573231 3.416890394332866 8.118202021510642 0.9696959281543494 -0.4232652868235291 -0.4456400549743035
Ni 3.7245227965490084 2.702446161820144 7.164327647652353 -0.6155110410682496 -0.0649838610705526 -1.0724091854548756
Ni 3.912814500321799 6.809179185017358 5.812798057906178 0.8743349974538361 0.1522221626639314 1.6333863571413028
Ni 0.6686153189717655 7.148244472859501 11.204300170017426 0.3207839430281508 -0.08631399000689652 0.5640020745556803
P 0.12783845368236288 5.577229388583754 7.959466398525787 0.045240874115670474 -0.27753541675216076 -0.16772257229237564
P 8.50594378885494 1.5972975428317735 7.7982831991165815 -0.8814201864353917 0.30721854563889023 0.09738336044718067
P 1.6353459857413697 3.274197497760732 10.219825248310938 0.3579494963348545 -0.5873386923990918 0.493252514645944
P 4.01596685818396 6.153214321644687 3.8073152375591666 -0.44117044923872406 0.15062216516666316 -1.0672608084847168
P 6.791570656867133 3.91320100706527 10.349329276401795 1.0761180017650307 0.34754552739271116 0.2076021820961328
P 6.3244188319444925 7.675709326821449 10.116001447338608 0.10785520651278198 -0.574266689706482 0.24141578821146809
P 2.4390463104091333 8.480569171719626 5.884732355983478 -0.9591315223749417 0.4801074926235538 -0.8665360702347076
P 6.840746898577127 3.937398126912337 1.5873175791741962 0.4049376921589349 -0.44875494645420133 -0.29513256100863366
Ni 5.134040981756314 2.9501520417404494 0.3846002764874828 0.5638701769635063 0.007236626957755278 0.5649109595231949
Ni 1.5310970273512214 1.236453049421487 6.961770249633916 0.08707246543947586 -0.1939118290932338 -0.4713983948853301
Ni 7.066817389391976 0.6460316400654672 9.164744533101219 -1.6358119358636605 -0.40547762382280494 -0.13747328648953097
Ni 2.7420496202325424 1.732709730980384 9.09430952164743 -0.6425575036630805 -0.044587813912703854 0.6266382613296627
Ni 6.4236342141406 1.8885438568305306 2.558583857635788 -0.47595721790060613 0.7643272633744256 -0.5425292493938849
Ni 4.054680452233483 6.712381717100174 10.331096045491773 0.4116570131606394 0.8421008200104787 0.3883774738074085
Ni 8.46617853692202 7.051222291719368 0.5172448965822627 -0.7626637596290736 -0.33855952184401694 -0.42748960931752183
Ni 7.462016040326589 3.88693652556708 8.175691753616828 -0.1315774898303863 -0.07657593678352619 -0.23579124293583906
Ni 3.1382639749348815 8.447482396772726 12.374966176288588 0.17621518314441909 -0.7989541094196757 0.12072614893817919
Ni 0.022179195104991455 4.84499685734245 10.117658932071073 -0.5134672990309223 -0.5547671862209735 0.0236520922013012
Ni 8.50147648998273 2.3591023342130666 5.661586732478523 -0.03387968346658036 -0.08828962567602859 0.7687932695655791
Ni 3.4437391302107216 2.7261758781634784 11.481160343483038 -0.1837444016419287 -0.6140977056604907 0.16813060636407173
Ni 1.138424153042546 3.1626138997735533 12.597993151211824 -0.6356420074901699 0.26878775246651776 -0.26533887468596884
Ni 3.136987603828536 8.349058005121398 7.937588319139547 0.09220567290098314 -0.33771362890395384 1.1386418313308648
Ni 5.740425119617684 7.872639006884371 3.415001904407209 -0.8991685115577481 -0.6072246326897414 -0.4834679244553544
Ni 3.0388688221604157 8.34891418865871 3.6323984648162555 1.1413126932948086 -0.3711019745564125 -0.04281580961394562
Ni 3.4940928692089637 4.251852822577188 9.589460614149422 -0.07495099958559351 0.416308910110354 -1.7389219143819727
Ni 7.276070342601378 5.9759335657963595 11.385387567862496 -0.5255075180249078 0.546164275043311 -0.1214026061799135
Ni 0.6352391133937091 9.057830475886906 0.23632100919285604 0.41314439633944333 0.2324143560438062 0.4639614789913106
Ni 4.691940186927943 0.1872409447422847 1.4559322519808182 -0.4038776263255367 -0.25686811821079636 0.30810069113352745
Ni 5.9719696245435525 5.641128840661316 0.4552465183708428 -0.009560389994925471 0.1186247863244602 -0.9111562800472437
Ni 7.930947593974981 8.647117624039945 11.310018752885656 -0.20997582453463193 0.6338692318604632 0.22650801786170022
Ni 0.2011426035667547 4.8675131222818635 5.840319135747095 -1.2888251091878964 -0.5035353846291909 -0.517367919636909
Ni 8.079123493187051 8.846770828364999 2.2730416640883493 -0.04826449143334269 0.1547215320470174 0.8129841051501805
P 8.336995399313535 1.6088567910202312 3.596456933085022 0.7824316862846202 -0.39470341602543635 -0.10206919595862422
P 1.7818230529879515 3.148250230562702 1.747553387635453 -0.22093283776676792 -0.3075491895054316 -0.7869869097554705
P 4.713243000463436 1.0305168633828006 8.202490153732745 0.5650806523318398 -0.7421514986083348 -0.5299835515183905
P 8.482160141338099 1.5920752075304565 12.222374212819137 -0.2965212138260442 0.23897863952488524 0.22190085810699203
P 6.565994535142771 7.631153188975272 1.286089503812078 -1.65067574034937 0.5166436398763747 -0.1540273341934702
P 1.7675312920084436 3.0958560955000896 5.853896308677629 0.4254239850377447 0.8561228453211837 1.3341050640716183
P 6.940106097235922 4.0556961560012095 5.9233048301289895 0.55210095224272 -0.09088926808240477 0.5607969373548213
P 2.3199483022465652 8.194374410972745 10.238374875438868 0.36402784131845045 0.6250989418670009 -0.3256937216249423
