# total energy = -340866.8136339791 ev
CRYSTAL
PRIMVEC
9.28752792003031 0.00000000000000 0.00000000000000
0.00000000000000 9.28752792003031 0.00000000000000
0.00000000000000 0.00000000000000 13.59323590867372
PRIMCOORD
 96 1
Ni 8.379058980044727 5.316403812961794 11.097558303256738 1.2967626188674182 0.17322447594721135 -0.6455011596724366
Ni 5.638671740068206 0.784252778660946 4.728298048904473 -0.6879986667150151 1.6695576648555375 -2.3075146936321294
Ni 8.20080345899359 3.444948386355943 5.504268210274041 -1.55887630174787 -0.44923420008346504 -3.6784574953573874
Ni 3.4784206365444654 0.2707555829206148 8.367302827356427 -0.27590456601695706 -0.8043984203636986 0.5277209807364589
Ni 7.497226790560889 1.9046583384881939 0.3639531381278173 1.638922970688816 1.1383834354631555 -0.017809774487911264
Ni 5.049498839066751 5.549502185667542 1.5951802659141374 0.7910986179309988 -0.9089988673846087 0.9905786851406294
Ni 6.319038876530565 2.3804676751719205 6.861512230251798 -1.901793329229634 0.5195279034027052 -0.20102915686430542
Ni 5.0845685440367445 5.113109116963861 12.399083657708415 -2.8721963107533375 0.043807741213569715 1.9926661422518068
Ni 3.329402253005389 9.194039544429515 4.342263813433922 0.6134330754932984 0.6130628366380731 -0.6285915284012915
Ni 2.396888024321007 1.623106933253723 0.41468161496735817 1.13089046952022 0.2849918730302059 -1.1200054471766003
Ni 0.4201315362799621 3.131717223798207 9.120993138288359 0.2483793640134948 1.8217407467514177 -1.0068583961372595
Ni 4.961397350363001 2.916395179300237 0.4689282073372575 -2.0533153805027475 1.2340104753408618 -0.28593238256660436
Ni 7.6962956614101605 4.2277569544441045 7.382336356672963 -0.5654321221339874 1.7116108852718457 3.5518013540880182
Ni 7.282164796841299 4.4570102906409605 13.338593252331197 -2.4771676501779982 0.6936075282613604 -1.279724432438209
Ni 2.488871699644846 8.156260475668354 13.383532813093462 -0.5267516748446541 0.40367425206547897 1.3531314845754503
Ni 6.15201197658873 2.2625439347047567 12.143422164967152 -1.3115991696596185 1.0999654978065896 1.5597808158400106
Ni 8.170526118368015 2.920240215809129 11.177079045026757 0.8593884034463328 -0.5468494740357936 -0.11940511613391049
Ni 2.668761825588652 4.644544051963554 0.5673880757955189 0.932517262221523 0.6111784751311669 -1.3581315088932029
Ni 0.6493523661295203 2.979420342945994 1.085520676660459 -1.2489539840245716 -0.011284057554251534 -1.0909144433479148
Ni 6.849811802730294 6.564768287043303 12.035981257127009 -0.43941130045577226 2.1821924406828352 0.7832120160940705
Ni 3.3969690177449827 7.343741106150372 2.49857252243117 0.1413659366757178 0.20426360464120305 -0.8274589017275878
Ni 2.224948022173365 8.5668713672013 11.135973375740026 1.218463014524566 1.0141999241039954 -1.5592272573293855
Ni 0.22732617417850992 8.040445004011623 12.0166102603961 -1.0031840326094659 -0.5691306540314973 0.9519612298787477
Ni 5.11873735881021 6.743451034373205 10.345580612450991 1.1789788403870147 0.19711516652187988 0.5036338578802682
P 3.411448273584024 3.4022814836461572 12.471698193806905 -0.8260723057927063 0.14686655477897287 -0.9340959195625527
P 0.09563553125450747 7.409134589384938 0.7611017581157384 -0.3559031553287871 0.11804654522348701 -0.006026922920370266
P 8.722938984340011 0.6953321300053011 11.846926198750896 0.29126227941995 0.7541361817740367 0.48457504147660424
P 5.352207232627929 4.679567319294552 7.342086997449323 1.5017042234122524 -1.262117003769091 -0.4775381892344808
P 2.801842811424203 7.806668641776529 6.7660057956337 0.8450617024110156 0.7235184568881798 0.4096569520114751
P 1.1073333644497938 6.483381680938415 10.576380322026422 0.12112775525197203 0.4018798791692176 -0.15949067130088662
P 3.300434453799507 2.281908430166207 4.35191541232291 -0.3216015538334397 0.1699244650397009 -0.27011495591837353
P 6.801033706728598 0.32491951629310073 6.273196568066213 1.1611083878644972 -0.8358887776624959 1.6728731023820158
Ni 3.7788071481558285 1.4279759741913367 6.233966979394933 -0.07737966363174416 -1.1105471299771779 -1.1406359789427583
Ni 0.2750659245722499 8.213638822412163 3.156892925403653 1.6731626085979765 -0.1705055343541515 -1.1520236519544096
Ni 2.4864476548892402 3.430450555461303 2.417393956948986 -0.683705695766616 0.7318629721981332 2.20924198860146
Ni 7.508715462448571 8.660396772139816 2.6174185144088002 -1.0629364700777502 -0.5833840786267179 -0.36441170702043046
Ni 4.101957390403171 5.778783384447795 4.149443591287992 0.4554994642668865 0.14127054874843412 -0.6517970199834774
Ni 0.0498052965762947 0.9781902904011275 9.5978844719607 -0.12796123323403769 -1.5008783850768472 0.45569563943809266
Ni 4.718008396855676 8.142273458802675 12.362449933057027 0.6722457747561326 0.9181314258134962 -0.3817118888617749
Ni 8.695364314304017 0.26970887853763853 5.078460137003174 -0.17294294015105055 -0.5702411134868566 -0.5156619926893958
Ni 5.021181166806818 7.690323781035238 8.279109392127465 -0.7416904998115161 0.13083315546519403 -0.6221835679924188
Ni 4.9738983627808 3.362233663775762 2.8985399071061657 -0.012914136958506793 1.9673626304900118 0.9503748592282343
Ni 9.26682589979229 3.0430120457875054 3.3017291351747238 -0.6135855419107625 0.1556332452280094 0.5019508137508903
Ni 0.6960156920513265 5.539202317338166 1.7373918203291379 -0.5328852985462178 -0.40578255665773344 0.11057671920900311
Ni 5.596329900831395 7.998298202858595 1.1601134561801905 -0.7243630642766622 0.5557799437562042 -0.042267907530275595
Ni 5.096605180064581 3.901105314216443 5.235624611174977 0.9414947831297851 -0.5341482244190414 0.909163417986931
Ni 4.642370770458529 4.652549900926514 9.313541235869772 0.01359779328909271 0.2903629075341322 1.0780270458622854
Ni 3.6518373556121886 1.356527022831654 11.715873608986705 1.6207465568901056 -1.1048799043890716 0.44277173228757294
Ni 6.806076834323593 0.48999510664431173 10.978998367135326 0.9256755567093413 -0.6784213074392251 -0.7800084215551082
Ni 0.02990676826638693 5.652714482100683 8.725443830587471 0.30273557016687214 -0.47201340276150966 0.8343620566053243
Ni 8.188952573521739 8.049165992615125 10.081885408163371 -0.5562885079615065 -0.1475628095150491 0.0954887145276291
Ni 7.148099333059026 8.917001877705482 13.154527453888846 0.9537103513593702 -0.9137327825251683 0.30721237499130316
Ni 7.543200053167211 6.403072428058241 1.1029998039786606 -0.29043052754727405 0.8045208048741758 -0.6698829309509108
Ni 0.9259897404054045 8.057078966300091 8.965391755045172 0.47199849036317426 -0.00023191350514798772 0.10594924773932075
Ni 5.467446877561107 2.2944930303342 10.103022892681699 -0.3809295021697956 0.8925193816723468 -2.6134551438895444
Ni 3.05569880876129 6.71901554873336 9.14823438607636 -0.7660133928275968 0.24858942314177188 -0.5113471673641259
P 2.062230535130385 5.495588086792856 3.3734334935488857 0.7520368760428467 -0.3199894721513134 0.22711891197282175
P 3.9453603841799016 6.679199917057946 0.3042807720175922 -0.7648525397502763 0.22956428818952077 -1.6573225562419263
P 7.360542243939227 6.4139481231111715 9.063086331212773 -1.567031583865153 -0.4618153791825853 -0.10068542823722015
P 7.58569049284881 2.5329038689411227 8.998545443030178 -0.6685852951854098 -0.6533774770967198 -0.6543197864053312
P 5.487637962996692 0.9020353487055612 0.22568042425248158 -0.4456544531520067 -2.402169342294237 -0.1225341486811954
P 6.690233500083464 2.725443607747516 4.078677273221554 0.5631299563633722 0.14785180151037763 1.1500714133240453
P 0.6161336654499183 4.346015045912042 6.3909549905385505 0.9475808414228648 2.6880065940438738 1.9516441913134905
P 4.960431447471878 9.298022705669995 10.17797602828004 -2.652049202112658 -1.174384793258429 -0.17632702613193504
Ni 0.8017337634847072 6.775446567641644 6.917978541765719 0.12931620460003534 -0.5459470168261823 -1.774632480409705
Ni 1.338016979927735 1.6618544992322224 11.839707932145316 -0.5775631010695665 0.5276723868867106 -0.1514351479862618
Ni 3.804858663632744 2.926741485268609 7.776404303689871 0.9495757603657066 0.7779744218442151 1.1943684354692075
Ni 1.952154755653593 7.407323521464084 4.529307193288716 -0.459591374948073 -1.4773887865953397 1.3842469750333322
Ni 5.039310421070966 8.057924131329823 5.683563005685915 -0.26212756683752275 -1.0275313511055786 0.2304443768016289
Ni 6.94645781700936 5.5736033203066135 5.356849139021998 -0.4230665405491617 1.0958090524360549 1.5717981520158608
Ni 2.973949989072232 3.0141371218596156 10.157273200062718 0.728063653056701 -0.4134174474951719 -0.3117711980065792
Ni 1.428050274413731 1.1771105608056103 3.6199059062855636 -0.2754741633477578 -0.132378645575443 -0.5675327134167581
Ni 0.5492838978564276 0.19147817437893838 0.5931015252605414 -0.8211255033103922 0.4213547000643776 0.21067207927070816
Ni 1.0361909015074864 6.0440073158111725 12.964058833781687 -0.019713676378843466 -1.1093585089857152 -0.6363914840616847
Ni 3.831049492026649 1.64076252360011 2.148872953216872 0.6321136826219372 -2.6826589565787153 1.027629824356656
Ni 0.8842469467116446 2.457535580850154 5.705149077796947 2.2742178792522125 -2.7785402785590727 -0.3445033981322776
Ni 9.104944290251243 5.489774094390522 4.024127907445399 2.95573453778731 -3.753199978476601 -0.8239956257693357
Ni 7.036370373633966 7.720684709411009 7.308144798354159 1.5105570458171922 -0.4241770000045211 -0.8684615693921947
Ni 6.300640283960237 0.600668074158596 8.57772570094029 0.806596713566598 -0.2867088557213127 -1.0731334652154099
Ni 2.2545009356306 4.681573425299192 8.250265117041314 -0.5147955309240424 -0.4653822705982373 -0.5487047820769776
Ni 7.074727863444897 5.437401725130512 3.1205721904390993 -1.7559454455231631 -1.1226012329282342 -1.1426059581849355
Ni 1.4255426419079313 4.315691267647468 11.001766741535205 -1.0261396129643745 0.9748273358436438 1.3303790213702829
Ni 3.8874526483515353 5.916675309683361 6.5095966569045975 0.08388712573295874 1.3517538875016333 0.7534880066670765
Ni 3.075982769474867 6.371615571402158 11.547752638270115 0.4827315605099622 -0.6399982275763365 0.7331626648461632
Ni 8.462637442710239 1.5404572233681364 7.164953409756337 0.727383853380857 -0.37324010394533785 0.7802768447251465
Ni 1.0630225693195394 9.196203538406742 6.8067446075723606 0.9368151182659284 0.7803555204818818 -0.009254428718732449
Ni 6.338022583352246 1.3551338936617654 2.4208600623236682 -0.49196104952803016 0.14616772893973537 -0.41720879621680407
Ni 2.8335039936918696 4.0837631234444265 5.648818364188895 -1.8595292783541009 -0.7150325309043557 -0.556973192733357
P 5.769690894732323 7.374529260804907 3.2597123594108854 -0.5481008299443916 -0.7125349612934826 0.8520432759351714
P 2.0551255763639538 1.8736101330552781 8.518078411155123 -0.7926160830167898 -0.34140804703640554 -0.34864081733941893
P 6.5630036567614445 3.7669655502117765 1.518201520502777 1.0879731013314036 1.0991180622046295 2.0658698201289907
P -0.12580699406317322 4.097815153004703 12.971385764462521 3.9918520879000026 -0.7195257907890189 -0.7781965651573501
P 8.714310871014503 7.121583441192147 4.876627297880844 -1.0670607766587688 4.8207166117258655 3.2757780031050103
P 6.346567108927563 4.381707015244586 11.049057904336241 0.49950440909292687 -0.9613041045462284 -1.8716921389688799
P 8.587786879805225 1.3076467640241651 2.1211023163443143 0.8622353859768248 -0.3252340083797044 1.1587555713616045
P 2.4802807364305335 9.248195119026981 2.039026575676722 -0.7594663357376984 -0.22899093218455402 -0.32461540095909897
