# total energy = -381165.80045170645 ev
CRYSTAL
PRIMVEC
9.25060257168828 0.00000000000000 0.00000000000000
0.00000000000000 9.25060257168828 0.00000000000000
0.00000000000000 0.00000000000000 13.53919192891107
PRIMCOORD
 96 1
Ni 9.113526917319003 6.321935645912273 7.349993936801381 0.052657478294715766 0.6905916242531719 0.8587754524526824
Ni 3.384046098453606 7.318123761609846 13.245512892058091 1.1818718456640935 -0.8926849607159336 -1.2353281657110209
Ni -0.1908519521157345 4.785567857007186 9.318239971985241 0.5501793097399751 0.3104100559929944 -1.347330304512641
Ni 7.958820479874607 1.0681578019248301 2.1452174584841703 0.9435640069539878 -0.5959488026656059 -0.22104185254080638
Ni 8.37344172748282 7.796028379845395 0.6135397249669002 -0.028728992503576332 1.0465783404347007 0.22132107434412204
Ni 2.203761745531271 4.724735896000702 0.5299753337631333 -0.23548759565249122 -2.0189718700258714 -1.0492643719072963
Ni 8.394449845403399 3.6109356221163234 1.563086303651898 0.6609321495155263 -1.2613844964784404 -0.814080680648469
Ni 0.4771201671568762 0.8821115377261984 10.755790976543695 -1.0123106775010824 0.20458370698478315 -0.5767755721712647
Ni 3.3808638912476705 4.9254554656355385 4.015494064496 -0.937539655136779 -0.6274355604199775 -0.6012018235344292
Ni 4.073049462152652 2.199885743149623 5.260815702249872 0.21436161230715342 -1.0190371975916386 2.0147493473040914
Ni 6.495865471162259 1.1365937580571244 6.218943139668084 -0.38002113142291327 1.8289514055672438 -1.2239728885992016
Ni 2.0531341875828866 7.583921318726527 3.3599131270616174 -0.35958008995974206 -1.7853781489619833 1.1431397192012183
Ni 4.077165980195214 8.052584585221583 6.329707076940489 -1.1225348984666734 -0.10760272418234372 -0.27249502611477583
Ni 5.324988980822587 1.4081451898310497 12.111172580731683 0.8379538877216406 -0.7944096845821028 0.275260504675055
Ni 6.891069704452862 4.6174474100284995 10.100738248503088 -2.087251114018244 -0.10485730022672264 -0.7240840995836626
Ni 1.5683471212042686 7.082483168130806 0.7505448459052257 -2.0055188298447586 1.1425421948265357 1.5943143308405059
Ni 5.8643453504215906 8.75284593197186 7.489907447116294 -0.38536491223332986 -1.159048934232307 3.202839405963755
Ni 7.889320704472887 2.9349848583230167 11.814108912756453 -2.3247984204132415 -0.2240158475674658 0.403176486493454
Ni 0.5464543567766599 5.656604573608541 4.792521534788294 0.49767686896588487 -1.7773833036819648 -0.9076186992076304
Ni 2.3144359519609505 0.08103435146300147 5.189761825654555 0.6844127491359697 0.7919044016617458 -0.3974231289494446
Ni 5.839627740961535 7.541146533493258 9.79760896057166 -0.5607779111914277 -0.311766827131205 0.37365559421620165
Ni 5.350113616785728 3.6227393907057808 12.145385933496657 0.9242149130034147 0.31586490845997856 0.46118803001123154
Ni 9.159058382050437 7.769192382448829 10.962263495775542 -2.171682799400763 0.9382472227267648 -0.28343044208035706
Ni 8.283424116084692 3.5774114392258887 5.389911558185074 0.04881625017175464 -1.1005331973846013 1.0279352714122167
P 4.316220045938759 1.007344342123032 7.432393677170185 -0.1861599530619568 0.6007701353136492 -0.020318142732061784
Ni 2.9370292414407837 2.4628063629376835 12.159561556526818 -0.4470631605740752 0.7452177962384844 -0.22250378179831357
P 2.7103154792225803 3.855234779388256 5.801787227017933 -0.8556903857694553 0.5140396265946243 -1.2307431174434997
Ni 7.735251922452967 2.20118082747762 9.4888340300304 -1.6161720501455457 0.09638731508249852 0.9675739967153402
P 4.395340447777028 0.3988434202522739 3.9146402975134746 1.6425546539041322 -2.1609443299373363 0.586253429754713
P 2.790897476231017 2.743978421148157 10.074390682910224 -1.1772436028634627 -0.9613272444746799 -0.9559983760625989
P 7.7212557611082575 6.883548964748137 9.212119837088938 1.6537150413963264 -0.6763978492512932 -0.05856664469029913
Ni 2.39744160678321 9.147069601414122 10.849360819241472 0.6749271782430376 0.13087300756419395 0.8960837019848373
Ni 6.377032233466199 6.081475488612617 7.603474316898579 0.7757360194319995 -0.2604167547940031 0.22466530822600664
Ni 1.2007929383164002 -0.06920930648815533 2.1765742252456786 -0.8306051606660534 -0.445725158488942 -1.7579023121392177
Ni 9.261980583716822 5.377134626229149 0.3226295576701238 -0.3693698223566542 1.5612334891261372 -0.7210769373262227
Ni 1.296471918348344 7.854538439663826 9.26694075669305 1.1538015697904385 -1.1111276850709961 -0.8691344270895031
Ni 3.193650201033373 4.892088542984932 12.019958866450624 -0.484190918664308 -0.2848874862418577 -1.743678455230352
Ni 2.1537807410729326 4.7546153415680585 9.804717123411896 0.0029544546426336213 0.1150085297281116 0.24414758532033434
Ni 0.6935380089675042 3.085686421090144 10.947492133954501 1.6011573219042683 1.6225599559497603 -0.08459675020547366
Ni 0.6207792463604029 1.5024735819209396 3.6209891767425164 -0.49642602727791924 1.574633821692443 1.148719784392157
Ni 2.980026041130281 1.6396692652675273 3.2687401154308686 -2.86994608126658 -1.0420889372047795 -1.4639524585847756
Ni 5.785770734121549 0.8128976059368717 9.694440692882958 0.0034108254537618676 -0.2710333539675848 0.030706942165553572
Ni 6.44503341128838 8.78573182330064 4.200751252314788 0.9225686356492433 0.5494668570539827 0.3684447394392235
Ni 8.799996252113292 0.9062722609252152 6.851968333409932 0.3430034165479835 1.3404464329086139 -0.5360958350637155
Ni 7.6836243107776045 0.2691629262490053 11.501475555977994 -2.744317352820461 -0.06913490712444868 -0.4476123482093259
Ni 1.876817706928449 0.7252971769309258 8.257620485909587 2.0506224070516166 0.24238920786833096 -0.04371775260292471
Ni 7.738674645319817 5.857120629991836 5.430082298858834 -0.7543462409023138 0.8290856386977334 1.2502251374275113
Ni 2.335249807232329 6.040930098543971 7.969033144861097 1.1879093101074252 2.002935128277983 -0.5490768207044157
Ni 5.613644776328415 7.434154066796027 0.3727391455010275 0.2037452702438878 0.9115077498493914 -0.23468129770111193
Ni 3.6563560796196435 3.72023148879692 7.649101987894378 -1.1062734423024883 -2.0971709442351174 0.456206260525924
Ni 6.402073614008254 2.629307954506373 0.6626206458172806 0.22011496985116286 0.06465321720401124 -0.49663377241335116
Ni 7.036350414247088 5.333323773533482 13.498357755774336 -0.9239367196413637 -1.3709975662225937 0.5731333474329872
Ni 4.68714144807942 5.221021461091463 8.798146131644724 -0.2237577088100727 1.4004004448647431 2.20740699227525
Ni 8.558370518918437 5.38134365029514 11.375276988696571 0.5492513986090669 0.13498882950478042 2.3924168908931636
Ni 4.845733774644985 3.0266953299498844 10.023496644000648 0.5876508243228719 -0.04870903516992902 -0.46506859601256034
Ni 5.752579572915455 4.701572387734242 1.9467189584718483 0.9899158547456499 -0.320254552887242 0.3998057702490082
P 8.03159496850569 3.635523723143579 7.8270604504646695 -0.3259878558265934 -0.23481962305118914 -1.1592242834679067
Ni 5.342611378285689 5.891902894800896 11.804577092102393 0.12279794386554337 1.791142562249586 -2.0405549955132853
P 8.765056727064403 7.004287826526821 2.5806377604000144 1.7029786635181443 -0.19825545077391016 0.6186418733877475
Ni 5.65323735435575 3.9204515259052437 5.674017907458694 0.48891069273748056 -1.1364211695304622 0.2821765150685979
P 7.847692993930128 1.4737597122487793 4.5831249001558785 0.7900799468584974 -0.787713760619166 -0.4747169177356017
P 6.6010263185956095 0.31114400980125967 13.749590239502224 1.3824736851829933 -0.7448583560165366 -2.1519472686450487
P 0.24518999027754806 3.4512609750766456 13.127613965198657 0.8050396534921233 -1.3037027976306774 -0.09640197037051784
Ni 8.777711551069402 1.087796830698669 13.284790024545535 1.2200002771046987 0.35336676206017853 1.1078870666465115
Ni 6.888701550253096 2.8774553623529253 3.192270936224056 0.37333677742420224 -0.37003830917858854 0.7448035915192012
Ni 4.04194893707604 5.570240950135833 6.124521316494532 0.36701263497838726 1.4622434463134688 1.0478291821226664
Ni 1.6790120770316053 7.132982206320343 5.757284429267022 2.180888377159431 0.4921898777093846 1.3575080163765911
Ni 7.743845732029461 8.161501177206125 6.569026634971274 -0.2924012781203997 -1.5620277028926581 -0.4812446915517905
Ni 1.9235332487597663 1.8932745284963528 1.1071888683899542 -1.8527053134537315 -0.03624124172022146 -1.2943501527711836
Ni 0.007952742834135364 8.695492197446283 4.9918868162401395 0.20118085195082128 0.15264433780301453 -1.9736497490503042
Ni 4.690850939618897 2.9930138868196217 3.133199364843414 0.18899947939328096 1.2763879118658084 -0.26432740270231897
Ni 4.606596453480353 5.087248500611725 0.1694405079330083 -0.43759867272706576 0.6247708691036208 1.0591116970150212
Ni 4.4437488498370845 8.550988538248856 11.587774425234304 1.8103718427928437 -1.4100724207368682 -1.155349631003849
Ni 5.680036349342942 0.7350676631254282 1.960109205363102 -2.254626073163214 0.20844473260208618 1.8600010757841967
Ni 3.778482531749753 8.30851174963846 1.9092429182605546 -0.07149775092967041 1.1513981025552686 -0.5302584024463319
Ni 1.3332060602517422 2.2312915381035485 6.015814713183173 0.23534129988261404 -0.3526211421434056 -0.5393734773737227
Ni 1.0782409584785202 5.292722879850779 2.5032610971033695 -0.5569698502992473 0.6520448743282254 0.5269715041649441
Ni 8.387604399669701 9.083369953681359 8.89176962783609 -0.5288386392806699 -0.5828300058954607 0.8237038055605298
Ni 5.9262411306975 5.394516508031336 4.107601386963376 -1.8315029683445039 0.50123424729984 -0.4912174864937862
Ni 3.839073977095323 8.77581517758912 9.018996862098039 0.07424548887813666 -0.9627529211776128 -0.15836144279244982
Ni 1.1706359746787576 4.2983478822124015 7.248937581627547 -1.1814635544820813 -0.8398354210150698 -0.5924983822231602
Ni 0.44006502935218156 2.309144607420849 8.53021908586872 0.8629169854248816 1.9477901076747228 0.2504041077530075
Ni 6.674152330115721 6.923280301810614 2.371416887212112 -0.36968349694233105 0.33039035576966325 0.2490823036177904
Ni 3.930238663183963 2.889925174311067 0.7133444736437484 1.2887952843912256 -0.26411091581613866 0.45110313497140375
Ni 3.3467846722166654 5.924437263240646 1.9447559806546988 1.7969424567608148 1.3791808733643343 0.8914834842086646
Ni 1.3541031709442068 6.448058358254488 11.820404872710984 2.2886906189470904 -0.8535771960811944 0.7802449630459466
Ni 5.854123434832757 2.9651788243700308 7.748303597298473 1.105754850794857 -0.740694454446834 1.213404369054736
Ni 7.298253467777435 7.171455461464195 12.206542590645375 -0.8445492815509714 0.937447866753921 -1.1806605989648118
P 0.9160381218185462 8.439657539052835 7.2509680888418 -0.9320102406781174 -0.6343945082363139 -1.3582348672402866
Ni 4.545875499701984 7.394700247803835 3.9292766005403084 -0.8331245846537974 -0.5695607995903804 0.533881601021216
P 3.545839133429792 6.498566647046366 10.367784636936051 0.33788897813955354 0.5882064397160256 -0.307495967669993
Ni 3.369883426266725 0.5273287364328483 13.192439411236544 -0.5593890012637012 -0.979452750430797 1.198273941171201
P 1.9575754653813995 3.3795595563173304 2.5884498940785385 0.18944093780607374 0.9795306548565841 0.19449084152515536
P 1.1825877529057007 8.636140332814652 12.674105035461634 -0.0609099481114951 0.2852723803851023 0.5804321950872455
P 5.913900827172157 6.9573410196369325 5.723679766136205 -0.5996095393466447 1.1370857996976544 -0.7284230932786487
Ni 7.957062865429468 4.909451923582433 3.328068853556642 1.2561960102989655 1.5076146753594166 -0.5598847099531971
