# total energy = -340862.37445711624 ev
CRYSTAL
PRIMVEC
9.30031705035331 0.00000000000000 0.00000000000000

0.00000000000000 9.30031705035331 0.00000000000000

0.00000000000000 0.00000000000000 13.61195409364642

PRIMCOORD
 96 1
Ni 7.149683760627952 3.747302307751 12.41412910248738 -0.1513220194471652 -0.37838205315759355 0.015427904519296008
Ni 9.04574867836266 6.53957366812674 2.355521035961006 0.32301540346183083 -1.4957222947972046 -0.7948886811010504
Ni 7.282185376271994 1.3016630605688502 5.907233958042009 -0.8473199023175729 1.6307314360169594 1.7513984495824289
Ni 4.134344298109843 2.252499564997844 13.563998899954449 -0.5676070182981192 0.7017682096952816 0.05216819736312305
Ni 1.449714806160027 4.094213430453211 4.5270501814936885 -0.44661578862401147 0.6143229342974195 -0.11816044509353199
Ni 0.49470524951376077 1.9735923598634886 4.980273227297397 0.6689429356351447 0.026801950684192548 1.8533555454432211
Ni 1.4419118402355973 9.194098034096365 11.467798601622613 1.455853740737041 -1.5412459902606166 1.6561809864383155
Ni 8.799997103169416 0.8993462296447112 0.7431269457045068 -1.8183983126417458 -1.3862894593846575 -0.0801687963411071
Ni 0.3695099628688039 1.9859710817293001 12.189667812865297 -4.27997453613939 0.45814024432384326 2.1124651513900266
Ni 3.726069684144954 5.948501324430424 7.186716692707197 1.3264251789288575 0.12436425991139873 -1.297297665435282
Ni 4.749141750355885 8.559788516880772 9.462145259123503 0.9829553642674169 3.195911054275038 1.5233230872336088
Ni 6.319816478820004 7.003817589520971 11.218428273102555 0.005067130110262242 -0.882286648200745 -0.16323625438624792
Ni 8.684226757725671 9.211089713171376 5.044059451126601 0.22328873959345413 -2.136210317525766 2.364734594486547
Ni 7.353304900019448 8.545447428137662 12.936324228853858 -2.094074821808297 -0.6199580210960097 2.4409176667070285
Ni 4.73680022975789 1.652564019244339 11.244181780779956 0.34053849994725865 -0.8020833990772767 -0.03782349860567679
Ni 3.9342479788439233 3.4157832096077065 3.967925356566156 -0.6558650194052641 -0.4501222591153732 -0.26596776651921933
Ni 7.262347800209051 7.044311169538811 4.062187789022014 0.1798818333627289 1.0936783792462972 -0.4837078083803024
Ni 4.035342424134211 4.049795116680771 1.4796469462448718 -0.9556613044381541 0.8784171379430097 0.3469883693376604
Ni 8.954214958901114 2.112260085648051 2.8196886947562154 1.3659700311010152 0.7384156857149863 -1.7573078730883285
Ni 5.332559933199036 5.052555290664106 3.1997619576214045 -1.0583095128287 0.3402849891755559 -1.2526640858863072
Ni 6.091158886188264 -0.03957005854430431 1.3369038215710543 -0.06337357916063924 0.26620507934100607 0.12636303550898237
Ni 3.899195084244191 3.5224206438025956 6.505602400388761 0.06276679881457578 0.41328349302046885 -0.3285684720695761
Ni 0.835292156687232 3.847513222930655 9.495481315213523 0.49939822253236577 0.3669002777702391 0.012232794620766027
Ni 3.796779993946431 0.9243287410466221 3.6185477898077365 -0.7119770319074835 0.45984694260230485 1.9502622233642997
P 6.796643729053037 7.543514982363235 8.978186525850122 0.8542176578786709 0.062359793184144204 0.11613004492706451
P 9.392018079195042 1.1344061604676048 10.369055436546926 -2.481074184321256 0.09676192481309787 -2.8116213773837577
P 1.8146499431191445 0.41706341348644616 4.436652960763924 0.08228121469841959 -1.602530548102711 -0.008292836136411524
P 6.280290131765384 2.1300143907132907 0.19961921300617771 0.7614118894998435 -1.3561949539921223 -2.2433749257294266
P 6.459432836933878 2.436822546709731 8.057705325927381 0.37572044716503034 1.2828244115197713 1.4149737146932275
P 0.42471385421282987 6.371814550909977 10.881314104279719 -0.5094216682066388 0.6436389096527173 -0.6785462630528637
P 1.2876102816513133 2.8532535386433033 7.090739281805016 0.41705375869617844 0.368711619947365 -0.05528900238029187
P 5.266536983142388 8.68304561747251 11.833129932083972 -0.07856005709309051 2.0234967544794182 0.9406172656208381
Ni 5.566267597936814 9.041861145875876 4.6410497465893865 0.6490317985335144 -0.26998768631188985 0.2792187179918546
Ni 1.989486601537923 8.02648974210288 1.7104640724733375 -0.13843899283690997 0.34037446356556866 -1.621495262130672
Ni 3.289261697765105 3.717699398886328 10.503283191017633 1.5335835886193523 0.5254026170159274 -1.3096253337626995
Ni 6.7445805547443864 3.7974589170840747 1.3477712419318364 1.0849253156440155 2.942216962916849 -0.9341655964582234
Ni 2.866664595691012 1.3526566984277872 6.378752587357682 0.4468754700433014 0.8999290438728565 -1.3172887638452282
Ni 2.3469628842999093 2.0421170951807692 11.517795245504077 3.1056717610718065 -0.7743877329342211 -0.798550960443986
Ni 1.64771855411129 1.5030149226235634 8.83532900727777 -0.7301580736918845 0.5438145438642118 -0.10473260172340028
Ni 2.0051111340206904 2.4391755268991004 2.649607288396031 0.6673236548641669 0.3970726875885613 0.3790461691041536
Ni 5.410338483885575 6.735094231451278 0.4253909172870831 2.1455058838950793 1.2509794990950327 0.6678311906282046
Ni 6.508603612669825 7.8456078776639835 6.670306363486125 0.9402817366582903 -0.702250548648339 0.21233943967080207
Ni 9.019912397864369 8.4657716127925 8.957999257869707 0.010042214727350448 -0.5197317918833952 -0.4029252897145964
Ni 7.1384117764796695 1.3582647895510667 11.852390888495764 0.3669316452288068 0.4447982757992985 2.0821641864136398
Ni 2.3803975237496413 5.5166783079379345 11.482241063820524 -2.513579613148129 -0.8161090239324074 -1.375555103686289
Ni 0.1378102365614009 8.595325027962115 3.1291976627961056 2.2997720735722327 0.5152400746606287 -1.6386614894973133
Ni 4.781627757476307 6.534821206163231 9.172618952091037 0.8945376976539562 -3.320756110477597 0.30774587889726995
Ni 6.832124438232655 0.43743482774254977 9.870736083864829 -0.4466684962388179 -1.1972331586115124 -0.3561540949973286
Ni 5.580152971149178 2.2057840729377594 2.1428478980781547 -3.4335995142335904 -1.4973978827274148 1.5184253928216753
Ni 7.521380228012648 4.686597118840044 3.3801071937720537 2.8372899857944556 -1.57575173734697 1.8436825411298312
Ni 7.64679500213772 5.361976835724628 10.065576794020027 -0.5455011875380154 -0.23542846027978165 0.9691092024129438
Ni 4.9864300371209636 4.047860650754333 8.785999196121908 0.2058540890567745 -0.13659345498773898 0.5134387597858319
Ni 5.709938894242644 0.5962098387817213 7.5246883507531965 -0.7367043594508345 -1.8537574088673299 -0.7716371667722774
Ni -0.2172442436657568 6.0691078346902625 8.540098815857398 0.9788840224115206 1.1693721705351863 -0.6134945248588531
Ni 4.644513184623066 7.661377899121636 2.660129666997819 1.0451611483721999 0.5427699046497814 -0.16803727531931703
Ni 3.0986145005244787 9.051217264731628 8.02715936492357 -0.10574227393483725 -0.9243460392646402 -1.7864646971579428
P 1.8908009383387285 3.4385038839263977 13.013504769160251 0.038024044652257095 1.4446529869252152 1.2735342444670972
P 8.795086535817688 7.581404473633947 6.676350639474548 0.6178031795365361 -0.12545003677640976 0.2523275500279655
P 5.495817697010049 4.877895338267454 11.786005226077911 -0.5000541109488097 0.8948588284388007 -0.519997386839956
P 0.397563438928935 4.274258266366245 2.4039394160553735 0.48046487596297255 -0.3608147336977915 1.6598499506494706
P 2.83031895703467 5.564370333278192 9.166493763345114 0.20318451264441137 -3.666116714403848 -0.1112806872545632
P 8.42183691550167 3.531283845859784 5.102903486526433 0.014577383593542636 1.0764918401646815 0.31030798319749137
P 5.017641900818683 1.8958603107617198 5.123430216075668 -0.3786322214951866 -0.872367332204504 1.1849044618428304
P 4.320192531802191 8.041872466344843 6.242972609987346 -0.487883794134863 0.11232404091741299 0.4782208171238022
Ni 0.3358074742907961 6.442999176876111 4.906850945072125 0.1294200771677513 0.19035547920054316 -0.5113731355060548
Ni 5.22024930566219 6.333720452666277 5.014752292341067 -0.9785268961824178 0.44450825536270544 1.7176874304832288
Ni 6.296286676926313 3.539412322877605 5.376081696417106 -0.14923891166589137 1.2198256992000476 -0.7816259025538732
Ni 9.035722936686218 3.5096141073568985 0.5532507447393691 0.41921554223418767 -0.8411096597418031 -0.7586374120784999
Ni 8.16503656376704 1.1484496390681875 8.195322115896138 1.6708630139305225 1.5284280125603418 -0.6081929101402817
Ni 4.265813578571987 1.6743732625015353 8.837057006167827 -0.598916112824046 1.6281742168127444 0.6756064636982494
Ni 1.6587580303357217 1.3625243347160114 0.5672030802338024 1.413028932262031 0.4212528843791906 -0.3065580292367559
Ni 0.047651103945659516 4.406164661725229 11.822553611643851 0.5041210819293318 0.2822904149386429 0.084961332633744
Ni 3.826727014538402 5.618544679535407 13.099449928164123 -0.4918972861696303 -1.5308852158515827 0.19239179290428157
Ni 2.6335242502874303 7.518664535462071 3.8648146025602346 -0.4646921865097481 -0.18594603727893783 1.4648433458301608
Ni 3.551651539989106 9.403178459539877 13.209979545004272 0.039253289073667874 -1.7748497386268336 -0.7495729878833866
Ni 0.9478604030037046 9.445587904850246 6.882068070307482 -1.3004806911489537 -0.21744513632848356 0.23597070593649683
Ni 2.0637589327327928 7.488066492683318 6.228135814350583 0.6627339786109554 -0.01802908958756895 0.3977265191224763
Ni 7.975989021042507 5.812725997218564 0.021516283273144525 -0.07171655180869584 0.5894711653610623 0.2639913595191389
Ni 3.4753052381134877 7.468870638490205 11.275298781244743 0.7570708389223284 1.2420235754533255 0.8065252368987142
Ni 8.689174526345214 8.46371624274566 11.336538578291934 0.06978256801077659 -1.414618645346654 -1.6933411404283802
Ni 1.5052097974247138 7.114370457153506 13.024924628348105 0.4180775719750026 0.9323329141248589 -1.5189640389339647
Ni 7.065962307407789 1.8695218131479114 3.7491270299373802 -1.6901151772919152 1.6272195662089588 0.7805342121515912
Ni 7.776441420476875 5.558604136766694 6.1645951188889665 -0.2992275570136137 0.03408382905758646 -0.3180223211226136
Ni 8.603248898006946 3.901957278379537 7.684029751094868 -0.3345725121718109 -1.7020520379388169 -0.4114880916829429
Ni 1.5133103734916726 5.313884896755347 0.852764662148765 0.48783468606448244 -0.7322604647468679 -0.19441242287873614
Ni 1.5563336397210077 5.1114355973000585 7.066822586726037 -0.9260933609730501 -0.8857982608984293 0.12259842626022759
Ni 7.730851266768228 2.971088554450842 10.09868127221789 0.2790222857103324 -0.7846060682281197 -0.5008426682883762
Ni 2.0753471276575124 7.397230296993324 9.309527987939594 -1.6977778360434952 1.0873724916329273 0.279899288998647
P 9.15370675756502 7.811605918880056 0.44970659596339013 -0.39842174541728803 0.9322760927449943 1.0185538301973167
P 6.854008084025483 6.116734757811843 2.019020688057135 -0.6297531528095607 1.386114367259374 -1.5350025804540661
P 3.3685655004321045 6.3116787014852305 1.58127336966493 0.5087662940108271 -0.791166752164773 -0.0841987434361066
P 3.1936823404285564 5.306788754919423 4.847952037802264 0.2507020986094005 0.8257375481611069 0.6365064123729941
P 3.606709416356954 0.40186018536169604 1.7438270994825233 -0.29863980283094377 -0.6242461069484022 -3.2184010078474374
P 7.493683884123552 -0.04699264150531431 3.288593935007806 -2.1181881699167326 -1.7197939353032705 -1.987107674327423
P 2.956533558417788 0.3675271352942051 10.17305683693095 2.167228363173835 -0.2603195670945065 -0.5853571431926886
P 5.958248056598246 4.749653267788356 7.0387960815850725 -1.0828604626951868 1.7240012885163984 0.6825970360834697
