# total energy = -381178.09900576685 ev
CRYSTAL
PRIMVEC
9.15096053271914 0.00000000000000 0.00000000000000
0.00000000000000 9.15096053271914 0.00000000000000
0.00000000000000 0.00000000000000 13.39335573290979
PRIMCOORD
 96 1
Ni 4.472476985442026 8.578778290829744 8.478208321034296 0.3500173859719714 -0.12247861285291164 -0.6617520743136602
Ni 2.8840898845771865 2.666516650315754 11.793988356394587 0.47169767129330376 -0.5174144566041282 1.1039381093010923
Ni 1.5773144387914741 1.097108641302286 2.84699921191953 -1.5107172255441401 -1.3099922301838147 -0.7249199652213967
Ni 4.570071978014291 4.194406752034298 11.021619846495206 0.48273001784806546 -0.0911389221993656 0.15912351776945496
Ni 8.903097478054653 1.125256995465651 6.979947198870415 -0.43410094398645244 -0.5709880189552101 -1.0664825355577956
Ni 8.537900950762204 7.6628220614318705 5.46987310193752 -1.0102890190853635 -0.8910587379664202 -0.21060728747104374
Ni 2.582053285904877 2.887182909189416 3.719830625377782 -0.050328573051223006 2.31190253828718 0.25826576988927136
Ni 1.1715700060055698 8.985318857169684 5.154847630085926 0.6230263756086883 1.1184512153156028 -0.3915926383105966
Ni 2.078723011507098 8.941128869440526 11.029856625943335 0.974359652178606 1.1175073633450947 -0.5472351395099866
Ni 3.6964663933069426 6.50378887116226 9.879702612541315 -0.4670979677377633 -0.18146974667513907 0.5833311139015953
Ni 5.639947361192333 4.709038462515221 3.4279223096664646 -1.19996752682354 -1.3475974421310986 1.988218905113731
Ni 7.962882052659679 0.3115261445979958 0.551720552946502 0.7576002290632371 -1.78108080713821 -0.15836221412339824
Ni 6.429364110300541 1.800661929059761 7.117832039853105 -0.5556174500364108 -0.5006066410181701 -0.8027683409594433
Ni 5.541217649531558 0.6344845840127317 0.942689845084757 -1.185603544792384 -0.3431458556631187 -1.5144630657398175
Ni 7.5511437408175315 8.4707512034115 7.828871728306629 -0.1321765568669659 -0.43854252469757377 -0.18803248749432133
Ni 4.741679938230671 2.919019100390439 -0.03696255921217945 0.8354727731709998 0.26616728412453516 -0.35816675455198316
Ni 1.900544661729829 6.63134410805535 5.724025470170741 -1.419618926774723 -0.30342128337998714 -0.0016172238884488276
Ni 0.8286606427459159 7.969269423012744 7.3893822139820955 0.5476992236305988 0.553550283094737 1.4523151314561633
Ni 1.9319416068320738 3.893559778212845 0.5219808467711053 -1.4816889566325901 1.076868249667494 -1.939560520676079
Ni 4.702477223914722 8.48315075474159 11.004583503534887 -0.9202420443985957 -0.40097922173181905 0.9184659263347795
Ni 6.224538163864065 4.854447223131564 12.997957337665241 0.699419249847131 -2.8856048708497597 3.342047158645889
Ni 2.3324699921949876 3.7071821679250503 9.429149587103808 0.9156369415264167 -1.351333769245079 -0.8734672501369021
Ni 2.5754920473043783 7.060798679214882 12.341307297392916 -0.3657898183148797 1.0651131660140947 -0.6174571090510269
Ni 8.11167666862077 5.777239219941673 11.507651145369438 0.12373048298214175 0.26628555486995437 0.8070600263562617
P 8.271232814001925 1.3798184116283585 11.959288559613304 -0.0769106944151256 -0.14002767748026854 -1.2802592218957562
Ni 1.252885440041871 4.673990284216884 2.540545444666382 0.8519851690037262 1.9292398554763612 1.1988300707849868
P 4.869473100093932 5.874385815454768 5.457042540373004 0.04309066054188708 -0.2937732187672618 0.6547759001061433
Ni 7.244064962969665 4.533385777805926 8.475837307196933 -0.6953160263120347 0.23799339279348042 -0.01811650709505267
P 6.119924384671741 3.6976468671974088 1.7611325254578467 0.6735516380517497 -0.13715164148405412 -2.0819492421893564
P 0.14959624009136085 6.343647064316068 3.707388064533853 0.36004931628667664 0.08060691231979021 0.710832376780079
P 0.9264615319269834 5.948545198465141 13.09384018554831 -0.28549478080855345 -0.10237052924912693 -0.35300295096285655
Ni 5.6078915469419215 4.135904662253285 6.729464365754071 0.7529838133371483 0.42507997143476467 -0.7970142120844854
Ni 1.4669081016715135 1.5479764597772518 8.487530404384824 0.6641964220890948 -0.40983615790181677 -0.6036292020289991
Ni 3.965577836491675 1.3823806805378975 9.865732756408093 -1.0458442904821537 0.29587098183655497 0.5245068446745353
Ni 7.472939633314243 6.01857749833908 2.5777651458655546 0.3912524813623584 0.8902282716453249 -1.4547687352029783
Ni 0.04752276750363694 4.745898530971019 9.75718040386339 0.7806018321647331 -2.125897108525216 -0.43004374319794325
Ni 4.1345045653134305 8.172256026410587 2.213078327066897 -1.230490120892429 0.9400765626260197 0.6039935273469533
Ni 2.943195937744018 2.071264978788261 1.0474957944452965 -0.1150380974144664 -2.2701956454666963 1.2270741532323448
Ni 6.6245632464054625 2.729447804926112 4.416807117902094 0.07284449476555198 -0.649616467392391 1.1567930483185949
Ni 7.101849887529855 8.064704788932683 11.549358477544462 -1.6717927248336433 0.7048005687637022 -0.8925751746109467
Ni 5.377506968132794 8.511839015568036 6.223530643124993 0.6408245801323738 0.024544007887951278 0.10275233806857786
Ni 7.226083325800936 5.528214134815647 4.905570893549143 0.7914683425655917 -0.10692523849934489 1.808247340250673
Ni 8.713700050837758 8.814461275705384 3.095003964961935 -0.554474080460587 -0.4614541391884246 0.29767538203514543
Ni 3.026643545551471 0.10794472877472487 6.550369089745602 0.7887910528437447 -0.9017653257506469 0.9182237284169862
Ni 0.04970801684505812 8.2277382992625 12.258027152160624 1.403759848255279 -0.4491799498067619 0.8914328334763874
Ni 7.329113988845579 6.870806439572559 0.21934394509713193 -0.08397685723328763 0.7029059228441508 0.7318637435290815
Ni 3.702698197333357 5.235136326366333 13.022868082042194 1.4617531369406114 -1.2558139443691985 -0.4240877827248245
Ni 6.1718652358522545 6.961739532980023 9.432605904843568 -0.43630540783693894 -0.3097657375407762 0.3494599708066046
Ni 5.914320606602013 1.2989422236908357 11.731695023723496 0.27893949618853897 0.28664766346607407 0.2784813256051978
Ni 1.912651382327401 1.9709246980986326 6.11775011648279 -0.6689061688599383 1.7888486240090868 -0.7747854825932721
Ni 2.7840607365408587 4.354612615603228 6.476022112047208 1.5665793268190826 0.2786918989541072 1.4172421990124302
Ni 2.6366113117572763 6.387708938599749 1.2814602289594663 0.06600150370178956 0.21523321627882935 1.0208197434133581
Ni 7.118468031600293 2.407937962541305 0.23630158979808502 0.495443865870308 1.996729513687903 -0.4156663914303486
Ni 8.367519219238247 3.4034068867784106 6.307519987787606 -0.4812446915517905 0.20640533357455418 0.2835757094089697
Ni 3.1671748442792986 5.607177772031407 3.8631255141437553 0.43458971069741287 -1.459096673154371 -0.3601609021638765
Ni 1.9350346314443032 4.853230145399533 11.233422485133941 0.42540290199182224 1.3614037518865716 1.5940219964110676
P 5.5845657489047245 2.7431742455129284 9.459459398111578 1.2987164001596794 -0.08379019514377828 -0.11280997941489604
Ni 3.753110838128539 6.579009765578014 7.3465365023344065 1.3041278009832378 0.02632064017239983 -0.9184972937933472
P 5.8693893910811665 6.005107284643217 11.52349603328682 -1.4785889775510277 3.542996611312195 -3.1097852690195475
Ni 2.1425052054338387 8.79895039784228 0.9040892639625508 0.4319687281347979 -0.5808507706819029 -0.49749637752396253
P 3.4957766809672943 1.024633035003895 3.8427005705505723 0.03915507293290676 -1.6678923613379726 1.2648914811904346
P 0.389616780192434 2.8299619538631733 1.9995882513320227 -0.27481467538688803 -1.2426576094928985 -0.16604955546532693
P 2.496455202405489 8.202948347562709 8.91465788631687 -1.487299360840832 -0.24401080263215397 0.2861051606990428
Ni 6.171508348396998 0.42995055321273556 9.473615933836781 1.7163633123551667 1.0691914498485264 0.21382553729802528
Ni 4.72074254085558 7.454244221234999 13.300526522232317 0.5644764430889376 0.6083906279733845 -1.0880762025681712
Ni 8.371014886107691 4.100298275371084 3.493764384777267 -0.26912713808380745 -1.4411763412305245 0.01180084928967
Ni 3.67770692450496 4.182217672793205 1.8820212877059397 1.1806006922611538 0.8098082785253603 0.8086445972345622
Ni 5.738878393981715 7.0088761299551505 3.7686628953134016 0.17009930005466833 0.9629220997656255 1.407994455161917
Ni 0.9265987963328516 1.3211424535999137 13.188718257980424 0.09766463913302534 0.7704182067635119 -0.060338134768425124
Ni 4.5420974920983594 4.493661458747679 8.686206905438404 -0.03698814718857501 1.027897990416378 0.06887188327104912
Ni 4.877361227951157 2.135834155308646 2.5839530252820917 -0.25247847378353294 0.7867922772461611 0.8374183269331448
Ni 8.91946854619453 1.8707674366168283 4.469242120943733 0.25320069666153816 -0.3756206883623725 -0.09565275090931914
Ni 3.62813617206577 7.621230946453816 4.782312032559727 1.0676117640662324 2.382022692143033 0.24711412414782602
Ni 1.0915906121863859 1.9812835852614836 10.649512513915315 -1.9774076734308397 -0.2866780024833772 0.5558293089369007
Ni 6.532449679107533 6.432054492655557 6.989724084952385 -0.5073894682679585 -0.03269491912985982 0.08104194297467979
Ni 0.9048936333809383 6.943666386207381 10.422026044262084 0.4472482800016878 -0.04683058720029354 -0.6336110931030701
Ni 1.8011560809208862 7.836351723330405 3.2538353542801057 0.4554393004529124 -0.9105939797858704 -0.19643459551508752
Ni 5.138648600001404 6.219340418361857 1.787370159091527 -0.11210292604554242 -1.5528411512973836 -2.356583426134322
Ni 9.099687560139039 5.6872944302564585 6.780841517774486 -1.0558533379787234 0.105581837097573 0.9164265273072475
Ni 0.3429532878695318 7.144035814933337 1.5081990651487358 -0.6253822774353746 -0.24201099859330577 -0.8867361993316665
Ni 1.1972292989425255 4.380656248876615 5.059915566987503 -1.8572633651380592 -0.06711504848094248 -1.6400236599521627
Ni 7.8811548254057735 2.169967237567863 8.879098169332662 0.5417170379052347 0.1475450689032362 0.8803616632638902
Ni 0.2954863412242812 3.5469305495541636 12.321324345186628 -0.784346901029462 -0.49039241948932966 -1.2685933555220539
Ni 4.414331783116271 3.01023587357003 5.246271214970358 -0.9758051263758807 -1.1167069789309865 -0.916555339575628
Ni 7.211606506462039 1.395722780788283 2.4799404641874703 0.5853219190793791 1.0079014926897933 0.7021690446781262
Ni 8.623627147707069 4.656685818117103 0.707332634399045 -0.9986115827474351 0.19497420891947712 0.8780173314014299
Ni 7.379105685462765 3.4323971292977666 11.06682284553967 -0.8251657348180369 -0.8062943518348309 -0.14640298487899303
Ni 8.917620052195504 9.042759435545316 9.809869803603906 -0.31675168194030606 0.5586436384572443 0.11725438833949482
P 6.632048732005473 8.214387048051723 1.8774403169340992 0.2148300673031397 -0.8037906115763706 0.7557827162385242
Ni 3.71261783839743 2.5123961754069786 7.733953391648793 0.6645162673223587 -0.9798055057845254 -0.6740468325206134
P 0.8414408740282812 3.823262100487562 7.778525889522304 0.1331576898333126 -0.9452372808913527 -0.6115854807615984
Ni 1.8215901754744603 5.776122802773944 8.32861757151917 -0.1050663309137352 0.6977081806932951 0.2348597322605052
P 3.616377187963064 0.7051089510239806 12.909171974661593 0.5746991492582102 -0.7416791869576066 -1.146332257996587
P 8.277428014186775 6.544153757447892 9.168113866464319 -0.2178148609630765 1.2001765575105523 -1.0164257281107203
P 7.255146776003421 0.2619553921588059 5.448350043097392 -0.17113828284214397 1.3771934106206605 -0.05205815414782002
Ni 5.496451151297753 0.11701241542637586 3.8049180852873405 0.9420144030786809 1.350755528144106 0.8848613509064568
