# total energy = -340859.00995780405 ev
CRYSTAL
PRIMVEC
9.32501627819278 0.00000000000000 0.00000000000000

0.00000000000000 9.32501627819278 0.00000000000000

0.00000000000000 0.00000000000000 13.64810391022801

PRIMCOORD
 96 1
Ni 8.135806296476419 5.50534974841024 9.185720139237045 0.4591550587416028 0.22873125076526413 -0.2740518290789345
Ni 2.147803029382666 0.8949190168280127 0.863512361928844 0.5820519900788557 -1.741023534106008 -0.008294635908624424
Ni 9.131363686721384 6.154501433134328 4.695411470129468 -0.17435499000722876 -1.2972835243678948 -0.7591881423756474
Ni 8.490418016341497 0.6711736432187065 4.510220376413455 0.7683307281068639 -0.6285933281735046 -0.34861767741096733
Ni 1.161290904948922 4.489958048494689 5.8789341464397635 0.5992668112952453 0.8113283147143123 0.9738418320019228
Ni 1.9928678835543743 2.3578396965290067 4.8715955306010885 -0.5462249530779173 -0.32857464271716313 0.7827772425494971
Ni 0.37523679091792367 1.1803978633480896 9.23860603668216 -0.5675846497006161 1.048056467642124 -0.5876845057742847
Ni 7.1821275544357785 5.505629498899247 2.752317726080821 1.0926293691564923 1.6953368307021706 -3.725218148551694
Ni 8.250783747458232 7.775524966700801 3.1882109505268397 -0.012982528302596994 0.5680140239285508 0.14595561292892928
Ni 4.820893551973489 2.2964251391757036 9.364509609262951 -0.7159766399851798 0.7327430608102413 -0.3600254050272767
Ni 0.9871182504932592 8.060040539037065 0.758913654089184 -0.9559487537715857 -0.5584348648805479 -0.7251930163771253
Ni -0.002442221769029772 0.8480169823427547 6.641850097525006 -0.8317073925912967 1.2557476099076372 -0.1961132076199268
Ni 5.969148084134691 8.575760565521186 12.622667507057804 1.1457493889099235 -0.2854155908311859 -1.9460839236168934
Ni 7.479921949983567 1.5139723464398536 8.295126064969079 0.7043747940801934 -0.0978081066894251 2.586065953243314
Ni 3.8020982211083543 7.4780942467887215 4.24404151612996 0.07449488588478138 1.0875015610116239 0.663264911413761
Ni 4.611015410104252 8.548559492973421 10.697479659308854 -1.4994745627507853 -0.618533115724025 0.04763277138661474
Ni 2.8632369299687763 7.660584815784189 8.760090027731058 1.2609965170114024 0.06177949520064198 0.18721076292397434
Ni 1.2182294544781156 6.282403356708258 9.544610176580669 -1.0234571810362052 -0.2145541879339337 0.7942888427335224
Ni 2.2216944585456746 4.238387758747132 12.958697266941417 0.3095669912664088 0.6653372205617574 -1.3235619984484495
Ni 0.6995645878463814 4.094353556973807 3.6105651838065564 -0.6819894844064577 -1.0178051249567504 -1.4685138527032129
Ni 0.22247437388758493 -0.045730812437949235 12.454945898878636 0.7170120232282295 2.8929510268021854 -0.48213095081148577
Ni 5.518451396312061 6.677084671615418 8.249091256999742 1.822273479326436 0.4028836378433835 -2.455607150398403
Ni 4.723158056130796 8.637594748608 6.256932074684184 -0.7792311770694516 -1.1473763829903851 1.5347922642154728
Ni 6.045342792323856 9.264869945091753 4.558767343774073 -0.6284845705097821 -0.2213115612624253 3.6075657534428323
P 4.854985811567123 2.9088455846931924 11.557146384515484 -0.7397863408102678 0.3740690276045364 -1.5081168118068158
P 2.5805024357458564 9.178538944184238 6.050900502038792 -0.1421123279234391 0.42393943007241824 0.1737471812199008
P 1.1482358821286023 1.8945169366358674 2.9320630102775005 0.19325594067678975 1.8316186679867617 -0.21019359697239287
P 0.5717699019599037 5.223090830018632 11.910100116482383 -0.2448042450677268 0.6349272408113323 -0.7424214644402698
P 2.5367308092325853 3.3645031811875445 8.26332682688367 -0.22492087588023846 0.09407795022303153 1.4117300109449493
P 4.197115236602322 6.102971393059266 9.563035476288288 -2.6652996393646617 0.12808644595799232 3.6385380334546302
P 0.6419387846158611 9.061043738801363 2.7657336270319597 0.32888960285442065 -0.5309369165705953 0.21450996495955962
P 6.714823012582442 6.606018722391378 4.956622894229831 0.33357749524839325 2.7041070991501623 0.021440943482595332
Ni 8.494651573741802 7.729058410476765 6.052006448972 -0.9652067820347441 1.293818705747746 -0.4366962155174544
Ni 5.676715572959535 3.6296040695867324 3.034560791944719 1.770933691401879 -2.171048251140558 -2.827397409271092
Ni 7.898176906097703 4.308362681064044 11.474793435561649 0.7270277555930189 1.2097058371572262 -1.2683053919679899
Ni 2.7862402703777915 3.0554907910305813 10.866156149157161 -0.1705962942957449 -0.48459175364715246 -0.5736174861582573
Ni 2.4790555834156733 6.844366139025213 6.340922496500341 0.12171782342748716 -0.29073134661714445 0.4266576003345297
Ni 2.868906539879315 6.649948874181754 13.400336566431637 -0.2097850486800645 1.4102727096731325 0.17574287149369086
Ni 0.867598584071604 8.376811342755818 7.605611047189453 0.6455147865191914 -0.9241858595376923 0.9327915989288321
Ni 3.329804795534395 3.599819967523804 3.2345730665683146 -1.1201720546614513 0.19810915500403298 -0.1165074828711413
Ni 3.4801147332777735 1.090196980675982 12.318928413618618 1.2350240042070406 0.5084217661872147 0.5296405663566749
Ni 1.788277025927367 7.669611431562809 11.412244023724607 -0.3212248872203113 0.5670256918733525 0.39182198071258323
Ni 0.47352526022721925 3.0484783787728094 7.7283888743064075 -1.3925722070695759 0.3431934210716025 -0.6912238585205321
Ni 1.5459944524148372 5.6682391331426265 1.1878215088247013 0.23308747085143083 0.45739796684118 2.2325217850650065
Ni 5.8554108603208075 7.56912505591155 3.060177544223076 0.7210789942087517 -0.35431472779574463 -0.8334739975734161
Ni 7.703060265031728 7.80979440160414 8.222313540192006 1.3273176088361398 -0.20930065284447827 0.7864426072162262
Ni 8.80343083849126 7.209254026853142 12.383743804416614 -0.7352884529399143 -1.8288369914765668 0.1591533425661259
Ni 6.036810402409148 5.538593431520553 10.318826182418528 1.1661539207082046 -0.11895697285289836 1.053378908296302
Ni 3.6672678104233545 5.032729947265773 7.9119154526128295 0.4505230940982176 0.1239423418826317 -2.040155960302654
Ni 2.0183904531680987 5.939102881615356 4.079937081773655 1.2528173236347198 -0.6101047824510137 -1.2190800792832746
Ni 5.047053172302924 3.049625355777738 5.027797946144582 -1.652508936903367 -0.1815759332357002 0.9347181265275837
Ni 6.511658882449369 2.1630121309683386 6.502052250656875 -0.28567347247826286 1.7647604727116317 -1.468581986936987
Ni 6.2026091922272055 1.0553307447294284 10.731544876355219 1.3925665506426208 -0.06535024327103585 0.3263879194784895
Ni 6.860237316768201 0.5481981257561868 2.826181180194929 1.193391416267919 1.7396443943702942 -5.062184850441823
Ni 2.6940438342174353 8.338373625566277 2.235887133354622 0.7778996027422217 -1.0331250431432726 0.600180067138134
Ni 8.078923697045028 2.9292487203580917 2.2435439042387393 -0.7083121814613866 -0.5684297713097307 0.7151623716140005
P 3.6579987442209276 5.002451619338932 5.214667542794636 -0.5233958709985438 -0.08201921928628456 -0.18054466375770842
P 3.752283984032535 0.2762797179399018 8.789351928881175 0.8263129610486027 0.15746464200979335 1.269280097176433
P 0.33988378912049844 8.619905192686467 9.887928369204541 0.2379666533206031 -2.568972745206453 1.218559173782798
P 6.872359837958497 9.44577526131618 6.588990310125531 0.8482848373340036 -1.9904663063870105 0.9575688058735121
P 6.977210321238263 8.091027568202723 10.372422646105719 -0.5298308279906101 -0.4467294313837403 0.4667524114728865
P 6.741044958418683 3.7601636228062274 0.3657541818422216 1.2224050298914495 -0.5442606302626949 0.5810145499532767
P 0.5316443568200216 6.107232925508471 7.612912534952532 -0.6492662831418238 0.039857755426886195 -1.8333657325848554
P 1.5567741712579013 1.9895761528003937 12.812239493431662 -1.0678642463966703 0.34666261056712555 -1.5103966089799277
Ni 5.60705770119683 5.106677326526583 6.206461356460829 -1.9919758010530015 1.2045016672484676 0.5431928511198129
Ni 5.091281724614906 6.649062997633232 0.754505718884066 -0.09178349776190001 0.38247679205225743 1.316386563745933
Ni 6.497027931874311 4.174492747057968 8.092220237787522 -1.1823495566314606 -1.456305483562479 1.717160097224849
Ni 9.033889291335099 4.529076491874147 0.9727138978142965 -2.954740035084524 0.2618239195541749 -1.4208574271675145
Ni 3.8470541246917542 0.9702679460387468 4.471064632968797 -0.0694858627059642 -0.4946797340107739 -0.30094531103566885
Ni 1.3415154949834327 8.136487022666335 4.569781120526272 -0.7740743154588604 0.6210952200242464 0.4066999262656802
Ni 2.166247911624518 1.373388400697613 7.8570908842788985 -1.3390181851025196 -1.511988121836764 -0.7742872028006149
Ni 8.226025829181127 2.4035882264979267 12.503942332024927 0.9956949233212725 -1.683986438686358 1.0411085755693812
Ni 9.26319144215771 1.0066355096096369 1.1627540000064276 -2.230282611321843 0.33425703781392113 -0.5408032678417138
Ni 5.904777496614216 1.8653762606976538 13.013480805203628 -0.20534166819673025 0.05937345686231065 1.5547147141710127
Ni 3.929216843313065 2.0062772569941023 1.2284879049099966 2.3303849133620833 0.9400804192807617 0.866690850645017
Ni 4.791510425611469 5.601453366400392 3.1127370660976825 -1.5050438293084467 0.5804147115857488 0.8632969944721197
Ni 0.5587792217520557 3.774887823544288 9.97569915262881 1.6425626243239324 1.8432256560980707 0.40137799983213457
Ni 4.227766565181172 1.5497151339186284 7.10539386030446 1.6632826304801032 0.764907818468244 -1.4468973028747016
Ni 4.6627039754564175 4.29100882572932 13.437172245820795 0.48284468904905875 -0.4934080663872018 -0.5266514018213638
Ni 7.055820208649187 8.104259766332747 0.8515744760612918 1.7484843612594274 -1.3481903385200908 2.0108106743713177
Ni 5.825412282882974 8.979365921027664 8.703819149368961 -0.5768439635153549 1.5667881003957789 -1.1370438907161258
Ni 6.769504908166979 5.649906151096378 12.929094070194711 0.34917354991443733 0.7342522983659161 0.5931211034088236
Ni 1.5207889333553204 3.17964405805182 0.9877598116147148 -0.23580229867943261 -1.6600828925958828 3.540321892693509
Ni 2.2671632380255877 0.497457914561755 10.440690157938059 0.3065523728098011 0.04228641947303685 -0.45747998503202497
Ni 7.130494939181414 4.66855076067666 4.6495948675415555 1.4877639591820764 -4.15068249990907 0.7846209806264551
Ni 7.960356114787625 5.143203415374576 6.745288773336917 1.8018419509449615 1.724734310027681 1.1046127667706136
Ni 4.684962789365061 6.467672780561192 12.161374803213223 1.0244246871557972 0.22427167233201373 -2.1649709345982266
Ni 2.7674410375165315 5.561020095722602 11.19167754817205 0.3628340781206654 -0.6501671976895383 -1.248606627987482
P 4.008871132549615 8.56610917365045 13.218502478583705 -1.6869771458835656 -1.168168122924756 0.3377511670101086
P 7.220919622244728 2.41354734390657 4.271337703843988 -1.1516094472351264 -0.593749481021442 -1.203492509257663
P 8.58081472435591 3.337395358802781 5.8438180000563635 1.3317692168495905 -0.7065280929777703 0.22663914412292582
P 4.630085068438219 -0.0835689310793853 2.5531372429112063 0.04581371590000497 1.5242646252112715 0.3451420601575411
P 7.601865188141652 0.4890448848556891 13.39109640777974 0.5489294964932739 0.2599876376763845 0.0522728412617874
P 3.572618894976038 5.103366945740002 1.475210118683065 -0.32040984751818363 -0.7234654921630572 -0.097380018013071
P 8.854093652050398 6.609506278487664 1.4826617392085772 -0.8653073400339291 -0.31783128815773004 -0.45372308909275405
P 8.36102409015953 2.469021865876628 10.208331266772232 -2.7169227628575916 -0.7503708011943335 0.708628941370857
