# total energy = -381179.91026092035 ev
CRYSTAL
PRIMVEC
9.15842335432900 0.00000000000000 0.00000000000000
0.00000000000000 9.15842335432900 0.00000000000000
0.00000000000000 0.00000000000000 13.40427832668901
PRIMCOORD
 96 1
Ni 6.747248621123957 5.986458391164966 9.788608079081587 0.16777116614212398 -2.291719635581402 -1.7613923275703471
Ni 2.769571338283476 2.598601890674539 12.068233989472356 -0.9667905815820962 0.3185188011430579 -1.3518497896495492
Ni 8.044466025142873 9.12225676346313 1.0252662644086439 -2.325061701376957 0.6950460604800998 -0.17612108076871602
Ni 7.311782996529062 3.512640019007235 10.319162872071935 -0.4858857898682278 -0.443205734501198 -0.3503613995749514
Ni 0.5343363060028691 8.986345760542806 5.226823954236202 0.889100585798785 -0.23196184188741986 0.3515351081680784
Ni 7.943842427495593 7.334752322359532 5.823971475288158 1.272028606455848 -0.8728327018766968 -1.0339825060475611
Ni 7.9707315585315826 6.290050967701749 2.450945209772723 -1.0036535160467166 1.6272635320730169 0.03696475014980731
Ni 1.6451275912788423 7.712775405684285 3.111347213565234 -0.3579656942847706 -0.4682117696272324 1.571088784653662
Ni 1.9897224292761573 5.9350704775944845 8.864423333489091 0.46959502312800416 -0.31351363461898263 -0.27869318450568775
Ni 5.303642977840992 2.565338496967893 11.237865385430732 -0.8708789205844357 0.5035042742809392 1.3828459809207476
Ni 5.619507841703466 4.234763385466926 3.424913313159984 -0.16887828316337367 0.2217584189918568 0.3086182541998943
Ni 4.271827524875184 1.850605978173749 3.0656118789032716 -0.4851134304785774 0.8097879668103861 -0.25908183803266344
Ni 5.637385084136112 8.185075299255793 6.0877001823902175 -1.5322903237292256 0.63475471978921 0.7766791000715592
Ni 6.7550973899583715 1.6466936816763742 2.6501326756497074 0.8744064741217199 -0.6573976539997065 1.093834188097871
Ni 8.411673010458939 9.042340361072108 7.358251920903553 -0.016880320695106414 1.6123310791329004 1.2364856763542316
Ni 3.894463848033602 5.471095590873016 12.59506221999045 0.6761080859250163 -0.5580170606168389 0.23244006707541903
Ni 3.597840831687005 7.241922543006404 7.363801009627907 0.44252027839839914 -0.82360816052293 0.03641967627961469
Ni 1.1394544029201605 7.8042131046840515 7.7038404478373135 -0.20496294470107282 -0.12354176401010336 -0.9347520650893126
Ni 7.360102838268121 2.2437954106114444 13.21852189140562 -0.11456655709468658 0.673598175018969 -0.42084716430033975
Ni 3.9017264777718648 0.5658486091597597 12.620852340221152 -0.413517720518462 -0.5961825159429668 -0.8024209849223536
Ni 7.395042223452827 7.947221885721847 10.650825100418052 -1.5216804094238632 0.961651460583318 0.5623308575008444
Ni 4.585943129872578 5.02105982453192 8.144426552937627 0.6504955275632346 -0.5828068659670093 0.01563899208883758
Ni 4.070479586923476 6.112221860983154 10.027016493072201 -0.7261749206744205 0.48788559390707587 0.43227777473478457
Ni 4.75402767411764 7.453079152395287 0.11174283946975605 0.7013781733457146 1.6788632585271794 -0.42904641228168044
P 8.31083876907398 1.494911131043049 11.230761196416898 -0.18988033933633752 -0.18038037026570225 -0.3463952158383518
Ni 8.235996133234028 4.78153957794329 0.8037020226937062 1.2299026238200754 -0.985687161376283 -1.2716871639560292
P 9.031954708962159 6.0200331712664426 4.240429702010511 0.6946179718037456 0.2099495992823868 1.4318329523424114
Ni 0.16484795742349634 4.470519520047452 9.41119769428078 0.45102394499403614 -0.5037433868749389 -0.8888391046072821
P 4.283513673104721 3.4484211542850436 13.131715607107795 1.9049830398115257 0.06706156953518774 1.5172696819506772
P 4.591035213270401 5.749731463706437 5.816170330255306 0.3074666570939544 0.22937711187937918 -0.28260074709021005
P 0.6759878086961364 5.794241401320506 12.655581997510517 -0.29880898141895634 0.021122898021544267 1.071574348258406
Ni 6.258674209210843 1.3167981131997546 7.536810038122987 0.037141642047303774 0.8011326051282331 -0.9832708386253066
Ni 1.6910204508228954 1.247322313458947 8.056762124369342 -0.2964919032500055 -1.0890164549942536 1.2110160713282176
Ni 4.221071542517742 0.2821691925724148 8.176944450981354 0.02610389617590343 -0.4260793592335565 0.05956089028276839
Ni 8.049915287052414 8.543233762275008 3.4668827041291674 -0.08517936218182104 -0.0682429914377986 -0.4815642796747384
Ni 3.2815729971959278 3.6217534751253453 9.690677057907259 0.40112063240568985 0.6726265551343189 -0.281826845038663
Ni 1.88612234403123 2.8086045387178715 2.8079011718024884 -0.36072140265303687 0.6559619499944443 1.2084467679391444
Ni 1.675148903109895 4.09409916081374 0.5719737627145517 -0.591004314176137 0.34891695381894106 -1.6904288518775918
Ni 8.907226140985616 3.1010146803108727 5.996082062449918 -0.7548530053354032 0.3359007440649312 0.9651754145761765
Ni 3.6951857137651816 8.75341957878589 2.3322776863873296 -1.0829905605151477 -0.20376712462075874 -1.0667201054898985
Ni 7.309740668115905 0.38675564001508583 5.555375982003359 -0.5124684254527626 2.7774059078443134 -2.347265491167506
Ni 7.529039115887279 4.192021023564691 7.7863844018953055 -1.111171393824738 0.3060633489885245 0.3857559770241614
Ni 0.1265043862694178 1.9025708724170054 4.039969215284071 -1.2290395044888318 -0.5361398009277735 0.03530664572109403
Ni 2.936355386408951 0.11344447453327333 6.285708043336196 -0.34273473626762907 -1.933516628474844 -0.4585014843180039
Ni 9.075731972706038 8.495463425938592 12.161474066192792 0.14161456235141417 0.43689804711561536 0.8472869921971086
Ni 6.742568666778115 4.868553758451782 12.372189239574883 -1.0906236515803733 -1.0506365696644744 -0.6308839239798941
Ni 5.952682125749187 5.7419284869889085 1.222841847771209 -0.7397194921280744 -0.1361273139845978 0.5832848340446922
Ni 0.09099809467765171 9.031057183471177 9.78362223339494 1.1620869497276825 1.278812976367533 -0.36784695795422456
Ni 3.5531019334885023 1.3414892226251722 10.073743684985933 -0.642880434220138 -0.24680276355499428 0.3087689208451457
Ni 1.8862047698416267 1.9328486201026251 5.8163846373623365 -0.5051736915635623 2.190871456514072 -1.5355929057398974
Ni 2.7840508056431146 4.704123425134293 6.643334401957184 -0.824279989778974 0.1364870113168617 0.22807150569407816
Ni 1.0372372396052176 5.375948730405411 2.3359236547338647 0.32878753005891764 0.04437775478442679 1.1048498224820844
Ni 6.567926691394848 0.26429744519379467 12.290141672063944 -0.4165120272600956 -0.002465945041989301 -0.3897093052449546
Ni 1.352607548605312 4.389027868835521 4.66663250319665 -0.3063549120870143 -0.046758596311777534 -0.28347929304042147
Ni 3.714619888171983 3.429014455148375 4.72398896128217 -0.39256580085714327 0.09786672784150242 0.4633274449517375
Ni 2.094787862261465 4.998456835636545 11.109801319660146 -0.8331628940909005 -0.18525312497697127 0.6343176322517914
P 5.5782674612351215 3.1047421586254673 8.852989957744768 -0.06482753799834642 -0.1259827693514282 0.022174736324826326
Ni 5.5944137616494425 3.6190517402290183 6.466826855731946 0.28336693583227324 0.00465343961161134 -1.0893738383336722
P 5.570592702444877 6.526319973991408 11.437442084301255 0.4933710425016793 0.612958449849725 2.005976743317784
Ni 0.5274858053165886 7.561835430001679 1.0004817390647769 0.48508874788822914 -2.000354769145316 -0.8344147642201307
P 2.3146541322822367 0.6075734702247669 3.9254431309499287 0.19005517435130495 0.24562854074123502 0.5165410528602394
P 8.666524457781303 2.290457577719198 1.8424449071021651 0.26631306567378005 0.5310911827602725 -1.2587249473684063
P 2.4343089337077113 8.373143523310299 9.255037417273067 1.0582619474202162 0.40984387121130056 1.2402397440800252
Ni 6.318973268727516 1.048245664504829 9.807762921575378 0.7012804714255858 0.011772567154895854 0.8568473821920339
Ni 3.0334438326325603 6.552073460528603 1.495448730495301 -0.3006190380445016 -0.5780968620858495 -0.6239609716078157
Ni 7.182658385331376 5.036665777966976 5.230001011305815 0.9399863169050585 -0.9048377940283837 0.3749573437467607
Ni 3.6489631509795424 4.035943172367374 1.8902308127583232 1.3646726524458304 1.617444489100066 0.18959597532669928
Ni 6.013127720039898 6.769063985608876 4.169628678406996 -0.24173434789315146 -0.008544290025585285 -0.9109853016870182
Ni 0.4404652139117332 1.7835388437811923 13.122842010697452 1.5461020328013373 -0.3100102494514145 0.4390757714932245
Ni 6.360341867123144 6.283026456971299 7.1876149240632135 0.06518569266871355 -1.1756670024049622 0.11484243646389253
Ni 2.975993042786253 2.083248248805966 0.9826090758438192 0.054847801077815214 -2.4231328319197813 -1.1377514583061115
Ni 8.034071214609545 3.957501276140111 3.1487318977917003 0.7099042085388548 -0.6807090750321374 0.28748070089033073
Ni 3.78280435021658 7.763302427457293 4.60853879202925 -0.828747024411392 0.3443668725544134 0.3873819426633586
Ni 1.9092107293656062 0.32626974866151465 11.54100278832566 -0.5838846724122202 0.7911418124641085 -0.9309807709723386
Ni 6.2156296193371565 8.191266393458902 8.510523537340356 -0.24371049778291576 -0.06175995481661621 0.10597084500587557
Ni 2.676897252127764 7.3707540846560144 11.823753540782539 -0.5582782846980257 -0.49009828528767846 0.22247472833259105
Ni 7.312973591568121 7.100315000745348 12.962433141084972 -0.11128428679898901 -0.07154505922783808 0.6128589481573832
Ni 0.8895265240054756 0.6350524037262592 2.1035735378073865 0.9909072721246417 -0.2618570867849555 -0.3267213915585083
Ni 0.11529447605550418 5.5492077838586935 6.854679674867642 -0.06359212292934854 -0.4433206628125075 0.653725604464758
Ni 0.10039372122050626 6.492186530063911 10.629605949294998 0.48548186956158973 -0.016120302600630302 0.13359143493662154
Ni 3.6794423839794645 5.624105370238911 3.7268582893311764 -0.7995300365278036 -0.010485730022672262 0.08680789892417953
Ni 8.400261614930722 2.2129589990998046 8.565521701406201 0.9025343427061876 -1.0817479463572983 0.06817665697623744
Ni 9.114114925080639 3.8422150426656465 11.783178061851391 -0.1808033167357338 0.6817760828440711 1.2535889116934216
Ni 4.743477170386897 1.322778563665184 5.497523137370784 0.7656490675096427 0.7141406152177056 0.3493134179264113
Ni 1.817095307035914 6.644994824115504 5.656042624240511 -0.2456066863643641 0.9004666615438814 -1.1433536349842373
Ni 6.056199785183718 3.326137885350261 1.2980956968208062 -1.4413645459819304 0.9122130034465322 -1.1432615894910634
Ni 5.267861017705567 0.7799661368265494 0.8702031665215407 1.8680465717964925 0.1269217362259298 1.9163671132787514
Ni 1.1455264376193637 2.3670861061177395 10.365327736790297 -0.3751188090252895 -0.4768031108406691 -0.60728582494498
P 6.219384572921882 7.887179262059741 1.9633919620661886 0.24632376703604675 0.35959577368902584 -0.09842285745528856
Ni 3.668177523225287 2.6540195105310675 7.469332606363124 0.0972712603493486 -0.8414397893877121 0.33421204350859857
P 1.2976295330708976 3.3206703065939647 7.826691539021494 -0.4593496912509122 0.6872597316664616 -0.2658762352466776
Ni 4.737908848973451 8.462099289574796 10.723932215027991 0.3142849655673684 -0.24742599896129 -0.33609460524329215
P 2.1675332191479977 8.803809224208235 0.47446036564623156 1.2212503474617162 0.5080039619235057 -0.8761651086840394
P 8.249724609876722 7.356219666756112 8.651603554414875 0.07620235549419134 -1.2980849372232677 -0.23339111813477872
P 6.575976945543566 2.670422246799956 4.626728336699066 0.4043895329649487 -0.26075716885255734 0.9192825086988039
Ni 5.4432265085356475 9.136782022939656 3.7461468448062774 1.9403375080514196 -0.9686772570818479 -0.26256465437494136
