# total energy = -340877.9501643957 ev
CRYSTAL
PRIMVEC
9.16510184998986 0.00000000000000 0.00000000000000
0.00000000000000 9.16510184998986 0.00000000000000
0.00000000000000 0.00000000000000 13.41405298015221
PRIMCOORD
 96 1
Ni 0.7950469009733349 6.804693833990715 2.6596849872014183 -0.518661698747668 0.5683919760932599 -0.6280647093635442
Ni 1.027939464551793 8.499421934792588 10.473692049774948 -0.672120819142494 0.7907227226488188 0.09044678122834746
Ni 4.795346125678596 4.561810171968257 9.377308523031191 -0.10167658850589585 1.2918404989754526 2.0138376341231
Ni 4.855157578679408 0.827967029387925 5.501009456848727 0.6764569846240026 -0.6358613225898275 0.6053094179448995
Ni 0.4989490472738999 5.267724626922057 0.623243405557857 -1.1501488035291998 0.1440509397070487 0.7429719376271011
Ni 8.2608268450025 2.3422883539082684 7.989490346278898 -1.6778911244218975 0.5194636258236731 -1.966175809270762
Ni 7.402432594833484 3.6878169188866803 10.469681401317523 -0.9769621227984594 1.309264865099487 0.07302627175905488
Ni 6.721447216214685 9.458293193733883 3.80273629475039 0.7393158289317525 -1.249774680153654 -0.22030420304383347
Ni 8.237080066773094 0.7601113667182794 6.070905555559844 0.7530087530378128 1.037853044746561 -0.9173258991930654
Ni 2.2167172969723015 4.8424547478704705 6.39113878779626 -1.3774577200256404 -0.017853483241653124 -0.007532818041935413
Ni 5.906312245568169 3.0777785917050977 8.211935610550642 -0.23687753402148237 0.4264938210631558 -0.9089543872999185
Ni 3.2174730701970327 6.087487973873416 3.5090222839754897 -1.4555601207560223 0.1596361957398154 0.4494162341872841
Ni 7.780263908035821 0.06676868162062687 9.686824085463876 0.8203498014866324 0.1867950155427944 -0.576712065923181
Ni 7.453528036218639 3.9034350989812383 0.257426624034767 -0.8521044681904099 -0.9844116370979691 0.48319050242425177
Ni 5.166606061038214 9.262343321659511 9.928558222549823 -0.2500482670754855 0.2816754070624633 0.5169917672444129
Ni 7.617656675559512 1.6913278481105931 1.8133116842827655 0.7546712283419003 -0.12728631865420015 0.17716186332840456
Ni 2.257987749448957 5.014557025597904 12.535257924417456 0.29794303387423526 -0.46391777023756875 -0.1859612067875894
Ni 3.7729882079973973 1.7177508360053737 7.743409201507034 0.10616419196360426 -0.4157494380624582 0.765937545284339
Ni 5.489474259982833 2.284997303845738 3.356800028115058 0.8240719875332259 -1.02983711642062 -0.07605323151083676
Ni 3.3836271969901235 6.89497008468915 5.8963341994630545 -0.7486885283959042 0.027962803761513135 -1.1928401717501393
Ni 5.460228420797178 6.981085379264024 4.591000104034191 -0.5612625641373301 -0.9312725911811446 -1.1116881855601564
Ni 7.822139257217664 1.485103897149628 12.099690137215132 2.205697465783311 0.40617670677235856 -0.5748670422946422
Ni 5.597549137976332 5.222907280128619 11.915354281880361 -1.9100686818645491 -0.7299937801998783 0.2615845498498592
Ni 4.339052377732168 6.867474779907901 10.597517154857305 -0.4585297664527781 0.23461136369512497 -0.8877155325258
P 8.345393237408029 8.559004260253555 2.283178947689538 -0.04221519991546923 0.9808249481879754 0.8672102134835967
P 5.038102171592248 8.565639793807431 12.055155075550783 -1.458858589001636 -0.42135829960880333 -0.5830202675293958
P 2.1486297572323343 1.1305427768938223 9.75660350295805 -0.4143708125473766 1.4167022673485603 -0.45484923227739726
P 3.829921819097771 3.60149082697515 3.412427612238323 -1.545163837257784 1.0173415550567704 0.5516571798370822
P 4.386106009314479 8.090750054727284 7.325964486196192 1.3894526876039879 0.6385494109449519 0.3442105494822072
P 6.49312620531119 2.309220667358019 5.974980852749181 -0.13108512357500005 -0.817124095460483 -0.32746161215864245
P 1.034904941763043 1.469028308954191 4.835269308220971 -0.8276100825934715 -0.7068026867953957 0.44558246226349063
P 6.53570726731575 5.741743681350798 10.008184625196323 0.7669029945214019 0.23241024227874812 -0.30318345633756816
Ni 4.515810527069227 4.1331033798190155 0.4930228925833813 0.5721115910366922 -1.0781034076261755 -0.5349990024551109
Ni 4.038565356879486 2.3788021186577675 10.111191202008477 0.5140247141962889 0.09140014628055226 0.300379925450502
Ni 6.952151153532556 4.157381733940859 2.665721123111062 0.2947723494557375 -0.4981646072355808 -0.8195992964738529
Ni 0.8197935917866188 2.9484773384204757 0.35209570792708705 -0.15705557949683274 -2.1400160644251014 -0.8621322847400572
Ni 4.921989499501032 5.3600538603774925 2.4143150543132292 0.9274964119681639 -0.06703637272420712 0.7319179938057846
Ni 0.6931630491064149 0.6545880530084812 7.847676896298489 0.3031423186869876 -1.0059957910266482 1.9060001682221301
Ni 7.3461588710478605 6.643452201651874 2.7831746495654444 -0.34996750657064246 -0.00586211520773184 0.14334260078611444
Ni 8.36030485770106 7.209992956669519 0.5030788420520436 -0.6337332205032312 0.2633627247962045 1.928973489188852
Ni 6.179459768366695 7.4527215072783894 8.676745570897983 0.2945545770179766 0.016231374257197853 -0.6902784638881273
Ni 7.755078208856197 5.762062711584141 12.274824230549779 -0.1910843869467677 -1.5565700222121965 -0.5614569395363234
Ni 9.329523516341698 0.4421089202097822 0.37597996268039907 -2.110193324636714 0.03995185780258926 0.14035909267775826
Ni 8.735716584082647 4.9679616490952805 3.92503266088691 0.5915637862240328 1.7353074575578373 0.45160295742595774
Ni 6.725993106605185 8.17288769521047 6.116741145140346 -0.09038301786994757 -0.802553910955792 1.0289608844632538
Ni 3.569761245257588 2.8332903415902275 5.590950264828831 0.7467630292384171 1.3260112313198904 -0.3986402891859973
Ni 8.942023020957954 7.965032356165818 4.62733881534325 -0.9190817055419075 0.40435945105796167 -0.421023541977204
Ni 4.332526825397418 0.3060823153756661 0.6366308694558472 -0.4729870795286886 0.2545338136506649 -1.8772709186082381
Ni 5.641257507476925 1.757298249382404 11.971531772099251 -2.7911718512801547 0.34976644630342985 -0.059441591096084725
Ni 5.3172528359346805 5.907274581235513 6.906265155893287 1.2908025446292415 -0.6696129651189758 -0.7755087339125418
Ni 5.54074383829827 4.281587190739357 4.671577844226121 0.5331246682505335 0.6265930099140241 1.100718316812214
Ni 1.2904463043999757 1.0690357800981671 2.232352960291239 -0.3715094944074763 0.40733524585683395 1.4664870520811712
Ni 1.4184552783598792 3.6640793057588676 4.386556015802732 1.099816888043867 -0.7993351469081782 -0.8198121838156076
Ni 2.5743578913636074 -0.028432894674290086 6.43379592014405 0.21850160261745596 0.9917187122823435 -0.4493812671842906
Ni 7.982840148562474 3.859011851556333 5.916697222184047 0.0011431124655077087 0.21850288816903657 1.2000611149786107
Ni 1.8504798372860587 2.929322276089538 11.189385668129278 0.285297834306399 -0.08786487943378417 1.291973425008891
P 8.377177809735153 8.19752348829447 7.626358023012617 -1.368824469830675 0.4650585687102314 -0.19453480738921336
P 1.411810579704411 6.469617719723221 4.7040268864187915 -0.026651284038941195 -0.9449212923128307 1.4494254686131942
P 4.01166578370183 4.0375022050946106 7.361658890863211 0.5934463479587263 -0.3385754626836169 -0.3198658020892556
P 2.3464126496254556 6.252588113983225 1.1830578925158495 0.20980793149819993 -0.821235032305063 -0.5481082861435592
P 3.8389127837612396 3.6990899938469926 11.935006092717678 0.6894174014394127 -0.2775037921832769 -1.618658049792193
P 8.565135713219775 8.395260555179622 12.239773216014644 0.45690997146116796 0.7090696284527014 -2.421734408910358
P 0.1385790856279755 3.6513398145435554 2.2845472973574847 -0.904388622306107 -0.39114886590495856 0.29471809917903435
P 5.85696733858742 2.082622695554148 0.7035819365981898 -0.7645553202248317 0.3931021329765875 0.9843003083310854
Ni 2.8469096825585396 8.160157369096751 1.8648617147069708 0.22555799524360512 0.7664227124508737 -0.02780339536551341
Ni 3.6959646942035236 6.790781209771403 12.932716302682808 1.887702655464523 0.4107087903147572 0.793966426397097
Ni 8.967712800725236 6.72862349076259 9.088838783388233 -1.2459483644290283 -0.5143921248380366 1.4048718503725353
Ni 5.488438603502739 7.855298594783851 1.8385303778281277 -0.013955176628511451 -1.111063921712596 0.9873933454341123
Ni 2.23912597036902 8.425157116578434 4.108925841814703 -0.7989384256903918 -1.1070859109014546 0.5134827256498898
Ni 0.5862402243832514 6.5217579826900645 11.800959149827813 0.49328825297988593 -0.5535867927596273 -1.0566706916736963
Ni 8.297688883612562 2.5597853798295453 4.141735989010169 0.25533034141003125 -1.7542408041272302 -1.3557876912513749
Ni 0.46007985141480695 4.564770499783038 10.00469638752974 0.2746035878173464 0.7680939295057094 0.25476444160423223
Ni 2.3952351458153607 3.766792599320022 8.891504980973206 -0.077099413387164 -0.2082261888333769 -0.6161990682742098
Ni 2.3553761189841427 4.063182819760298 1.681358050596912 0.42348691591603194 1.4394876406741919 1.4355278846954955
Ni 6.5450373407381885 9.062150007547235 13.440076163689293 1.9668617795941934 0.09289987075453034 0.32868931391815653
Ni 1.2320921025525704 7.528874336420857 7.527134800138363 2.13774552322337 -0.4904736663492262 -0.25729389289430526
Ni 7.423979748680391 4.839961840236971 7.981817323224611 0.6014478781069641 1.235062313644144 1.2754096071129388
Ni 6.330564798342849 0.963279672807888 7.837897732897957 -0.536492813391818 -2.7439579125985127 -0.911908584832236
Ni 2.9736172120921314 1.322661636502006 3.937788649285091 1.2872361674342219 1.0919251440006164 0.008607796273669047
Ni 3.401774098145748 6.012746570376386 8.201968562567437 -1.4508773705683722 1.6748315116599672 1.3554637322530527
Ni 3.596340039879463 2.1028409096699603 1.8359274889755026 0.12918559255944204 -0.03290369270655624 -1.1021617341269598
Ni 9.096399992203079 6.1038476802182595 6.330815922126518 -0.13110954905503228 -0.8102530793722627 0.20583943376875516
Ni 0.08170779721843908 2.132343371700241 9.853010290112543 1.099236847170681 -1.0356251838573067 1.9624870475652652
Ni 2.9836346681341 8.476884949973558 8.963645328637929 0.2528872791861774 -0.29460471352962164 -0.019717790143901525
Ni 1.6117106105656882 2.407250594004767 6.780012215398746 -0.3763830204496937 0.26002877532696506 -0.9154801042335783
Ni 1.8131045529867469 8.065967620017785 12.880642944957598 0.1472704750856109 0.8622708672004504 0.8903419144050537
Ni 3.1438589741960343 0.7401717716909173 11.695350600673194 0.5411915044190679 -0.7544729962881651 0.07255935942496536
Ni 6.846972447642683 7.650238611725292 11.15412019021685 -0.6953677054855766 -0.09977782882128623 -0.07278793049600368
P 7.208554035719302 5.819042148192483 5.346693891784283 -1.486441640826227 0.6716420797338626 -0.24217452075436355
P 2.048226069272805 6.532077887084626 10.167784787839722 0.4425022806762702 -0.3383723455338753 -0.9578333723888085
P 4.432600569699572 8.689194528392772 3.6878984882908643 0.23085626752806693 0.37282821321889986 -0.6842158026338152
P 8.866713381162114 3.525704601896433 12.004369414599498 1.2971981637429402 0.5139357540269085 -0.4549564472792229
P 6.034944446436448 5.831864125322139 0.7117003835899334 1.5619585402176197 0.37043580172732327 -1.0729879407764813
P 2.1585005716488026 0.9817473525192939 0.19049663662609015 1.450387061195515 0.7569427979848964 0.5432915814812063
P 0.415491632161214 3.934761416228675 7.735266925251146 0.1640356103590917 2.22682602023181 0.2561443526708943
P 6.560223914079032 1.868663398848058 9.987285444032095 -0.49513970436632787 -1.6126339550853 -1.0534616978180953
