# total energy = -381167.2036136543 ev
CRYSTAL
PRIMVEC
9.26157443456474 0.00000000000000 0.00000000000000

0.00000000000000 9.26157443456474 0.00000000000000

0.00000000000000 0.00000000000000 13.55525035927579

PRIMCOORD
 96 1
Ni 0.6021347702122878 4.6446795129911775 5.017624587027327 0.4490159134250719 1.118432189152209 -2.0625885782745574
Ni 6.811498913789562 8.767710114936063 9.743473463368067 0.2993139460798329 0.8273406309821687 0.10622821243232028
Ni 0.45399496307720266 1.764783721876283 -0.023488278590023778 -0.7946685946704444 -0.5373798439824615 0.9902349286479656
Ni 5.4102134601602945 -0.13719910941086483 5.1572576381650395 0.5305232260719445 0.402580504780668 0.575730675846518
Ni 4.002694967025057 6.420771617091513 13.224610282775004 1.5348069195034924 -1.6867927977869017 0.5849249407512765
Ni 2.5462383152723818 0.259650087901516 1.5454205560357048 -0.47857562936005965 1.0383333268170893 -1.384682519908854
Ni 5.54750703762905 1.7824918519437587 9.10716255782001 1.4293173850094094 0.2101930827517606 0.4841053009290372
Ni 7.89435291973057 5.830429609439328 4.147269068053459 -0.513758862129412 -0.6736110305347753 -0.195009947253419
Ni 8.30452026089077 4.530651010171741 8.9748637473729 0.8840694511327806 0.03644050221522111 0.2378542961124549
Ni 6.962740422158747 0.5901623331107052 13.373826284844105 -4.110841713763049 4.1130554335849165 -0.8863626180423315
Ni 4.2310761277645375 1.4017392707701193 12.705715763926445 1.112509138799555 0.28816307166933597 -0.36898569954435806
Ni 6.728385545993784 1.9458938073728782 5.297567710384306 1.0995137549811516 0.6944228250738042 1.9985218297016352
Ni 2.7016104857807366 1.8761263681478282 4.669837653428045 -0.9324439857814265 -2.3942020078180444 1.0017071909536233
Ni 1.724505135232218 8.829883063232595 7.878161835533938 1.0981155890820444 0.3208307371056861 -0.02011631113390084
Ni 8.572994776788255 0.362387805488076 6.777218122664167 1.4446000222000925 0.2971053684642883 -0.5016232552081425
Ni 8.785946154738815 3.1327182464401853 6.5498020179670675 0.21852242855306236 -0.6339383945355018 1.950463797852144
Ni 3.801987390303159 1.7945318985377539 2.8480526463460683 1.444182732157016 1.8636759535326226 -2.195115319392091
Ni 0.43671379158509854 5.28531186910905 11.093359031930142 -0.39947615482373133 0.6505688040033311 0.21379005607439958
Ni 3.168430876952835 7.268594651943434 2.1171949595250883 -0.29750568922650056 -0.7098304178781258 -1.102103627195515
Ni 2.2324747010328703 0.16155797598537747 10.287418688391577 -0.8894379145335456 -0.2530394884933255 0.15291687473811086
Ni 8.47482208917568 3.445824288904179 3.1466476541920074 1.1492021233452145 -0.43263747206704845 -0.5269959296449762
Ni 5.314624751778276 6.846248340574693 10.004195115416449 -2.016915758827791 0.30892755791019694 0.4622897477158425
Ni 5.721606111378218 5.0213106935999505 5.52704451536384 1.298199865534577 0.9019969821454789 -0.3623203717090405
Ni 6.894084371850066 7.234817690460126 5.803653471971713 -2.7766944835995857 0.0028955763802401744 -0.9793625047098361
P 3.5959451467826913 7.103257027484972 8.429129186194038 -0.8020096084165478 2.3995753563148154 0.9001869255199335
Ni 0.18500735596332835 2.002519072661867 4.629022821631833 0.697738005489966 -1.6758956912584235 -0.2294539878639016
P 8.983430703603243 3.7118907954828635 1.1592481015799065 0.5026933483438697 0.3648835044505264 -1.3153054148666121
Ni 6.898678112704389 7.728524431834046 12.15804275524595 0.41634773376808937 0.8592621622811137 -0.6970227245904963
P 3.251636860491644 4.970325727061533 5.362294074716194 -0.4370523133052925 1.115604232785111 -0.1285772695514818
P 7.795494875619568 3.814018175322851 4.950513367312398 -2.810082315031412 1.9308776481901004 0.9757629602840356
P 5.632954322149203 3.319209306606866 7.354360534619612 1.36768315713738 0.48004578614768284 0.5981771777754924
Ni 7.052883324850558 2.6567659430052566 1.5487954737117446 -0.8077367407083121 0.11857902068818933 -1.3421564736211853
Ni 0.3355885140847036 7.888166188096118 11.296566307556438 -1.2281550450013494 0.434550115708729 -0.04575123809318572
Ni 5.388143128596071 3.720781906813814 3.252500965374121 0.6453589776676175 0.0009754765393918684 -0.20830769280358966
Ni 7.1857128235052325 3.194261407684106 10.625635637263493 0.0034763885843746584 -0.4663626322336356 -0.6870553289651393
Ni 8.927490794812682 7.724088137742874 2.702333814733807 0.2277498606886013 -0.12253697689467283 0.46866325534235415
Ni 3.842330807967346 7.3390659708155175 5.298733742589063 -0.2663313205062252 -0.06451129230950825 1.901304562518674
Ni 0.8157678000315546 5.3728800541446065 2.2389346491092637 -0.5187524586892615 0.6319100512515634 -0.1791110166349754
Ni 6.549016636466167 5.67375155695424 13.245688699731367 -0.5684397986120597 0.3134526994740601 0.765491715996172
Ni 3.784677507930715 2.4578180654009425 7.6896628660583515 -1.637472868505851 -0.17055541375548047 0.4729549407391726
Ni 1.778713129628105 8.626906400806442 5.613743964729768 -0.1319101905794567 1.1874596241645163 -1.1497749651295488
Ni 7.918164427263772 2.2308631871041356 8.53636432426217 -0.8901130862236993 -1.0135705180501124 0.6226563938637792
Ni 1.3951728145892401 4.290507650067358 7.878460058226497 -0.3851682228414915 1.624624551788273 3.2191638541553913
Ni 3.7550960396067 1.9509784116652653 10.426535869840608 -0.6585466800024852 1.0161477918589854 0.12273649449998861
Ni 6.740092175912868 5.408963147629379 7.485290484384727 -1.8407599681663975 -1.1303016868962854 1.1001207924375311
Ni 1.9303714088409276 6.59016581109472 7.006518957731943 -0.10570370738741794 -0.31505938183954774 -1.6441135137508203
Ni 4.86194678456697 4.178136969048172 9.458718026003211 1.3386895981185074 -0.3601089658800185 0.5763497974877557
Ni 5.671269455041016 7.5680769186076065 7.735506732701133 -3.0106394173553057 0.7136780737589903 -0.46191359532334636
Ni 1.2879978767540778 4.50828430822982 13.48070948308872 0.8252050726964046 0.14882727804976947 -0.34677959576096407
Ni 7.016374198947843 8.015577665783495 1.0350763225837447 0.1506504473014373 -2.1726269084815875 0.8298333154970353
Ni 1.165180139921025 7.821584730431325 0.7791567968115065 -0.8974196471874416 0.04743633910509249 0.05978329070621961
Ni 7.4814719372995695 5.260676081462876 1.9319894058716744 -0.9602571513389526 0.7716073419756067 -0.851582791358985
Ni 2.195641420029548 9.217841149214024 12.586754546633193 -0.5619439064750709 -0.1301636402019952 0.8163262821495361
Ni 5.826067407942581 8.17993356336583 3.0907735025789975 0.05089498707765428 -0.6157786929073394 0.19380332853982754
Ni 2.7867336152002817 2.808933608804748 0.7721791267315712 1.1647267013433749 -0.6943372073385332 0.0289364805286921
Ni 3.1956969517010823 4.8661978471720815 1.9441748591822279 0.7143496459047182 1.7779263206696283 -1.8293105886788752
P 3.8141570989373976 8.138413925765153 11.606127019377215 -0.12946430014212543 0.022998517777702326 0.21522370319713258
Ni 6.115843544737133 1.311448182889459 3.3452593366491197 -0.3449985926011413 -0.5333411551367138 -2.3257379015083752
P 7.648958246996345 9.061552082849666 4.160607587364745 -0.4357904158737334 -0.01670985655551316 0.31121429706184467
Ni 3.810887763208412 0.2088605405808932 6.7534964524017065 -0.053479974196011124 -0.11648665693553487 0.39956151544868607
P 1.335750553860723 0.23947189596741056 3.3617430865937292 -0.8621543962272443 -0.2237955040265436 0.6695309469281308
P 5.168754956504874 6.650764291759729 1.6931593370034668 1.0148200741864974 -0.9789760679046948 -1.3979915783129342
P 0.7071304596139371 2.1432579557713667 8.075621378147748 1.3445733105927942 -1.3628957630510656 0.8887223765237597
Ni 2.0529390831677974 2.2788659267169633 12.063278326976905 -1.065417584628391 -0.6148741788151991 -1.1697820043790952
Ni 6.417391142470891 0.6051308894993319 7.34537310291591 -0.9529001967532492 -0.6016589656765058 -0.11835610604410583
Ni 4.220888396031157 -0.19517749070553295 9.268591797922575 0.587989181498897 -0.6705177363214323 -0.24043156992132783
Ni 1.1803876449266713 2.2146461704994542 2.1927518088469893 0.3987727009988035 0.7087886068771728 1.5044463049337637
Ni 3.413288378377483 3.920229909430494 12.412054396711754 1.6449048993038637 1.6437589586248789 -0.4691371096549791
Ni 8.912774153245099 7.526297956926444 5.254394881770531 2.7350148444726123 1.2521889460221014 0.06663810884452394
Ni 3.4273196634466383 8.994257483963537 3.5729060545463662 0.6691419390198282 -0.8826296333624605 2.359604215238517
Ni 8.862465281630804 5.543394898638486 6.79620898077262 0.3791420712520696 0.944486261657941 0.24633842232406608
Ni 8.837588693052751 6.258638497341915 13.478039371217145 0.21707438325262615 0.08982740247679367 -0.3400037104897112
Ni 0.9263148770704658 3.2055883130567646 10.158413293766642 -0.21044067998619242 -1.0481827088073434 -0.4193371554137166
Ni 1.9461901777505763 3.292146986493286 6.15573777604762 1.6922479073642018 -1.2631184484504119 -0.9794440086800487
Ni 2.3625905584167444 3.8918524457658776 3.5452806307151596 -0.5172211096463996 -0.6262276561548054 2.4035034877246284
Ni 8.436117970163137 3.7170309692210695 12.642615732042179 0.6722108077531391 0.27728447708361925 -0.4741921555803833
Ni 1.6569512122656025 6.68982961217009 9.362285588202184 -0.9085430107941126 0.4231362174448326 0.6609547752233454
Ni 7.812823281140618 7.4332469199034685 7.857056560012095 2.7666219298549315 1.9105535919207677 -0.05749372334109453
Ni 2.010984151574876 6.669120732028419 12.45091781480231 -0.8125706717618458 -0.07857548371205822 -1.2562533458994622
Ni 8.612050835624313 0.9225639394777213 2.221380261175219 -1.247185579270239 -1.4483360922037574 0.5474112600765347
Ni 4.672167865522699 6.0076590953029365 3.7835550051251827 -0.0043456785632054185 -0.6217565077573292 -2.0836752237415275
Ni 1.7847053682021934 6.897038814052745 3.9398876008887664 -0.28740948133276306 -0.5146654331040813 0.6090048645186157
Ni 7.031859551182581 5.706491222115604 10.823135004646806 1.5487284146805909 -1.4953919080409797 0.6472189136944918
Ni 5.028025334969678 4.092856392865474 0.8269539294748063 -0.37297528031972543 0.1855032933145644 1.2540781926250144
Ni 9.388828333997361 0.11424614981555867 9.251322666477064 -1.8133707775201675 0.5825901219705129 0.37300844755050594
Ni 4.55988053867224 3.1690791871540505 5.421083769919811 -1.1363898020718943 -2.052934085903929 0.007213229918987578
Ni 4.386253805212528 8.554730952262593 0.3261972777413874 1.1262383154601894 0.7362634152586739 0.12174841955510646
Ni 8.72493090323017 1.3321755861797366 11.419973080515167 -0.4211302427583973 -0.43244103978552617 -0.3349576634253715
P 6.291998687981584 1.207218425682674 11.229101295703133 0.002090563980441561 0.38966816759437406 -0.31230855856728795
Ni 4.006594089806651 5.355449771306223 7.579431608703175 0.47845298773926637 -2.2409470330142245 -1.6763978277058222
P 5.061478141352378 5.182434301750513 11.722038400252465 -0.22847671155229682 -0.7385483546381088 -0.8854899856293911
Ni 6.219100836642095 3.325053359992105 12.727458235760341 -0.9474144910483298 -1.4383974929338066 -1.1555267800116615
P -0.601179901901641 8.97769778910964 13.28098641171524 4.575691251786268 -2.664785932953037 -0.4495357904842838
P 5.198956950307196 1.6036138058542042 1.096970497493752 -0.5539531749601105 0.33814711689694665 0.3585930434561244
P 8.527965002526713 6.610828383364876 9.568217618988445 1.316132795863914 0.6432118494176278 1.5454885675870544
Ni 2.8402099452262264 4.9086621653516715 10.284191955904387 -0.23285992822165705 -0.24135793839033914 0.24701333690390362
