# total energy = -340896.48445931845 ev
CRYSTAL
PRIMVEC
9.00171428190077 0.00000000000000 0.00000000000000

0.00000000000000 9.00171428190077 0.00000000000000

0.00000000000000 0.00000000000000 13.17491875879237

PRIMCOORD
 96 1
Ni 6.553635176161531 1.909281633274701 11.253264646655298 -0.28483992083337395 0.0788667897002319 1.3338710936839415
Ni 4.597067537004793 0.3491882048299823 5.90516967231035 -0.2618339468565039 -0.4243644334249788 0.013444298430363943
Ni 2.7154841790202173 1.6299134260504393 4.78804250924728 -0.014178862603543322 -0.6194831383421202 0.06765060926943832
Ni 3.2912158303058403 4.312361313125657 4.7210085422565395 1.106573232931094 0.46741318498533696 0.32747652455697795
Ni 4.947720320771954 4.557838065534408 2.6121381962047 0.031027815840082042 0.23768820284823583 0.589748587392165
Ni 7.135749042975493 5.951672529037289 2.6511885335579968 0.639849360703298 0.5065345764668309 -0.20780452791492598
Ni 5.0043861130863325 4.501235285221016 11.44077035815784 0.536952783747372 -0.7340085577862262 -0.3822644189311352
Ni 5.571116049945526 7.744823044496615 12.461813221433195 -0.134180217560556 0.6779883336668646 -0.28352300179416334
Ni 1.804771728783846 6.653788250869993 0.29500238484008556 0.5422076043884082 -0.6504703307522539 -0.3652791972270483
Ni 2.771321813607363 1.6382130067516079 0.36690447899263956 -0.5201696507517622 -0.04214166636505646 0.6425683022963579
Ni 0.5518798085699114 9.006035249354898 4.583567665879475 0.18101826096001727 -0.35369663459577155 0.30267797745605934
Ni 8.510040784458594 2.4018014364024034 1.4814409486437845 0.1397955068648044 0.625321085180136 -0.0428075820838295
Ni 6.713163559226727 0.7623984030036215 4.728162204711223 0.6889060090206329 0.19766821081187247 -0.4650344003405152
Ni 0.6808590733861314 7.251412071640695 2.2610929376885447 -0.19494335568154167 -0.49784861865705865 1.5476148699014378
Ni 7.472665210527923 3.817384041959539 3.858604692661048 0.7131831364004428 -0.7534165299991928 0.6006145835723914
Ni 7.398770136801358 3.937457910693692 12.718606029047411 1.524907143891277 -0.5227592658558093 -0.771865994953632
Ni 8.009770505209735 8.887689709790621 6.776717463420209 -0.3197215632019074 0.4614631380494891 0.5054930225761939
Ni 6.8047199966579495 0.7882999360942318 0.5352248365381301 -0.6167318008492282 -0.9590189080564774 -0.06446655511450188
Ni 1.9483040653132757 6.494898989529074 8.972712702891139 0.3875776036139325 0.31723530644494397 0.37427754407091673
Ni 0.19885867373715507 4.911587439064264 1.3930108066328621 -1.20866556881817 0.2085653173403505 -0.13798030803293657
Ni 6.4051879035552695 1.8912151924208553 7.008767258590497 0.38047004603487383 -0.23168750518011066 0.2713732538055068
Ni 3.549934104635871 4.243129127471982 0.6044030119052464 -0.8517799949714556 0.3494134338393853 -0.31835733586452913
Ni 5.854976112668576 5.653490738661788 4.781639589775759 -0.16990003955966868 0.07063360315716222 0.1917680432773536
Ni 5.212253702621459 2.698308907894588 9.391359036406898 0.2219021436585727 0.8913610996981874 -0.5928827621457724
P 0.19167620579630643 5.527214688687826 12.348206184342988 0.5461614468298335 -0.7803886877126625 -0.06694741255482663
P 3.958152852160055 6.0078162219149345 12.654351791471553 -0.9165519971415182 1.239467127580059 -0.37448863164045826
P 2.2971475044807255 8.543743203271148 1.5104120663538076 0.5944205389465375 0.189801406469286 -0.7476292338934544
P 6.420958907230376 7.810058468944955 5.713027177706756 -1.4611754100602707 -0.7661213791603708 0.7583432778768489
P 4.8031257819402065 1.0909447764823565 12.744046674359389 0.023372099067037168 -0.9105772676153221 -1.1118067134158915
P 4.067307641294947 6.329456480085712 8.068979281849579 -0.5802619880579684 -0.411776055237007 0.6209684646383951
P 4.639870689102468 0.953650628050443 3.7398981843482706 0.20628757704976733 1.040366555197034 1.0046917275032439
P 0.05926998829794445 5.398409156960036 3.736314601835109 0.8678087662995442 0.9140726823630904 -1.5214911762311927
Ni 1.3837885502029843 1.2728964301837906 2.6278560897646894 0.4461617318057284 -0.3241970824747578 -0.6645280943969007
Ni 1.6852379629152792 6.4246586118596385 4.8746939124875395 0.30974465449485367 0.6666055457512198 -1.352981332150831
Ni 5.772106329658859 5.378002270355319 9.096846344831611 0.7263710958456265 0.9748666737220112 1.3965481609981882
Ni 8.785709287053592 2.2358368275223093 10.21193281923421 -0.6285663315903111 1.1379152375774855 -0.49189445795615283
Ni 2.392979756264502 5.293026086169817 6.819087633053974 -0.661319357651616 -1.0618877170982617 1.283919187245847
Ni 0.6409022633900929 -0.06721940230792496 9.012026790477131 0.14889258407006614 0.0271117686151275 0.3301563853819862
Ni 1.4165997992873225 1.1048884321288972 11.351997250827269 0.5860765378572165 -0.8946505690827367 0.5678098783375446
Ni 4.1694861017493565 6.960998760815204 1.6044016671944934 -0.6204786694861701 -0.4365450346515708 -0.6651675277531124
Ni 5.777597375458982 8.00193901365874 7.851605881880142 -0.38914211988757497 -0.27382942865548326 0.2476982787860702
Ni 5.25128513637446 2.8274835099138618 4.823008768765305 -0.2186934069132879 0.5813392802825471 0.4960881843225263
Ni 0.799863538446424 7.511336575703868 6.8526442240928205 -0.2589633101769282 -1.0854179390097178 1.0477178533557827
Ni 5.048431501774856 4.714161838263797 6.957687930249162 -0.9136836744547878 -1.2002925142631264 -0.8390561196468839
Ni 8.021454730535241 7.08600556905504 9.102907199154926 -0.12949669604195763 0.4019415856450885 -0.19581727364606277
Ni 4.851645022698665 0.3211073566767332 10.139219670611837 -1.0538543052708238 -0.5684500830247049 0.708161000595503
Ni 8.082144289198233 7.066255807603452 4.706858747349633 0.729467475382763 0.30963923926524095 0.02129027683734398
Ni 7.121922409616497 5.855498212105309 7.068791590557377 0.8566260102098473 1.178255331957429 -0.7697916289231065
Ni 2.293546818710154 5.403153060462764 2.6415584994646015 -0.15862035288079135 -0.22848159664830328 -0.6514141827227621
Ni 2.2827267579695842 5.092512897321084 11.434947149095382 0.8439887810618109 0.06716389944100691 0.7489677501992198
Ni 1.304042362099239 3.4508972425162856 3.7808856906461354 -1.9814324783195165 -0.05181672756097527 -0.540082073404973
Ni 3.4571534340426546 2.7084268349098957 2.694613704122539 0.3035346690293998 -0.06164631205688738 -0.36555507659625436
Ni 1.1644527764885857 3.3502040649422375 8.25147823978814 -0.133838260840105 0.6063550856005945 -1.0032056298760206
Ni 3.6366206145623945 2.7062394183042735 6.890745780745571 -0.08569743946882015 0.47250371213436687 0.12805996359543106
Ni 3.9114069491436028 6.924892884250792 5.96773788877414 1.01880399853491 0.3661669991486403 -0.8248057803754569
Ni 0.7310175263416431 7.1561019192936515 10.91574986509351 -0.1848476620084365 0.6572919816597776 1.0565773606289415
P 0.2064939279136532 5.611263696287405 8.001655459654307 0.00546462265899704 -0.5071917504348555 -0.3602673458347537
P 8.564240107020131 1.7358095945629641 8.020903825612343 -0.10833394592141342 -1.1072720587703317 -0.014011998008375869
P 1.9410126766278675 3.199623386016913 10.293353326221272 -0.5873548903490077 0.03507473221594604 0.8356825751889607
P 3.9293293625666252 6.282440525636468 3.732480771660892 0.6434586753211111 -0.983701755515138 0.6447354851510058
P 7.0340296699568325 3.884257778433489 10.348068447019445 -0.9073788152826824 0.22709885736816374 0.8034185729489325
P 6.208941527344665 7.586383868877016 10.262353222079533 0.14786260014365504 0.16887828316337367 -0.5644417331962601
P 2.343263287487328 8.455616419036396 5.784158725104407 0.576130482388098 0.8419637802119821 -0.36131404193171324
P 6.907852638841559 4.047980960421402 1.7114482548107162 -0.23784272614822907 -0.7048584185848311 -0.6658378143472597
Ni 5.3923059945789165 2.9649396892054507 0.3983591697129147 0.11762822673914582 -0.38854073885815016 -0.12599639619818298
Ni 1.5805030155637638 1.1054825452810415 7.016289991336666 -0.3380283319308952 0.37187613371827566 -0.17281438499298624
Ni 7.134227753237427 0.533288567765005 9.280821583936108 0.006777427933149618 0.1657813894056048 -0.7184600685286658
Ni 2.8304000653880252 1.608507349144388 9.079429827759354 -0.48055435035298527 -0.46704474590232475 0.7079856513599032
Ni 6.10011980164355 2.12871642584779 2.601057985917207 0.8194128914946597 -0.24641966918396271 -0.09475209347192069
Ni 4.042264871760619 6.712011339780144 10.561554906699548 0.20247797349568997 1.0261157017049747 -0.7944731908301866
Ni 8.138999117515567 7.109824105427374 0.17891177473962838 -0.36628295590121435 -0.1614701636247606 0.621530250679136
Ni 7.558100482149172 3.788380518077581 8.264560431364071 0.9083200961500293 -0.42504680420398416 -0.03992306144718286
Ni 3.1541647281634404 8.365518259342256 12.40923240712553 0.2890436745020764 0.4437646923284615 0.2772212279458516
Ni 0.33367555035891505 4.821453272512417 10.185331852932668 -1.4098489918721526 -0.5252753474094438 -0.7567286250915612
Ni 8.768056925063362 2.0982546242287503 5.710009803031016 -0.6262829348727731 1.0328697325993568 0.20906822511869802
Ni 3.644227063252728 2.4197958635408376 11.359850346492886 0.6412657814348505 0.28700761790865414 0.16097625470747762
Ni 0.9230177938573011 3.158440542515995 12.512338944337305 0.06091560453844993 1.2505948620621041 -0.05377873638335254
Ni 3.2390148883469716 8.423246253958952 8.063050752728332 -0.24989837176118254 -0.6008531819457588 -0.19693930306564794
Ni 5.700434679395622 7.843094760889953 3.4401428942910295 -0.5434214221908511 0.1437650330355137 0.6616901107274733
Ni 3.0509240654067122 8.32944838963555 3.5920891332948437 -0.10794288113058184 -0.13747302937921485 0.49010214194242047
Ni 3.416501691692896 4.4995969731954055 9.232377057407389 0.2665822601747667 -0.640145294677162 -0.29522794893591736
Ni 7.266777998166612 5.97993791233628 11.301340102892533 -0.39604913142005344 -0.5663782880973407 -0.15722887184990342
Ni 0.4505700135576526 9.006125266499163 0.4844380639156536 0.4172705026926749 0.4445596774259311 -0.2602524613019969
Ni 4.463896173780183 0.35563883338796215 1.7481275405840913 -0.027350366988494832 0.02036802213339073 -1.5763420626328013
Ni 5.869846944901039 5.548836806740111 0.39967702070494404 0.2831633044618994 0.3086051415737718 0.24550667045139007
Ni 7.8386299105344435 8.670559356110697 11.485736622232187 0.3203080318329967 0.036799171106220496 -0.12372122701076112
Ni 0.05233596767526525 4.767632021956792 5.813788768310444 -0.660795881047978 -0.3780269838110199 0.8749399780276866
Ni 7.930888481690927 8.707907469265956 2.5652356633572277 -0.6479884448706648 0.8463549673011423 0.2847882416598321
P 8.44925220693691 1.7012430111654722 3.587635985168089 -0.6572912103288293 -0.6560642799002636 -0.436793403216951
P 1.7370428294393851 3.4865350299305233 1.4129045955152728 0.5761387099182143 -1.9012713952878932 0.7124197758718569
P 4.662861067747571 1.0886943478757491 8.005436179713408 0.4097937346996556 0.09212108360697684 0.5181783313533463
P 8.452240776126485 1.5697009582520476 12.553971873559545 -0.2939318558323131 0.322519951882651 -1.2777979048394574
P 6.35682169194206 7.544309855647881 1.3256995868377877 0.14224551106719374 1.04873215355291 0.7366323685623185
P 1.6652091483164722 3.29923635785979 5.930097219900022 1.5544064389019747 -0.702866584965783 0.8945888626068659
P 6.925649028262612 3.763310743399973 6.093887914746133 -0.584735964668922 1.200241863530849 -1.0437398425446414
P 2.4235315750278064 8.495385993372366 10.324130187845237 0.49412668972078133 -0.2912339972851759 -0.9552707538679548
