# total energy = -340890.28321745683 ev
CRYSTAL
PRIMVEC
9.06112556493987 0.00000000000000 0.00000000000000

0.00000000000000 9.06112556493987 0.00000000000000

0.00000000000000 0.00000000000000 13.26187317689695

PRIMCOORD
 96 1
Ni 6.461017544435428 1.7672004026500123 11.358078453578651 -1.4169745471733401 0.7067003568895764 -0.19547917358035366
Ni 4.880349475050144 0.3484030007640517 6.10657530340513 -1.4325688020671716 -1.3470937630218025 -0.4024090121998102
Ni 2.685101495239646 1.6074436957720166 4.703456367284639 -0.1056823672311793 -0.007049707757929794 1.7020461244015461
Ni 3.668188325976878 4.3321966769907965 4.720126120199588 -0.9309352624463839 0.3625317163888982 0.3969837274191808
Ni 5.012415381847647 4.771625028006353 2.4177720103918885 0.19529739658685077 -0.5050783036362786 0.025171614169621163
Ni 7.760319539180844 6.296458440946615 2.322326643033295 -1.654636781879647 -0.7425988705583985 0.40759338461422706
Ni 5.108327397178802 4.49858612786713 11.80335938567143 -0.06145862152611351 0.08902264718731119 -0.7591215508037701
Ni 5.656715784505849 7.855860048359086 12.415858861640332 -1.3068919939919363 1.1706186413477773 -0.22475915349139355
Ni 1.8830468944789032 6.639648576106508 0.1464241665512823 -1.6403175370434975 -0.21851908611895265 0.6907785434529975
Ni 2.772233279786116 1.4608165600054848 0.38556901996894505 -0.2808539396024324 1.2726695824739567 0.27218212286004734
Ni 0.2850276755274754 0.16633961468508904 5.172276291670972 1.45328032358291 0.5936075561269389 -0.6515969881575294
Ni 8.413101155476264 2.3307661754923816 1.340046252481653 0.42675478803402633 0.11741816761086875 0.42787038969570834
Ni 6.882840128253211 0.6411371636830383 4.61168347416447 -0.21932127030527387 0.08064676441879014 0.050527319325590396
Ni 0.9023748537356014 7.2374472817708995 2.501215916786277 -0.057001357085708276 1.2161024847121895 -0.1565436728574207
Ni 7.7242743812226635 3.9670876788090736 3.606632474777004 0.07046622434136252 -0.7785194957144075 0.1954614329685408
Ni 7.447928170209953 3.703481410503552 12.629242028634943 0.8176504002775983 0.5099536294507089 -0.15081602634502414
Ni 7.84212338182701 8.809679443147369 7.11779330493094 0.07798361576433022 -0.11374328986244281 -0.5247238457813479
Ni 6.75481548350934 0.7132564752015763 0.23082311559242588 0.1694560100437146 -0.01342295827412527 1.539721068975658
Ni 1.7998295162265345 6.408843582765443 9.180518697209623 0.9872321372659 0.39119823108565527 0.2413790214362617
Ni 0.23187239394626127 4.777242925928443 1.3160523916789229 -0.6515972452678456 -0.5449273173124163 0.0697889957686798
Ni 6.362604658416376 1.9357735848154158 6.829174705296168 2.0289837457359186 -0.5920394403088707 1.5285169727297225
Ni 3.1253906531948776 4.3647714238132345 0.5568714131894024 1.886056892330984 -0.13723031724078946 -1.6383974372026495
Ni 6.59065506955048 5.72584311232459 4.836538932383528 -1.0964983651935956 -0.5915838408286909 -0.7664363392976284
Ni 5.727510359449856 2.898826266672423 8.863015947242198 -0.7649684965028503 0.8858838786337 1.3235337163136753
P 0.11962498123777995 5.5069897437564865 12.563542524661246 0.14526630017138853 -0.43934779420768855 -0.9687968133788476
P 3.8684935702764056 6.035597693722371 12.57892650384209 0.6271013170090103 2.1136087780761663 0.46909520067345023
P 2.352222921104491 8.746758986419968 1.612246092382835 2.2118030644604163 -2.121485609721082 -0.3772849634386728
P 6.442714070560234 7.7507328682105685 5.758637138388503 0.19865628575675462 -0.578415678877849 0.5458302887426599
P 4.697930892844494 1.0109226088286165 12.582135954558224 0.3960277912638147 0.08793764165324854 -0.22326174301026067
P 3.9233224417708614 6.036413195033643 8.419751115613396 -0.8907499484767498 -0.05335141903794682 -1.5408711234197012
P 4.806691584391007 1.098018148872363 3.8065553395728027 0.03735452938905825 -1.9860195834695666 -0.6418417085429785
P 9.296080669692136 5.452668295300156 3.8204406085660443 0.4659664252364814 1.941348465814437 -0.2823719189088556
Ni 1.2384384135475544 1.035161120024728 2.767859474419999 0.8219366863577778 1.4177430499082486 0.39131110251443574
Ni 1.7884396812457823 6.863150302148855 4.9081526330890775 -0.13307490031151922 -0.7920170159802102 -1.1343444895070915
Ni 5.830562541817472 5.528636773007893 9.348294500315117 0.7772933366167903 0.44797667352728016 -0.23218861318624526
Ni 8.491479892615091 2.5146164155555963 10.474798109990177 1.1193680707029172 0.12820008871772115 -1.048304064876556
Ni 2.325827861996352 5.506292037079066 6.878310471525384 0.13246940551703637 -1.0022229542477772 0.3785478893114964
Ni 0.5708799134919026 9.102806858920902 9.573587610904559 -1.4280215490161212 -0.2579513239726461 -2.0025450919284156
Ni 1.4549177671872908 1.0130791567406445 11.435779418516557 0.42073969218819796 1.2633213084898371 0.8767708605888385
Ni 3.890267455287342 6.918468474430075 1.4000290922633416 0.9160889414621707 0.9153026981154493 0.8522957582656097
Ni 5.58899293116763 7.581625079629998 7.991007644000626 0.15787396163307005 0.6295587774105673 -0.21792027619268922
Ni 5.24320225293735 2.6651670187419096 5.017258553524029 -0.3482240415169745 1.5661391539578706 -0.23006513908533927
Ni 0.9315471478649026 7.680282616042432 6.924700716673321 -0.41842261401924713 -1.237875357612907 1.433963625532169
Ni 5.215701736496155 4.713651945900663 7.149250814956937 -1.650823578781144 -1.0176894253144924 -0.7773619850711967
Ni 8.07563765174663 7.154673898676889 9.181951261179755 0.5754630240074283 -0.18208552588226706 -0.688712404952588
Ni 4.570458976767151 0.39970709436868057 10.310390327300231 0.15279217623478847 -0.9339971892011592 0.7325715682293835
Ni 8.2537068936255 7.469339610193658 4.396642121170274 -0.3504321049118868 -1.0470853619781064 0.4509259859635911
Ni 7.214105822017186 5.903468359045102 7.068379362143324 1.0178627176675632 1.090826511619799 0.9056219804925757
Ni 2.246398034278553 5.360172324350659 2.373278258848941 0.3014443621592744 -0.20966009306642602 2.3018770357303775
Ni 2.266531855541267 5.173041956790999 11.459253170705209 -0.8029547459386365 -0.7946822215171991 -0.5371589862209071
Ni 1.1243769634777792 3.42516893521811 3.64977340025581 0.02046263872972605 0.021278706873118194 0.9442525483805803
Ni 3.648933433905201 2.59548696225664 2.7998869292513167 -0.4127993542951988 1.3957248937659448 -1.2938161346445847
Ni 1.288338032671661 3.328640763340662 8.290659976376896 0.012536441904113894 0.14560362890614925 -0.6130918901037957
Ni 3.425776030638723 2.449031987878043 7.179142562465293 1.0319459352335068 1.2314853949261628 -1.5963475592204508
Ni 4.197421493614737 6.773871030816039 5.715416475003706 0.4695394872997204 0.5159278447562727 0.3948774797094554
Ni 0.6506685617866607 7.135908307391974 11.216534609319043 0.010631254461601045 0.5591691719434111 0.15989921959321496
P 0.24037535428511392 5.568505726003366 7.9478803102103415 -0.08441780142544816 0.9980575100161779 0.08853825135172494
P 8.576110806473663 1.702404292906688 8.161900474340312 0.03309215456827849 -0.88724733464013 0.48925393500951225
P 1.7326956360575667 3.1617891950546078 10.479718301234845 -0.4398496735447715 -0.6427917311610737 0.24481504370100418
P 3.8856462811901396 6.1691224417544825 3.608038761482663 -0.20449886058046074 0.9407825875541087 0.43309152888533153
P 6.697295457687689 4.038380615665524 10.478630060040583 2.128259952330438 -1.4835671474919094 0.29164665934256223
P 6.301858871852364 7.803405191792996 10.234068465690942 -1.0360663851597833 -0.5339307090915966 -0.16224380856599155
P 2.660718006032642 8.759517051378518 5.918535198827119 -0.7280680239320751 -0.6512930837638654 0.1616822796355667
P 6.941365939025428 4.175711036483566 1.4572283542358921 -0.13912033517465072 0.4453603189503555 0.07929333571468924
Ni 5.094518241641279 2.9240433794420593 0.36416845333605696 0.23509447397913058 -0.41718411362645574 0.20609680119519988
Ni 1.3205050288384628 0.9232924623697035 7.227946691494592 0.2589321998286766 1.0006664083939347 -0.16706385566245424
Ni 7.03253898562553 0.47453658857834263 9.234985123676848 -0.6657730225475953 1.2613253611057307 -0.16693221518059637
Ni 2.8040287698000053 1.4188454258520689 9.05817809660531 -0.7551687368036091 0.5685472707242015 2.435584170309257
Ni 6.117066274718349 2.440505468612421 2.519106203330427 0.6156113140915399 -0.8964639681423915 0.41623769055278637
Ni 4.1568729561932045 6.878798866199579 10.421537719351067 -0.6006914595569138 0.7544884229071329 0.9460160680389064
Ni 8.097955204298414 7.238561800229636 0.08016649723564692 0.7122467406291024 0.8334133195388098 1.2947517590849766
Ni 7.972449552493801 3.7722281710437002 8.293485235364166 -1.5192913403663966 -0.20586360213847127 -1.1592062857457779
Ni 3.1510698833742343 8.431776135504371 12.592533596276931 0.5724430062341819 -0.43554436130119834 -0.8750389654993961
Ni -0.0037223104296682324 4.899450327985248 10.041996160184981 0.28768921735671105 0.1489946568655692 1.572164277106028
Ni 8.659455040485563 2.353509600951163 5.913933053093847 0.14134999583611785 0.1069820598792093 0.7182893472787566
Ni 3.6699371232332703 2.7288757934035393 11.532896563563256 -0.68196608736769 -0.9800014238454156 0.10209490699023707
Ni 1.1932324575260966 3.114934114159247 12.904704779893779 -1.2073170252100756 0.5529275619090736 -1.7170261427501463
Ni 3.219037387105835 8.35807293921683 8.097116144060372 0.20842802043153785 -0.7213345618629835 -0.10424383501243983
Ni 5.591430373975763 7.6762413539888 3.645742105440427 -0.045364544177728325 0.41984957627376085 -0.8366009732381721
Ni 3.123768711698016 8.5452939180333 3.7610005302126344 0.8838586206735551 -0.7585134849061259 -1.002650528703499
Ni 3.4334054984619473 4.022188384073953 9.498325900999921 1.0165859078376687 0.7573474896224828 -1.2532526113999254
Ni 7.180788062888924 6.2707339051388535 11.455301613795815 0.41044036714471893 -2.401731226315554 -1.0333245607485881
Ni 0.6654463516594598 9.125822118150106 13.772986242142842 -1.510811070809527 -0.08456512563658984 -1.4532746671559553
Ni 4.5319038869953925 0.5206894322334427 1.6749617676698498 0.8158814813026336 -1.2992241930340334 0.09331818923887154
Ni 5.989730275526216 5.886406259388177 0.26575556731700467 0.24800269740036643 -0.8312674768404006 1.9625474684895556
Ni 7.840773274100572 -0.36729816614620153 11.49419830800574 1.0213501619955312 0.8731869998923221 -0.17179468547922025
Ni 9.08133199105743 4.6635711042629415 6.007005311636641 0.5218226129741529 0.42988124947815 -1.2130948082341173
Ni 8.218531603732677 9.046709429831136 2.4683793034316643 -1.4697382120286173 -0.31168275205783097 -0.20400957964886798
P 8.598754559549956 1.8143998063212436 3.842999187060937 -1.053796712560011 -0.7423096214527538 -1.2581011977414784
P 1.8253184627665948 3.1588986959624363 1.6560231088844322 -0.28094084288928395 -1.1455262171555238 0.4098132750836813
P 4.945607702203188 1.0326693104625109 8.245251051140187 -0.8682589664630852 -1.136199026217327 0.021932538407033197
P 8.568028282366399 1.5871830187497717 12.419439818509382 -0.5107213608546688 -0.35587821562812255 0.9652270937497184
P 6.444055117160991 7.939974478053853 1.5310303167933528 -0.41514008661323337 -0.021773130011033467 -0.432272632528462
P 1.889063481930947 3.3022638264838844 5.837239685331646 0.30631814531180795 0.770708484310421 1.0350358870127399
P 6.870190796802829 3.8097593536135297 6.005811961384482 0.707777134893523 1.604243674139076 -0.4490747916874653
P 2.380692977993531 8.379212545430113 10.368305418201563 1.0132401312938875 -0.1446842024156734 -0.1410517478694087
