# total energy = -381165.06341640814 ev
CRYSTAL
PRIMVEC
9.30130365442150 0.00000000000000 0.00000000000000
0.00000000000000 9.30130365442150 0.00000000000000
0.00000000000000 0.00000000000000 13.61339808842763
PRIMCOORD
 96 1
Ni 5.982654456699707 0.41385221437050757 7.108426608982646 -0.6307589683662557 0.24478521890433327 -1.187027164612788
Ni 2.238405282719794 7.778326976534126 9.379631079537535 -1.1872423659473876 3.423159549847188 -1.5172478275738064
Ni 8.16386602192581 8.968763653578756 8.40887352741366 0.929206195570419 -0.21405256570716685 0.03320425466611056
Ni 7.518095096872643 1.2665957531282757 4.405650010055424 2.2049572451831767 -0.5334414281600038 0.528183265084858
Ni 7.553570269830999 2.939704991874006 8.119234645438295 -2.8974990511841843 0.3248905089973566 0.5157141860835699
Ni 8.033294318205462 3.555107159793184 5.5780895942429165 -0.4829735013174392 0.5136038246087864 0.0014431602044297728
Ni 3.4648473070433434 9.044811114015967 2.0947345527599976 0.16690701836961577 -0.46349919464291145 -1.0591137538975501
Ni 4.026934401182422 5.304142942025822 2.5524442751360747 -1.0538116249583465 -0.40145976091266344 0.7640179596641229
Ni 0.9063767171302053 5.803334619399193 10.809541916398038 -2.9307894378061974 -1.1341997363991112 1.5868920702345057
Ni 5.490299237670434 6.74170596157978 4.05925643212901 0.9377216892405981 0.7725668776753984 -2.10630247422274
Ni 3.465144948767168 3.3256625959398174 4.845675163384379 0.2071535245944884 0.07622086743695261 -1.1080909551272011
Ni 0.7842338549764176 2.2758709347062283 4.824234727834743 0.968895800850557 0.5727865056165297 -0.02352276571228852
Ni 2.8230480387424626 5.993183532680004 10.083620725770814 4.6512055800745 -3.131671270459361 1.012632065396243
Ni 2.638231130855062 3.392483162938463 7.036139665699882 -0.10438910234105248 -0.42652236030824603 0.6937481676042827
Ni 8.15586690059802 5.952574039985672 3.778548662129161 -0.20582297870852295 0.16823910691747798 0.029331144863949485
Ni 2.601407268835625 4.1571154501402505 11.6031896210208 0.6855661460141225 -0.2655458484904523 0.4944460207334129
Ni 6.503220530365239 1.1288248402129173 9.117070153387123 -0.4427807311486374 0.5839785176776072 1.6167009260658223
Ni 4.001188392071585 5.187634809756191 5.869063213323557 -0.0711460240172065 0.547725963103476 1.235600702646117
Ni 4.882617151962959 8.5395456852158 13.33312610588776 -0.7360883231333903 0.4249416460846875 0.36221701336195683
Ni 0.26320271611740914 2.963227989360027 7.650580078798952 4.194819599437601 2.5438407260255156 0.5325274009861668
Ni 8.835755008244593 1.4008972797003025 6.502467124751807 -1.3196328385973723 -3.268559888090016 -0.6317030774470798
Ni 3.5881918976570732 1.6179990133188134 8.530876870009406 0.2908357334054927 -0.6286984862928011 0.07725573645937017
Ni 0.713780198686337 8.163633489329072 2.14023002037699 0.4155992856378391 -1.0399698339792478 0.5886157593393023
Ni 6.021366483404656 4.961287580091375 8.903625692450108 -1.3191594985053798 -0.5171383201246061 -0.5465237152652588
P 4.712970670686749 8.772329417158323 9.346115691304488 -0.6337280782969086 1.222811521301249 -0.5021025088374061
Ni 7.139541330686971 2.532261375869599 1.3612700046945914 -0.7417846021872193 -0.4978049099033169 -1.0317093937426685
P 3.7124759199616255 4.461054156684617 8.688874398319426 -0.12707497397434245 -0.17359162947864296 0.18785328160397968
Ni 4.404483626550186 2.191880160764445 12.283559536207813 0.7391217106430755 0.09836423630321124 1.9888675944413232
P 7.041114933139689 8.412741009562607 3.3387272073549483 1.266784327337773 -0.9104885645562577 1.584237149110162
P 2.514049422893075 7.310201654084959 2.9973302898672425 0.5649004180002336 -0.2039131632803198 1.4989688267589605
P 6.186938993586016 0.9094247544082477 13.307927013444452 -0.4963872036201838 0.6384247124416295 0.11656173314784442
Ni 8.175818197398145 0.4195632149463941 11.042385176685327 1.2319134836025172 -0.35224473264059336 -1.3978542814041217
Ni 3.3441349854246885 0.983073408577509 10.823440854770265 -0.33269869218786574 -1.444702609216228 -0.9792529757151649
Ni 7.1169298609801634 7.907540689889524 12.698877636068158 1.0930389458900853 1.4816246790535579 -0.13324922110585438
Ni 2.0400921829177174 2.8788279580479856 9.628117272672586 -0.7378698405138453 -0.1940072170205175 0.6910050576415068
Ni 1.3204130973173296 5.612118414449562 2.1987817282356303 -0.3356251218060413 2.3037809376213096 -1.0463657102032624
Ni 6.414681418831259 7.266457621986597 9.291498434982653 3.621623517087479 1.9938856164812047 -0.9991144905257824
Ni 1.2706139163999093 4.491878677708214 5.473212742462122 -0.33087398027430115 0.9770811648748269 -0.08017599542995871
Ni 1.2873655646689182 -0.09445939144692969 10.935302985757069 -0.8206735033746383 0.5558599050645201 1.0012734458503143
Ni 1.9462606294819802 7.17109135341239 6.870709465467726 -0.29250155114368975 -0.32429658416709956 0.031702216199287335
Ni 4.685066759078183 7.317112522860014 5.947258344824241 0.508598400974395 0.733930139139807 2.9252019164160914
Ni 1.1430186299178078 0.15817704347470254 4.005838113875959 0.3005370198536566 0.6079288578456176 -0.6108784273922446
Ni 7.0296371241647 3.9385162065987465 13.083156354785519 1.1635190541885188 0.20644390012197353 0.1268147783344203
Ni 5.826959931227779 4.568465613769856 4.464241713520703 0.5122367690579307 -1.2748624763602172 0.7955787651895395
Ni 1.8341148087271548 1.7094773368755614 1.9974261719378332 -0.399645333411744 -0.6033101281266836 -0.5266537158142091
Ni 8.715861201366456 7.552165772946701 10.364955403651468 0.473861511713842 0.3955842759684929 -0.4699727181823971
Ni 3.522403775387945 1.291848793134028 3.62403633237905 -0.10491232183437417 0.7003564169494196 -0.267246633231643
Ni 1.4097149157686093 4.9375785565279635 8.526833593217324 0.1816561516543323 0.31090293646901296 -0.9164668936268796
Ni 5.2208311632665145 7.007825566590671 1.5405470559973045 0.7193494131121547 1.1015891494529415 1.0498894070858047
Ni 8.321151070359425 5.26489143969644 8.679630762533895 -0.23985307171003853 -0.011265545611490277 0.08183050031424617
Ni 8.563645363541731 0.6474265571419416 1.9173791508367277 -0.02941779104048482 -0.4905790815788389 1.4549145167522233
Ni 7.448651562182793 4.009540962946415 10.531977987106087 0.9947610986530931 -1.7042570160099357 -0.9043904220783199
Ni 4.829739239464727 2.9041647097885632 10.052487401458748 -0.2977836254782355 -1.0240696178092235 -2.1352289274491034
Ni 5.7344584642453835 0.09338230045883907 11.103101297954405 -0.3898807978258125 -0.6457325589569525 0.7428222994231143
Ni 1.946111808620068 3.877276421921814 3.15430653501239 0.07519319750338664 -2.621150712761589 1.2562659443049526
Ni 1.6580876329964527 5.616099372505717 13.290829356671495 -1.4780819560076224 0.1560219960259958 -0.8107364467665843
P 6.616101154125756 5.403378553009751 6.769915886085653 -0.08808676563660313 0.09978837034424749 -0.4156280819932455
Ni 0.30231376875836175 8.312631076014943 13.597075716705893 0.38586062092282575 0.5434713015921802 -1.5189141595326359
P 3.956114273519882 5.658820261178431 13.35289230674088 -0.6136675601016077 -1.6088693458365453 -1.0084437383465084
Ni 9.217489820353642 3.5060241792737172 12.245224212309578 0.2775809252781155 0.4470338499980365 -1.886456441762248
P 8.88096864635434 6.548248142397594 12.550450219309486 0.5369119032071076 -0.2556280751561082 -0.6082255631504299
P 9.106283431289638 2.0116394943808498 9.640110373881948 -0.3357197384023766 -0.19306927858728037 0.23973711495746453
P 6.0511585596987345 2.2915436317263724 5.694988381275067 0.3352140024105517 -0.2744056128739274 -0.45845237624762336
Ni 3.386772162362577 9.03309147114037 7.425536891936644 0.5664255963955084 -2.083721760708747 0.28950801573300466
Ni 3.091651091886516 7.654052255533444 12.173114923930722 -1.0300142654284328 -0.032311053427879835 -1.2158062936280092
Ni 6.019627139581056 0.0820840066485308 1.825080452278688 -0.5324163293295991 1.0123549004754566 -0.61174874581234
Ni 3.1360834204712225 8.501689378466844 4.878401801049291 -0.3283815528697506 -0.9000681405538822 -1.0602380973099805
Ni 6.008763216661453 5.99833645502372 13.285369491300086 -0.04539385475376698 -0.4920278982102235 -0.05097109173122835
Ni 5.146746277945772 6.69929201593476 10.942871456715698 -2.8275604172115174 0.5179060515285661 1.7419614725392452
Ni 5.926000214830448 2.2684205903067407 3.342742580235421 -1.5423867887332794 1.0525857229710454 -0.44420229408651235
Ni 3.0412938327369248 7.118101825267723 0.9004675987818982 -1.7594884256794148 0.4018474832693853 -0.05543761214301421
Ni 5.031149673455355 3.0137805758908787 7.487301270151817 1.1141358757697006 0.5667572687033142 -0.619206744752282
Ni 2.681603110798643 3.7997314515616103 0.7978295708424977 -0.49415702873808454 0.05146320087629847 0.10942229388958574
Ni 1.8837558674787933 2.216351891245157 12.774867428421377 -0.02861226442005395 -0.408387084160116 -0.3686913082323908
Ni 7.190019506786866 6.022808185504432 11.200764058453997 1.3447211490245679 -0.47941638009380005 0.7235706502823539
Ni 0.9901144956067371 7.019266170350184 4.648458687308518 0.8087433275959557 -0.7474274022952934 -0.8128856318991033
Ni 6.365821669604661 4.8481837250379884 2.061626561636434 1.5902049366578228 0.3851695083930721 0.30827835436197226
Ni 8.667792062968767 6.10920799714842 6.313131643444593 1.3100014861551954 -0.7522608191281948 -0.11399242975877143
Ni 9.57587835975019 3.039228943277891 0.7627069173007962 -0.23760952709150046 0.9413196910045014 0.3947808062305911
Ni 8.275063109685943 1.0726356635371355 13.337740482737429 0.8906473614606145 0.4558640466951568 -0.8317636997505287
Ni 1.1961197737089082 0.6723094052536867 8.318753194221863 0.12157487009171965 0.13634791463583615 0.4788378818825108
Ni 4.964170984290927 3.5994278727314564 0.6939637707923206 0.4942213063171166 0.08921882235851732 -0.9232214387418939
Ni 8.627917373280127 8.562929163143778 5.090893808470067 -1.3841148203308422 -0.6843988651788988 0.18755349097537377
Ni 8.828983659027582 2.83049838314195 2.867035765002206 0.1482616353542866 1.072395815718437 1.9031997226588577
Ni 4.461221580154269 6.825631626394476 8.531162420038198 -2.329584528947975 -0.8977934855870925 -1.7915228284071403
Ni 3.91665814250537 1.2641960167299393 5.785449142188489 -0.06750688460272244 1.1763789408703222 2.5248405307739294
Ni 7.587975792844361 7.205589889464446 1.5352508935739986 0.9509052778104075 -0.19650452952107447 0.05706666310600494
Ni 7.08508219653092 7.688978651563499 6.776817453556838 -1.1145058575146096 -0.38154219605313 -0.10838922463938108
P 0.37170986679847773 6.8955774314932805 8.443356251249138 0.02317618100614718 1.1461643649601552 -0.3636853703773672
Ni 6.8917359929951685 2.1307705943416866 11.5673182125176 -1.4092972331337406 0.6667412999981356 0.6104680793277034
P 4.064539572726899 3.048474439324196 2.564110900579616 -1.209631275165549 0.6502998666126607 -0.26340746199121085
Ni 5.172613204006913 4.278088208267252 11.564119494116872 0.2646001967477314 2.8228025908115577 2.2201041281269442
P 1.6883819796994854 0.286026255552442 6.146136033771197 -1.057577776868998 0.40998553899548745 0.06951954415737706
P 8.647440810102253 5.062829914434945 1.8215273542005308 -1.408272134303336 -1.0497973615926308 0.06392250968557378
P 2.4178832421860883 9.56908840792544 13.22493985019019 0.24744425379373516 -1.638268882044585 0.07210658815826292
Ni 5.481072344231868 0.01600847408983415 4.692878924198195 0.5042792047737509 -0.7502934109891788 -1.078973983156587
