# total energy = -381164.16433650267 ev
CRYSTAL
PRIMVEC
9.31399801580170 0.00000000000000 0.00000000000000

0.00000000000000 9.31399801580170 0.00000000000000

0.00000000000000 0.00000000000000 13.63197756948126

PRIMCOORD
 96 1
Ni 1.2044209939418296 5.650681366541544 11.868913050143586 1.0239132947370173 -1.2976105686900103 0.25902758775596035
Ni 8.504751075941272 2.233850597735885 3.4746548611760244 -0.7521240364400144 -0.5164549209043363 -0.4517541382918413
Ni 5.169287391675263 8.799362139479925 6.26231204085946 -0.1961111507373977 0.1638515193727436 -0.019752757146895013
Ni 7.619194795737416 6.512077136523805 2.300505291394259 2.1427283211499417 -2.385715824723904 -0.46752605641411743
Ni 4.289636186059106 5.161510203535312 1.502939279546004 -1.2117344375514807 0.04192389392729554 0.17467354968891205
Ni 0.020871737608161946 1.816807033479087 0.9463198702711898 -0.596248850404528 -0.85232892549639 1.346692928038958
Ni 8.201859868382957 4.921814470862704 4.379695093319956 -1.050801634487429 -0.5465445412008652 0.44808208875689287
Ni 0.686593453989267 8.883262631413668 6.219698638251194 1.6403489045020652 -1.4372384396286988 -2.1529384289137248
Ni 1.7436083249858276 5.757401153017656 2.5571403918155236 0.23717989575324958 0.7902822926772906 -1.2575967473012342
Ni 5.112490633259192 8.97478197352523 10.681649371498287 -0.1684944174613937 -0.6108838267088834 -0.6067790605118906
Ni 3.180869949239782 8.680254735966527 13.61676390111474 -0.5270095564917311 -0.8208923042536636 -0.6213567012157492
Ni -0.0364689582778161 0.8438835913706025 12.30179599901212 -0.7385092738700572 -0.7255791960719503 0.20406820080094532
Ni 0.8323882553199116 1.4485222475607809 10.125914792011852 -0.4282951359379527 1.5692242206410976 -0.13809832166803956
Ni 5.167787838033907 1.9964461085152863 10.677109728984021 -0.4903859917314264 0.7945958324509799 0.2398445870696063
Ni 5.525668888440447 5.765746495021722 10.073145406232564 0.10950251230821785 1.7449310966905303 -0.27036538136628274
Ni 4.734258497719969 2.158966055645822 2.5483349383215 -0.9858825652165408 -0.32693145068678536 -2.7571381587342128
Ni 2.3714462868274895 3.4038097999198498 2.293580334050483 -0.6363811996490395 -1.0246314038499644 -0.9227144171984882
Ni 3.882884589340805 5.747481745390054 5.6662264288236734 1.0584367824351835 -0.18545701345766125 0.7896374600044401
Ni 7.120048341116947 2.7282282854968862 5.700497283627203 0.7191691787805484 -0.23942601147494896 1.0463124883678239
Ni 7.312279941141426 8.186985413940441 10.871556197678776 0.011499515999167292 -1.4809461649292948 1.046866818209397
Ni 3.24189526264452 0.6161144328455472 9.51130270700699 -0.43780076143554275 -0.7474793385791513 0.7839802617186626
Ni 2.925517386311776 2.1847751434731313 4.332433074423487 0.22008360239259517 0.07463295412454243 -0.5874883306030786
Ni 3.0026279738694415 0.380476809002372 2.3798158452257643 0.7366192559361959 2.0166583914013465 -2.0590157733216348
Ni 2.992894846197288 7.644938685580318 6.079439145796686 -1.4066585099593127 2.862057679657439 0.9434555064005815
P 1.300466938970776 4.431339348168336 0.6385099404892732 -0.6128594623780155 0.1382369041284329 -0.5263392698975838
Ni 5.9335567928869795 7.704799749263506 2.6532738884235303 -3.480103828442716 1.8012943059716076 0.18223002187993131
P 4.640159178225453 3.83586752858575 9.402451877840555 -0.04221417147420472 -0.34124683886819296 -0.28864463929144485
Ni 0.44611720830333207 3.7676704368962675 10.161480292505745 -1.4568711262579621 0.9619738769197433 0.848277638245152
P 6.571733292256001 1.3737494734439868 3.816367742849462 -0.041539514004683295 -0.3751607180068184 0.11452259123062858
P 8.202344196267122 2.3499682079643445 10.858061146306351 0.26730216905992676 0.8987373375576005 1.6012251990277262
P 5.496860693330427 2.8780159976725574 0.6025541834887161 0.9948001794211448 2.289891067013095 1.1350998796158773
Ni 8.981618447890169 4.653217403102351 6.747392496044056 1.5278865382345752 -2.9287945188633557 -0.40457156706876773
Ni 1.4482614556231537 3.681059571610758 8.15351742574489 -2.0800157726120694 -0.09109058545993344 1.9848823845413297
Ni 2.1615460330287757 1.327552044492903 0.5431616138934793 -0.3951716139111065 1.6583985629149243 -1.2290729288299282
Ni 9.073445151928219 4.183195819516165 2.398532323749394 1.6761893112394424 0.9522944448484502 -0.08979217836348406
Ni 6.877679491083661 3.9274986386705812 10.052601521345991 0.8263222170199833 -0.7234138129895155 -0.20253016688986408
Ni 2.3308651985331603 8.18418190061095 3.6147364562730813 0.4590105627439386 -2.600151484802103 1.4848143896354493
Ni 5.007885124277414 3.9555151439699476 6.768481249800314 0.04669688983590667 -3.516952364729633 -0.6668803966791611
Ni 7.60284872964686 7.134382583688665 4.872314298301529 -0.34556603506883715 0.8176414014165337 -2.1714138620100925
Ni 2.719575581566331 2.872548680980161 10.657070662776711 0.18919514034385482 -1.1835016679580328 0.4437752338514228
Ni 2.4912894961649075 3.5478973454588143 6.417744035685203 1.6156344324745207 0.5006066410181701 -3.7151844184647755
Ni 8.92712224692388 6.743120165265858 6.573966788921822 -0.020277519302113467 1.9905300697454105 1.7334734896728918
Ni 3.3573795210244564 3.5642340975515965 13.625434301641063 -0.37369236099140807 -0.5097291721447286 -0.4895915208545891
Ni 1.0040862158553663 0.7251683071634217 4.00288054824169 -0.3626039643877304 0.27027513564532163 -0.4783887101602341
Ni 6.471533304220567 7.0135427765896 6.825258448821063 -0.08698041994630182 -1.3709147767008003 0.9694089930415498
Ni 2.4748502900966285 4.955996842687396 9.888486086397045 0.6292949822262195 2.0313499319752495 -1.0297394145004912
Ni 3.9468251840483024 7.986268761945309 8.345809566754891 1.49113416120589 -0.055123680447021185 -0.01757914653434392
Ni 6.321047042211966 8.053655535828593 0.22314848423016967 -0.10842059209794877 0.9246183190894206 0.8070106611755651
Ni 6.9867743469917345 4.819481577337391 7.729835775275705 -0.43792545993886517 -0.14188324263176855 0.5028306452526825
Ni 7.784592768179621 6.465823823586088 9.486029174051597 0.4702815076720675 -0.6907232647350298 -0.9969794464606506
Ni 6.007407481224306 5.726748786348701 0.06873823496005889 0.9025934780788971 -0.5661042085003476 -0.9730645875162661
Ni 0.9788173398988563 8.451204902747767 1.360580411993596 -0.23948848928176816 0.23201634927443915 -0.042145265909482255
Ni 6.441681941360038 3.4918736488578532 12.504285104783339 0.38697673680514 -0.43937144835677233 -1.3108998295997487
Ni 8.11545391104844 0.29087335623259186 5.03127629828301 -0.9562351746637532 0.42854710404775875 0.5935139679718682
Ni 5.604688845541453 3.3748339528499263 4.035079038540863 -0.2449569685955072 0.5893125282960109 1.2641975404472032
Ni 0.8774307485472181 3.551231756661332 4.337913430712765 1.3759019455027464 1.262679304030464 0.02786150229695847
P 5.63853591344634 7.232123676312187 12.004033078627288 -0.7507580093304231 -0.9281713265480015 -0.8312055132542138
Ni -0.0018041213685130834 6.315784633470563 0.4628973066900805 0.11631439302372872 -0.5553639392647081 0.13839759807601326
P 3.466958704816694 7.268997793493102 1.5331203579276755 -0.11019336772765538 -0.5826821674636868 0.6255229167782969
Ni 5.873518763246115 1.9929626733484103 8.204528328744749 0.24433244763763076 0.4938868057958332 -0.4835944227308897
P 8.383045067049373 8.71618813937243 0.09799443336293162 0.4308562117969096 0.4812493195374809 0.5847434208680897
P 4.253814550626471 7.657987596459444 4.406823043231836 1.8886249101684767 -0.8889699737581915 -0.13348370571416365
P 6.178067862407916 4.869525687368474 5.350728725280421 1.6186706481976831 1.9861823342996763 0.5873068107198918
Ni 6.793173589294713 0.6980329060533236 12.201110751692745 -0.11717776946528852 1.1468485355113733 0.5639568231400416
Ni 8.511839028246065 2.126525401404567 8.052859189019054 -1.2873935189476924 1.9669224576287996 0.3467847379672866
Ni 1.5825599895033302 7.9680226403091865 8.246432936122535 0.6038940256546116 0.0756289994892246 -0.23588046021553571
Ni 0.38479477836965476 2.1429739214706185 5.9739273848316525 -1.1423380492355295 -0.007495537046096769 0.25873885287094794
Ni 1.1338860888114755 1.0500787368554572 7.915557822257057 1.9494327854844682 -0.04061803063167843 0.6892343388943291
Ni 6.9874542688291195 1.0448535841051432 1.049276801647254 -0.2491589224919967 0.29586995339529043 0.6456122313290041
Ni 8.078114093978906 3.7349969327107027 0.5682367586963235 -0.42769426912916014 0.03142170884439104 -2.469798354297121
Ni 7.368592371673332 0.8325521816807058 9.73954315381933 -1.0252353559825504 -0.0181329621552849 -0.7684456564181734
Ni 1.8317932558948717 9.136184240923079 11.3067844111864 1.0599064250021746 -0.8259028700943776 0.5365660898319147
Ni 3.6660081512105664 6.490254439743082 12.986571360636216 0.5005914715095185 -1.2945512130383963 0.5558629903883137
Ni 3.4522053323452186 2.3647215804358193 8.187174488095222 0.50781241473799 0.7060976903085711 -0.39978931518877603
Ni 6.555685274094163 4.311524080824236 2.0693886820698046 -0.6323929044252529 -0.22145245771566377 0.5029232049664887
Ni 1.8533085907491063 6.0179509267026585 7.190036514578062 -0.06819362625710192 -2.0761724876065792 0.07192172584096646
Ni 0.4739912094367812 3.053622111673309 12.609673920977777 0.6632533414495351 1.5912032960153497 -0.4731955959950689
Ni 3.284506802453231 4.619370335197464 4.015257919881427 -1.9010505375263387 -2.213079102959363 -0.9104607966421159
Ni 3.563610059700846 7.108936741774478 10.755534521627371 -0.4075715302373561 0.19568923270863073 -0.45613015587234984
Ni 4.664804016331212 1.7338193133270394 5.852507315671367 -0.38967356691101274 0.5287951876372441 1.0438396013472993
Ni 4.35146250327227 4.4251455396496935 11.571204150945833 -0.003852540976870784 0.3045633674042303 0.4565759851605169
Ni 4.5376400047446905 1.1678356106918584 0.19388483462907902 0.166655564480442 -1.0426828620350366 -0.8047581176959624
Ni 8.299768612966382 9.114650278073299 7.5301129268428895 -1.7949837903725474 -0.2398571854750966 0.34055161257338123
Ni 4.659522979594263 0.3587789197917986 3.9253554877831527 0.8146895178770615 -0.6301092505973988 0.8658778678254183
Ni 0.20912532918405038 7.684048162226607 12.005041784586037 -2.1073149746476547 0.10038049540229163 1.3133660317520541
Ni 1.016641484852556 6.082226825329963 4.779275843153289 0.5018561971545551 -0.07928947905994732 0.8322013015085795
Ni 4.3110583809356156 5.5632788114453815 7.8878160798919765 -1.064608201353218 1.8542384622688066 2.9278776634760413
Ni 5.109696433927474 5.746857707539305 3.5453639380647224 1.7724534704805153 0.9331340698699155 0.7749243221639815
P 6.40048612921273 8.473614381388153 8.384075195203001 -0.9046135938327194 0.1276465302070963 0.8214582040594627
Ni 9.276304023411003 8.702086746745023 9.632804739347671 -0.905580328621363 -0.16897907040729607 0.5982334849347245
P 0.399016321568326 7.560740145717858 3.3348862164041204 -2.3899835988613227 -0.6754663385759593 -0.30639193597253683
Ni 7.928494033763138 8.751255340985502 2.8341424111656863 1.31555326921136 1.5532664117602604 -0.46300837104942194
P 1.4051469599347333 7.304763544939103 10.304112060192882 1.0782137079517946 -2.6047979824351786 -0.7403735807723056
P 2.2531585151180615 1.0215406476808362 6.045768112449696 1.6841227071539062 0.2947250411575698 -0.2209212678025421
P 3.0923031444220697 1.2325120112233756 12.09907497469637 1.4398195700923138 1.2772628582715937 0.30109983433566206
Ni 8.165721557026062 5.261002327740045 12.186851021103205 -0.524626143861219 0.07448305881023946 -0.7165641370575336
