# total energy = -340871.285948185 ev
CRYSTAL
PRIMVEC
9.17455769275549 0.00000000000000 0.00000000000000
0.00000000000000 9.17455769275549 0.00000000000000
0.00000000000000 0.00000000000000 13.42789256185244
PRIMCOORD
 96 1
Ni 3.322318271553232 6.58546064748117 5.680521750097013 0.09569903076622227 -0.9316669984060858 3.321120178685235
Ni 5.889396147450871 4.062099537886559 1.57861013756295 -0.45158727369667384 2.567415170911346 -0.10449965977698777
Ni 7.824493807185291 8.842273339153042 12.946958420407652 -0.48651699569432333 -0.1232939096653554 -1.1504061709556446
Ni 8.922348876675146 5.319426765168485 3.1016151172645388 -1.1293933161494032 -0.25315210281178985 -1.016449125149488
Ni 6.972526052215361 0.8207678374113357 10.87319558174761 1.1844830580346957 1.090429019071064 0.32642391492274747
Ni 4.9296640405406755 4.599113909768007 9.019662490211259 -2.026459179541852 0.5664497647652245 -0.15926364289174508
Ni -0.012581988102407477 5.064585082566346 7.633541907832057 0.9637618220581015 -0.6834218459776101 -0.3672293789748837
Ni 8.646735995980656 1.62301591313132 6.568132660804039 -0.2915864955285882 0.5504952983184971 -1.1300528041102733
Ni 8.577394690688259 5.528588326170881 5.365678461698065 1.1390130986273546 -1.4465347773289603 1.0415574901813416
Ni 1.0209722779642783 2.921087350098816 8.285788721427254 -1.228726344123787 -0.13724445830817653 0.4576530202747795
Ni 1.88343572666992 2.8544433647000353 0.27967904456133147 -0.8474564278954373 -0.7097496852388615 0.11666277750208295
Ni 0.803831604337802 0.6841504197110736 0.7895321390786418 -0.23819625283290588 -2.4887923789011204 -0.86424136066326
Ni 6.358693110710567 2.133699305098877 5.2546296181866605 0.7587811367452157 2.251480585555697 -2.8858144157574044
Ni 2.0510273678152298 9.061710404512079 5.107675226594767 0.06541992016670668 -0.576100400481111 -1.5090858605883042
Ni 5.47750439022644 6.580423815434924 4.727826528759625 -0.5706689450528946 1.0202497298425008 0.048357308257465106
Ni 7.332737527260368 2.574270728947287 8.795068406103233 -1.193771168204841 0.4572084765381932 -0.16011133560402102
Ni 5.4868165660496455 1.8992893619630222 1.4447872900653955 0.38742076632109407 -2.538932490090621 0.3756559124756821
Ni 3.578004013441809 1.8256910620085867 6.1088717459512445 -0.531602318068736 -0.02239019476974208 -0.7714677310739487
Ni 6.16229335913682 4.722410787490228 10.941140519394402 0.7863621316872779 -0.5830305519420411 1.5715618676353387
Ni 3.9161690269073453 7.713353218099273 7.842748424166012 -0.011059857358587406 0.16385614735843393 0.1570057000955038
Ni 8.678131331613177 7.436015520602063 4.045447716094325 0.4341497949465168 2.7845373766827723 0.11785988313397767
Ni 1.5387567774068704 6.717895384434832 7.591902261338264 0.6069050445667935 1.404837140479858 0.3672736019492578
Ni 1.6675125168185565 6.64395762585433 11.31890751014158 -0.4743258529447702 -0.44334843072664937 -0.5852447859845404
Ni 3.8447909698585416 8.48465826386958 12.734542643873738 3.1513029286473597 -1.9953202920452022 1.3987359126781265
P 0.6151458206775041 7.416198476485685 12.995487242099124 -0.3562996194362573 1.3585950787931829 0.021269450901737562
P 5.4992480914096875 2.5842709965800883 10.208985145222893 0.8423245059855107 1.4618948047247984 -0.3137368063733823
P 4.819587700120168 3.2684452701405613 3.843357903983088 0.7869128619844254 -0.28228321584979127 -1.3828531800095991
P 7.058280640806 8.289946630868709 7.591928867554902 0.00785806259183808 1.4985556504809419 -0.06971160556352511
P 1.4720760937782444 2.9463632559046586 6.183504018531566 0.4176690236826742 0.01940385844790852 -0.06914313465456479
P 7.685260723152817 1.2390790324914278 0.938050792717684 -0.47960124241109653 1.5614399487099884 -0.23443575734920918
P 8.909522845344268 5.1254032239772105 9.736873427734077 -0.7162643464289278 0.8651651580291099 1.3779377449858528
P 7.62827754676077 3.62881271266241 6.783260436523509 0.3603467929224375 -0.09456311738956617 -1.2011852012807247
Ni 3.6477214755901204 8.509677282066505 10.418084319234554 0.009407923577461216 -0.8263227312406156 -0.7990785508126819
Ni 2.175975665880482 2.5369119309649304 4.180009115467513 0.6418314241303333 -0.1434392742649788 0.29917484939880734
Ni 9.177860301971958 8.228614714240013 6.566857397316921 -1.0097174628526095 0.6666145446122842 0.10307115486057732
Ni 5.268636415062806 8.396839399850151 3.319294337413992 0.4648793628198897 -1.3306674991449794 -0.874038806369656
Ni 3.5802701291347465 3.9348667750134463 10.85894841146598 1.9260007797137733 -0.345649853031895 -0.08833693397419624
Ni 3.310281252164025 2.7973042208311467 8.702294363598964 1.1143251089623711 -0.23496926125517598 0.11300975413052795
Ni 8.638433021478193 0.5135201651345863 8.6007393521485 -0.08080103060846729 -0.42690185513485196 0.6098155333453692
Ni 2.1685717980092245 0.42393886862684477 12.23023189951879 -2.5823810481925586 1.5945009929300151 -0.15716819381529706
Ni 1.3391275816067505 6.784686162752994 1.8869541694563232 0.7601407360969038 1.0790156350277997 -0.03468521008701123
Ni 1.646089925146454 2.633813606871032 11.10341642194664 -1.0857578388476397 1.11016377849583 0.7636826878118912
Ni 6.729537897853204 8.979295354837348 5.415495391257102 0.0548521719531894 -1.1787340713660603 -0.3424791686133973
Ni 7.572707252217762 9.145510812363463 2.6401247849486507 0.4856952711239765 0.11961080438681336 0.5065160645240696
Ni 4.320757836392592 3.717347192163819 13.155614463293931 0.7171917433392035 -1.315360950694896 -0.8397649727884505
Ni 3.866855780552934 4.045759651048009 5.549264108865634 0.271831424388848 0.8943584917636145 -1.305607727962874
Ni 5.806595766362765 9.018351445950042 9.233931527352352 -1.0309820286583404 2.1876223534491546 -2.6145357785482326
Ni 8.138988462400711 7.325150168239884 9.209533626695556 0.5362120489266055 -0.806376884246308 0.16590660212955943
Ni 2.8671226031115324 4.919003204770662 7.384481113886274 0.24483098454060417 -1.1946605127883296 0.6409611057102381
Ni 5.8939192042792845 6.4820817340074015 12.908165639094097 0.39619619852087895 0.8992399882256319 0.35994698638085754
Ni 3.8160195576599487 6.127815372197308 11.89614589430054 0.5363295483410764 -0.3120895005779463 -0.17696414549530165
Ni 7.093327450308112 2.572206453518497 2.8748980405599722 1.016856902110868 -1.0993594887914744 1.1309128381177231
Ni 4.097843613755729 1.576455034015294 11.394412283136468 -0.11335762438824995 -0.28130413976597357 -0.2529721255904998
Ni 4.422567900540482 5.3771347315999725 3.175911601041778 -0.16054482359701383 -1.556512943722016 -0.832331913549173
Ni 1.6872561644752437 4.777421434028097 4.808232350350334 -0.010861882415168389 0.18126508686350074 -0.15032545986185078
Ni 7.017875889746498 6.695280100292763 6.234342076336044 0.08103165856203463 0.3915070205753257 2.173681832108663
P 7.041931579409988 6.89032201736224 2.8708832542149136 -1.8044886445391892 -0.8777723052701594 0.28816847098597465
P 3.652171135958844 0.7708527400874639 8.075439972689368 1.7567381166277873 -0.8525600676705897 1.0511911566163639
P 5.799898339416027 8.174686665482573 11.24553765666793 -0.002433549142157099 -0.6492027768937401 1.9359249808060206
P 1.3442011118828416 4.262939775271569 2.2827418259689582 1.2272119643617898 -1.2388004405303374 -0.5680631319989314
P 7.0103527526282425 4.597389092965285 13.132250535263019 -0.28153913859491514 0.00730913206690354 -1.0662511362732798
P 1.0683680418092811 8.262230292778165 9.056924955340271 -0.32909811932080096 -0.0792838226329925 -0.2272217560992732
P 8.797418927724815 1.9943469518194052 10.252504658540504 1.5811202007477352 -0.1120065096769942 1.5741939059415468
P 1.1008826734520785 6.822090833522656 5.291972819421333 1.8414716495214414 0.2637707588679006 0.7497614497451087
Ni 0.6825228532174415 1.8495632605228525 2.634820973280281 -1.1676032515602215 0.8601875023088605 1.0852341051336858
Ni 8.174117842919975 6.431906079251628 11.627910275260673 -0.3501973631932614 0.24533774897369356 -0.04139861755144483
Ni 6.987609024681714 5.161385838340373 8.305890176824931 0.6403080455072714 0.1835420558231355 0.23155637891888506
Ni 5.820586966491226 8.630377760027184 1.1186684705465273 -0.27236724228765996 -0.7217796198202021 -1.5112769547023521
Ni 4.256847869117275 1.1315073462578507 3.750289358184312 -0.551418838574031 1.5107755895859012 0.8135034679887603
Ni 3.237279298444573 0.11549116423415912 1.765083017963586 0.26637400081870255 -0.47370621708290034 -0.2635984949560944
Ni 5.5847916651787175 1.1942980175228914 6.942609655245599 -0.18951755668028006 -3.5200366600819115 3.7412772588970857
Ni 2.9478862324432322 7.0784463181059065 3.665976092570841 -0.7204148782621916 2.0663683570319638 -2.9892884624833553
Ni 2.01086115524972 0.9696406289683837 9.684948184870438 -0.04665832328848739 -1.5456703445805573 -0.29884574819416276
Ni 5.693941375295636 6.872486677657499 9.49971019990409 -0.3479414772795491 -2.108947110934439 0.8090156074207357
Ni 5.489596456960416 3.420100704975617 7.132386293788044 0.32168022959017506 -0.06287169982355624 0.4383494348501612
Ni 8.256404448790247 7.206945169908677 1.0883199519203397 -0.9029148659740578 -0.9758781457056612 0.5546926242292963
Ni 6.256295874885155 2.396458630790105 12.64308606782091 0.5340219832538222 0.4537459719108895 -0.3005832997105597
Ni 8.337223125466716 3.815909462970413 1.2234153105377743 0.4802206211626504 -1.0937051187191744 0.01801983361618832
Ni 1.9481805786742148 4.766833994717774 9.568393689426514 -1.1339179434926343 1.0680154272625542 -0.36325933858354215
Ni 1.7658912964759252 0.8206559078103082 7.209046143567312 -1.669136775268035 -0.6622925201981626 0.708463105216954
Ni 8.976616384058651 4.172726351754744 11.966346855627062 -0.8578948496199419 0.47949274185769036 -2.336748907906898
Ni 3.379264749715434 2.6815213056697185 2.006167451652526 -0.10993522897026227 1.0311740900644886 1.2076708090050685
Ni 0.7215798617858817 5.278196303937466 0.22181511065300133 0.8408360943654423 0.9004270665551978 0.6202287582588932
Ni 0.26595482405499393 8.673406434520615 11.106639443982791 -0.42189128929413794 0.6323491956715109 -0.6121979175346166
Ni 8.799629996072985 2.1251119193151133 12.682550426740631 -0.3369847211577293 -2.0542893143802425 -0.5449859384644937
Ni 8.60209259937404 3.309795000618577 4.62474028366887 1.2497451124672991 -0.9650766842147831 0.3263632368881411
Ni 3.2940881582448553 5.181881799708886 1.0157730562509675 -1.3607656040819402 0.8936478388498352 1.0961543515906154
Ni 6.671224410629271 4.704015799780349 4.294749800901339 -0.6166050454633768 -1.0792467772019996 -1.156839071065182
P 2.3029607157021403 4.454339393028915 12.433785053545101 -0.11666817681872164 1.189868233606009 -0.778224590181808
P 3.965060243618538 1.3938629914207823 13.535987028360113 -0.8972180726995967 1.0066203119845243 -0.4843462132952497
P 3.462138527263229 6.431713413544942 9.638285468166591 -0.05461691601393175 -1.0538201095987787 -0.06437296695943108
P 8.216155665207587 1.0360552504306322 4.402589384212786 0.37356097761986634 1.3583081436803834 -0.021354040195743867
P 5.169734685630144 5.495752585016938 6.761373612243866 -0.9971573667994116 0.9136911306539555 -0.038334119693508174
P 4.2324618953851765 8.520530783543208 5.192633463597768 0.3456251704415467 0.8434470496257281 0.34855854203825776
P 1.3805048357571499 8.822942546582112 2.7941701920023716 -0.6454443382925723 0.08584502079027796 0.6953569068522991
P 3.902654903766871 7.232523836110742 1.2138719358665448 0.5878117753807682 -0.25071521123552304 0.25097309288260006
