# total energy = -381172.14559784235 ev
CRYSTAL
PRIMVEC
9.18858109351610 0.00000000000000 0.00000000000000

0.00000000000000 9.18858109351610 0.00000000000000

0.00000000000000 0.00000000000000 13.44841722636930

PRIMCOORD
 96 1
Ni 5.299495822142547 4.463638157351614 12.486721328980023 -0.42105593787703616 -1.5768354573294519 0.4011093195517802
Ni 0.25027581778310815 2.4740622387856903 5.877025715456655 0.5349923175868915 -1.7297477040818725 1.423170134461091
Ni 8.010871547231572 8.25805356972919 2.754558381233027 -0.07320882008350618 1.8689258890776521 -1.0615622154380426
Ni 1.8730647091213004 1.482145711123505 3.9704162529978566 1.037051631891188 2.4141751085058614 -0.9602355540723979
Ni 1.7921868175178641 9.00688618210293 2.393603346484358 -1.3493547911418373 -0.6396860956525563 0.06261458950742765
Ni 4.764398796747623 6.463836075769113 7.490822661245754 -2.2808526109599105 1.670030233616582 2.1233720281105173
Ni 4.707934965356677 8.163980875541963 8.885382816499689 0.812357270199459 2.3047960091493853 0.6237439705010032
Ni 3.7691100597899982 9.041315795808687 10.983201140300519 -0.2523743441055008 -1.1050696518023742 -0.20907465287660124
Ni 6.434533690365415 6.79236460751068 9.643940623201201 0.5399422053929992 -0.8138860481391595 -0.1303382181066465
Ni 1.5632716944189764 1.8487149689771165 1.2270210790482892 -0.10937010049541164 0.22220244850781087 0.2720461115028154
Ni 3.813059043604954 5.583808901214749 3.784465097810733 1.4701984394944876 -1.8088142684977364 -0.738267075952264
Ni 2.4783349290374055 7.373863967897349 3.7394401311388403 -0.36228669025762766 0.5943058677455443 1.3825320492247544
Ni 5.504621708549627 3.7109830952042975 4.232781487048022 -1.0161678464636434 0.07193046759171483 0.9421457864502225
Ni 6.02863730503365 2.5563919262165915 0.395595985821716 1.0410489259760394 0.3866242385617277 1.016549141062462
Ni 3.3450478494525533 4.5787251367123325 11.209888032461684 -0.6111993010667732 -0.40964075406155903 -0.4108591998496924
Ni 3.676571858660913 0.7497000144377427 1.4594085669775492 0.8066810457502881 -0.17380245993786841 -0.09319786161092336
Ni 7.406584505502421 1.9981580533941 4.602654039838175 -0.07490806216280002 -0.04084120238607805 -0.6342723808361528
Ni 0.13385281871787527 2.5621623552017034 8.239979630535375 -0.5247690971969866 0.17777250032921 0.163906283870079
Ni 2.321008041962419 3.9655894913005962 4.52481389317499 0.23358549353377187 -1.7673930252384722 1.2803569238158852
Ni 4.467965979090448 1.2568968319180245 12.724032058709001 -0.19896147570199926 -0.035785128019409335 -0.599269896619039
Ni 7.8816800957496005 5.416677798013784 11.358237675717476 -0.7771791796364292 0.757912103876701 0.12410200738894757
Ni 4.187319143911653 0.022430245534327247 6.507434055782745 1.3312285138547717 -0.4121092702067097 0.3535439110679911
Ni 8.517998531494836 4.769379007750699 9.18805284306625 -0.5865030838716737 -0.2546230309303615 -1.890203567509506
Ni 4.567266975972785 7.262397289524106 5.114540709156038 0.7035952356016915 1.203881002945333 -0.21564947788064148
P 4.087218740466091 3.91646733627765 6.124449397639479 -0.648347113761664 -0.5747559706380747 -1.1487994885901571
Ni 9.076682644795465 0.3985280620783232 4.243217877559631 -0.05187997669874291 0.873405029440399 0.9104682528412835
P 6.073909444539458 5.824255693702676 3.3920400913564723 -0.6586065867061432 -0.7556351349170664 0.050843050793796314
Ni 2.742166660644934 6.085496245415616 5.83914119522478 -0.9300803706452562 -1.0031752908587175 1.384202494948642
P 0.15987579949611794 3.3615872955882256 4.075704529381308 0.3005452473837727 0.40618442008184236 -3.0159921970267862
P 0.27302398822648777 7.527892154326389 4.183425942062939 -0.041527172709509126 0.7669063369555115 0.862435932023405
P -0.0014205546514304995 7.120295881475124 11.656496264456406 0.7802405921705724 0.2936485202639394 -0.08115018641776992
Ni 5.684019567634549 3.927190410522277 10.15604322417695 1.0711367465003552 0.942966225468989 0.4766884396396759
Ni 5.8475579355916 7.785870759718127 2.2105833486957227 -0.7819539753172533 -1.1897299082559318 1.3596644005979615
Ni 5.693869726666461 6.295005085048648 0.17314870501999477 -0.5783416311068039 3.051666253389628 1.1102170003312686
Ni 5.783081661406038 5.455949794004819 6.080634567109846 1.6173010215436663 -2.6484614847614 -3.3327958152509507
Ni 8.861908748142577 2.2031093567586364 12.982779748346049 -2.5430840503651493 -0.6771318992038402 0.8788567965835896
Ni 4.89925041424047 6.48451957201989 11.450534217161357 0.04594869881597247 1.0713331787818776 -0.20223371869536783
Ni 8.18097975073696 5.986434151644126 2.579043616557513 -1.3733529538286477 -1.576551093319814 0.22139383656358644
Ni 7.020517078371088 3.2275718389833497 7.073450656870188 0.6962411092294655 0.4007267394013808 0.19018990015695633
Ni 3.690621199295048 2.9659361782793905 2.7667433587444243 0.7075758175159944 -1.8596303227083393 -0.12111644239806238
Ni 5.459726300872463 1.7718065444462414 5.80283067895015 -0.8552021332791271 1.5559853533533203 -0.633249081777961
Ni 0.49963645288004244 5.294791268575067 13.208322662149497 0.4152056497438462 1.1325120642840432 -1.1793663056334205
Ni 5.132971165299889 4.613742819614025 1.7922171398357796 -0.7587507977279125 0.3657072859034024 -0.7681558930918964
Ni 8.260451789418862 1.7306876436367233 1.863439670328458 -0.6676506991862824 0.47395612831017725 1.1806248606308698
Ni 3.7373175688847624 6.883607218692471 1.8401741827642792 -0.35604533733360616 -0.2354246036250397 -1.189329073273087
Ni 2.080221271970593 3.668954524857318 9.022018856458951 -0.4575820578275281 1.18145301295912 -0.35495724647574994
Ni 2.024731430185413 0.23479030190952585 5.80846603579182 -1.7330289459363055 -2.181543751355243 0.19716633147478946
Ni 8.992267149435232 9.043493489549883 12.690397257275874 0.37368619034382095 -0.5905592562189184 -2.112772912438432
Ni 1.155831627447882 6.472464153503222 1.6885699440522346 0.3764442127049323 0.4000281706724595 0.6361809107127754
Ni 8.61046322397443 0.5470146151937937 10.587710823162448 2.703880327851337 -1.317582126715931 -1.6777083189871302
Ni 7.405178652580889 4.951074012132242 0.3830590856508766 0.5721162190223824 -2.2000580081093464 0.1306557493470653
Ni 1.9492931786443757 0.9358937481681896 12.043380556455217 -0.2977520009093517 0.11787042465693892 0.9381212386718618
Ni 3.2129987492215855 0.8377505125153489 8.545648810001206 -0.9923728009265746 -0.009971766500731213 0.7705578176651696
Ni 3.7156968373529646 2.5558497999265883 10.16107305351843 0.6723920705260097 -1.6691771415876673 0.35778006063652573
Ni 2.5154108541248705 6.887411291303675 11.787820385631761 -0.18418380317219246 0.37786886096660083 -0.10447343452474266
Ni 0.627184067187752 0.24717926592326286 8.254194365630868 -0.13687550500453202 0.6818766129776773 -0.65730046630021
P 3.822615168038898 3.178514004028709 0.4313165951841744 -0.40628495021544864 -0.7091189936333981 0.2294982108382757
Ni 6.787117927653197 8.155848981191925 12.127258519816039 -0.4790355997156137 -1.5774805471126188 -1.2579914116364914
P 5.532453920963488 0.7691853197018017 10.249495689134088 -0.39288333209756204 0.032645039728530875 -0.8641207759249956
Ni 1.6466121257803905 8.153294555622082 9.878373489302575 0.6601345933148953 -0.13983870139791402 1.1372547211753512
P 4.620404540974226 8.277827396442506 0.1245944043143735 -0.21079909176687567 0.18891231899611335 -0.01854073911666484
P 1.4938703407174592 1.3849397107516856 10.052920696379152 0.6002044926181663 0.2721481842983184 -1.48064097498405
P 6.545155019269501 5.138842668678052 8.206909926845217 0.05579113882769101 -0.13270466145629403 0.4099932523049713
Ni 2.2499619322285205 7.977241340089038 0.3380690355874927 0.44336617133846223 1.1262190321864798 -1.1123908680541357
Ni 5.977989845533747 9.109044827734264 4.550042980538721 -0.347883113237788 0.20347607574290116 -0.43929637214446277
Ni 8.856487485242551 7.347795963071293 8.927772498087299 0.5202624675758847 -1.6069626157321355 0.006602335807866049
Ni 0.5758024400510495 4.782592187496863 6.558429762509615 0.9512816873132196 0.16913179393507646 0.8260867039704095
Ni 6.9747120011564645 1.2639260965256853 11.816465787480626 -1.7489942110163106 0.9334150914454441 1.8345620668858016
Ni -0.0804524602945021 8.20577973135928 6.347867911472612 -0.4074684290005886 0.35255120813741864 -0.36761015935307007
Ni 0.21355640964567887 3.978122716038961 1.6454947943081142 -1.158622902438482 -0.8862407477524866 0.9901184576747593
Ni 2.650859729394838 7.889306618134382 7.537057764059907 -0.8013336653954457 -0.7625215776242544 0.49061944789847123
Ni 7.06416283900689 3.656871540597091 2.5573512140924604 1.3403158208680208 -0.09752708511389656 0.049415060098018125
Ni 3.475562456625379 6.24915406492809 9.614502246795944 -0.5127733582876911 0.045346289345283196 -1.0062377318341251
Ni 7.955933020317581 6.215937343938949 6.795835134624815 -0.021664372347311077 -0.7799413157625987 1.144832276412293
Ni 6.692117186766134 0.02419077768965767 0.7433111939387801 0.17175303360800742 1.5817411221611857 -1.0174513411617574
Ni 8.286593302894412 7.18575533384764 0.5853502947619256 -0.27349209992072254 0.04719157008413808 -1.0630292869018725
Ni 0.15687572773873076 2.9820713268428576 10.73735054321682 -0.3264964200318958 0.4474699090941906 0.08429773090781612
Ni 4.449359102187818 4.208379371991075 8.257288160916357 -0.6597507276129154 -0.7234773192375992 -0.5182989160916106
Ni 1.0914564276553718 5.377617139390038 10.643561776188255 0.19635797664088117 0.15651153406790466 -0.2315764335235431
Ni 0.8088193457915839 5.591306783462921 4.002934641816824 0.2768003383583491 -1.4223872335484793 0.30649375165772375
Ni 7.2226750530549335 8.951322831668257 8.798438623596937 -0.8918961462660512 0.6876659659659448 -0.45910826466406734
Ni 1.4424418518167057 3.2420162886085033 12.821182927593702 3.9759706407830557 2.1310814809396326 -0.6434656172996466
Ni 5.502811558055889 1.792526795021764 8.03413795365387 -1.3092892905795193 -1.14395115935892 1.5814372177675216
Ni 2.337271830662496 4.51981714272578 2.0397078986612645 0.24091493731564959 0.42439091578754 0.3576142244826228
Ni 6.455694992837889 8.060783920236554 6.615558847178463 -0.07278715916505528 1.142632697657813 1.2481335450058053
Ni 3.083053834082322 5.222265797270145 -0.0012698619199721542 0.2277416331584852 0.3923197462846082 0.14095147484611853
Ni 2.576827330775333 2.120090525738749 6.652528184724166 1.011970263442528 2.783669886476154 0.7180538342291828
Ni 7.182052335629486 7.114865429993912 4.653300580479958 0.8455201301046729 -0.8565805016838924 0.31919088750941804
P 7.129034222183471 3.5157073678291297 11.868739625850536 0.5982180583157568 -1.5512815201197476 0.526995415424344
Ni 7.754813355307809 4.339831214444922 5.103700939930342 0.32911894525640734 1.2420310316524932 -0.6859772654096121
P 1.7318086505414747 6.121386843530024 8.311821471400023 -1.551156307395793 -1.2545229934719169 -0.16730451091835055
Ni 5.732470956230882 1.1055241454518794 2.6533994532347824 0.4946098000047869 1.373938908239105 -0.10374298411662133
P 3.650880585663503 0.12699446172028325 4.345506082185695 0.705235856528908 -0.10874095155184497 -0.6841186149343186
P 9.179594754084091 9.203374802194713 1.1764553979209462 1.3723173134752817 -0.13033153323842717 2.178827123755028
P 7.867171326056141 1.0755050507156345 7.0176401336016 0.16365920085627944 -0.03482045011329487 0.0649838610705526
Ni 7.203921158853319 2.070095455503087 9.641129836216258 0.23248069050536732 1.6749117300785992 -0.8279684943741547
