# total energy = -340876.18235861126 ev
CRYSTAL
PRIMVEC
9.17434056831173 0.00000000000000 0.00000000000000
0.00000000000000 9.17434056831173 0.00000000000000
0.00000000000000 0.00000000000000 13.42757477827909
PRIMCOORD
 96 1
Ni 1.1464806347518555 9.281588539059461 6.180994479082463 -0.13670324109272586 -0.37870832614876065 1.022778924022258
Ni 0.529997063435633 2.0647036778977848 12.679604626227512 -0.842687031531252 -0.4032610757874604 -1.1483444033306094
Ni 2.2282546459668704 6.3714051638293885 2.436178229291632 -0.6733752603748855 -0.8755269608794083 0.3394195558514671
Ni 6.179377042852554 1.5890783434272853 1.3400326136855123 -0.05747058341264295 -1.1072928847059382 -0.045145229078070635
Ni 5.632072586066255 7.104471667031957 12.6277741895805 -1.303528476836342 0.6663468927731944 -0.24942991676519624
Ni 5.23934659234138 9.158120264628893 3.108806012157323 -1.0381296954467154 0.5462892306569495 -1.3052583150432553
Ni 4.050719037338816 4.564344490154643 11.870432381418555 -0.14660353092557332 -0.3592859557580909 0.7171670607488552
Ni 1.6725097959218307 7.108123054550412 10.769384915684014 -0.02369040163840436 0.2887587962718059 0.21184064565751257
Ni 6.734892534385128 3.8686267271219985 1.8330112132091714 0.780933504472539 0.463514364151563 1.2887531182993806
Ni 0.9583974801894322 2.4277139827475955 7.632179732513182 -0.31080369188698725 -1.568117874950796 -0.19827936203331015
Ni 9.131101831860425 3.864966165263045 6.155146692161621 -1.9614336666000862 0.3317561257689383 0.20135157320073063
Ni 1.5191148227847293 7.924033852455614 4.216862674032814 0.0671070780611425 1.2260125447370498 -1.026496224972845
Ni 2.0279420955197724 0.5923422117281262 0.43094354394001955 0.43552662068938536 -0.811379222556906 0.8999400996164502
Ni 2.061107336422322 9.597828056047254 8.56040097193452 0.39734651007523825 -0.41808477106385417 0.008734037438888185
Ni 8.589641429971755 7.017856718384387 12.526490387909668 0.2605301404434158 -0.280545150112762 0.7351506418104694
Ni 2.2835208731306205 7.172976467535231 6.120167684142492 -0.017645223885588965 -2.2621267524156328 2.6823473388755676
Ni 7.222673870016313 7.706574459616577 10.91559729764474 -0.6632947362104319 0.04029767117778221 -1.5150081396100104
Ni 2.7944031981373567 3.8737827064822286 2.6931551763944706 1.2661747187782324 0.2491293548056419 2.949201107544166
Ni 0.24646407032545828 4.5786105896300135 2.0013126547884474 0.1018334257987343 0.8929364146051073 0.10700879935208668
Ni 0.7308508999721499 0.44523441413473624 2.6418485945899297 -0.7810846853384226 -0.3892467637862393 -0.44241846271321233
Ni 1.6324913226668045 7.703858854828981 13.039034185980707 -0.2398970375740965 -1.083660847109295 1.2664737380758897
Ni 2.67734778771533 4.860492201450435 0.6205523913273651 0.42774646252333426 1.6463809696287581 -1.0249021410128478
Ni 6.002688419189429 5.984789280876602 8.23168068213239 0.07194049489404385 0.4193505251501552 -1.369054326453294
Ni 6.678809790916999 0.4296105122655685 12.588418103709474 0.5992650115230325 0.2009448246806152 -1.0440900267952082
P 0.6394341015075964 2.7022194248071174 3.1482831993229303 0.7852159338979768 1.1786083444214734 -0.3259744860901547
P 4.030040073854903 4.995731154740747 8.616045181926813 1.6532309026710559 0.09763378589508992 -1.1912188340966323
P 5.513760290995916 7.809097714688772 6.405584169357035 -0.04721522423322191 -1.0131411438221778 0.8766942417146321
P 5.984642491428623 8.466457560096643 0.9156358791253155 -0.1716753862925366 -0.12029883159277345 0.6638729773114052
P 9.117413715836468 8.95602789212506 11.47521830655045 -1.4508274911670433 -0.703698336838459 1.2085447269695895
P 6.940039962275003 5.806495147626217 3.5967231280278877 -0.5985466452997692 0.15776057598365734 -1.7192102948856587
P 7.383628499724285 5.734852722672412 9.794878211013039 0.17981087091547743 0.2486953525920168 0.994986841510654
P 3.3537352153173603 5.435640781650077 4.3191272127029485 -1.5400799949769737 1.085536466865453 -0.1498603472999742
Ni 1.9854924220326093 0.23507871376665787 11.20853398976601 0.7240136513570435 0.999043013857899 0.42129633602261635
Ni 1.0675813064636335 4.886675769233525 4.211115867144472 1.2711577738151205 0.2464006430205692 0.9754667691998555
Ni 3.6569196457756017 1.514656093302395 10.147486648605502 0.5637151394428808 0.8570085903602467 1.8872311151447436
Ni 0.9509295670235469 2.0504375784224145 5.107929669302798 0.6685564988300033 0.41577566331470334 -0.9432876133641496
Ni 5.0618231036928805 6.1120465579331045 10.29942014930117 -0.5947696947558402 0.9021684747263365 1.0941725452738962
Ni 5.540586062613911 3.7441676239175776 9.87117386146775 -0.7614139463823726 -0.5174753917490507 -0.5166217854995039
Ni 3.6568737740731088 8.547714693893013 4.8427215039045866 0.7439746678600025 1.1292511341445843 0.6834573272012359
Ni 7.591500706742254 2.964055102638031 10.800590517456056 0.5921625961502963 -0.08380742153495889 0.5484435579957909
Ni 4.974987970873342 5.734238041859003 2.2483803967187157 -0.5195800967968793 -1.10374964743937 -0.22017359100324016
Ni 1.8244093515576556 2.779228838952622 1.094211664629008 -1.9402583180740518 -0.7108830275123563 -0.3219972466099616
Ni 8.400998640638914 2.139327763513645 1.6606015019546083 1.3804779949092032 0.5519338305372365 -0.4508434535521138
Ni 5.104795714588466 4.3329217510766895 4.571605980659309 1.8403249375115078 -1.7656621585902947 -1.5553040110155796
Ni 7.513546335525391 4.083324643470949 8.316851589585475 1.3837934324356813 -0.4695235464601204 -0.06077547941615985
Ni 6.4724054783788105 9.137312860377998 5.109286554262544 0.13237581736196555 0.1176991891863973 -0.8142133495715912
Ni 7.962501862166372 7.859336403259273 6.393512572128937 1.3069552431297038 -0.22345149042356355 0.305296646025829
Ni -0.07693601942151512 8.170025444245393 9.361086951782244 0.7768760465737137 -0.19711208119808632 0.29358681378806856
Ni 2.250199668439594 5.200851059609127 9.634271288809964 0.2521210904441142 0.67541980160874 1.3070665718965877
Ni 7.552629026049558 8.43532902278479 2.457877379438992 -0.31633542033849393 0.6357633635593826 0.349810669277804
Ni 3.910773647372707 7.482555413321018 0.9722507343423642 0.09022618057710913 0.6450998104689599 -0.9983457306805579
Ni 4.215077347371781 2.8512290631858734 0.8633430557171716 0.5748513585653583 1.741127149563408 0.5499587090887368
Ni 2.6192466893375035 1.2955636678546008 3.338699388674155 2.3660178320743444 1.1017822393003542 0.5793531030904538
Ni 7.078122961119891 1.9401344826073803 3.6512664171603455 -1.3921096656108605 -1.2472984506990197 0.6107293034088901
Ni 7.944244924574098 4.010379462166338 3.978469271044001 0.34164510274787613 0.03231413875167338 0.9999683538856455
Ni 5.500191441398441 2.7026873161725478 12.190451726691782 0.40145204760317954 -0.5092326921242842 -0.10839256707349074
P 5.965550688850974 1.4124906375096458 10.276163196137142 -0.4196909392087094 0.4161266188962189 0.02632603948903853
P 8.691678444997521 9.15237712747675 4.299710638471647 -0.9972172735030695 -0.1878460825151281 1.9668864621845414
P 1.9068958469808421 5.092217693764844 12.042654936126944 0.7697556334788486 0.711306231092704 0.45213620422160844
P 2.1290066304526856 7.363600914415775 8.59683044318648 -1.5902447887568225 -0.34139827684439267 -0.4897501579196403
P 5.533219067193511 4.685895327420998 13.832953172276643 -1.2789482163938168 1.3589023256209565 -2.4500749077262642
P 3.078440779974956 1.3998116989405385 6.596631553334566 -1.1137298985805335 -0.09281579568115628 0.31234789644565564
P 4.610986837249681 2.3307687266985666 2.986386364845748 0.8172331102345215 -0.36468835772058483 0.7793890428035545
P 8.489558549472195 0.42422884412907186 7.9934625090471005 1.6707084906305294 -0.6041943305038497 -0.08961682912788438
Ni 8.856532169417413 9.2987445557919 0.637635013335815 -0.25597645963446236 -1.2441655614969926 -2.448758760018002
Ni 2.0139695749403583 3.1181564999935274 10.833273188048379 1.1705165685522745 -0.8401794346180497 2.15068665676507
Ni 7.129499267912221 6.435634721660301 1.0566344833806676 0.43326944922409244 -0.7712877538526587 0.37523322311596663
Ni 6.974113462886916 1.7714642325400591 8.286398283734322 -1.2722744039180671 0.8562390591840738 1.3711454046543676
Ni 2.9798533169766728 3.369891228935449 5.4448683333236 -0.20454848287147354 0.23559043977894265 0.4122352542616126
Ni 0.10775905119476392 5.175309695660939 11.05131056433883 -1.3614849987464681 -0.6640578396287015 -1.6450044009962055
Ni 4.342059394213325 0.6548075438811515 13.463560278741934 0.05067695752957724 -1.3557478391523747 -1.2053714714479307
Ni 4.848464641056729 1.6877208524685603 5.384887412577604 0.3869309711688691 0.5675617668824806 -0.8302200094124927
Ni 1.7442439642806224 4.806070013612558 7.427302030233966 0.264527434528267 0.6030507038177099 -1.2995517515767814
Ni 8.137300571686778 1.4504907558549733 6.225050579590936 -0.8564401194512864 0.6306144723685914 -1.8041981098819637
Ni 4.608197837738096 0.9850948110404468 8.216010908560728 0.6958238191863887 -0.24316285280956185 -1.615491222028437
Ni -0.4485913053231851 4.3584447663438795 13.23944123213494 -0.1271958158229229 -0.021475653375272692 -0.11364250261852042
Ni 6.806810189553892 5.218273132216026 11.875320470036225 -0.07839036428444562 -0.844874526100874 0.28410355688798167
Ni 8.936413152138988 6.132936531248486 8.20146866143635 0.34307926409124145 -0.32223558787301276 -0.1552735478957455
Ni 4.920730921164442 8.632458077078862 10.268039317625604 0.32080965405976364 0.09561958367853855 1.8668846902779073
Ni 5.320456936689772 3.527277040189454 7.348280683217111 -0.8307702254890078 0.06533250265922297 0.12676129938866554
Ni 0.18764737338873833 1.4024539090041444 10.07842863537016 0.059587629755645764 0.9346507636247582 -1.2496378974654736
Ni 5.262805380996379 6.860663568280852 4.255332518611672 -0.43809900940225194 1.1114467589733117 1.2686864294564923
Ni 4.412243099027848 5.7114122826984115 6.351524367968856 -1.259801725372353 0.702136648778294 1.0849672246255444
Ni 6.882544370370086 5.662072679496776 6.097462108842431 0.9390144399100926 -0.6615222176910415 -0.9745131470373345
Ni 4.198618580517238 7.6682348906727995 8.356852631593554 0.06360754954831627 -0.48485297772833924 -1.8420115811853113
Ni 8.834889900181143 6.882636113775073 3.701767491869107 -1.0981194457367862 -1.2661520930704129 -0.08036599995357772
Ni 3.228037576145624 2.9981377775904434 8.31936260657995 -0.9312440519360543 -0.2056242324341555 0.399415476789125
Ni 6.60545176428995 8.404530761730888 8.458459370049937 0.004166215562547663 0.12248658327271163 -0.34848783670132244
P 2.9028897745336617 8.390824297025933 2.5683052462848077 0.17408039618960341 1.6976369395902569 0.6823633228061088
P 3.4619373871582084 8.00351116419525 11.985574024412564 2.0345977494885865 -0.06648435687547904 0.2378283279705259
P 0.2007419095824336 6.998260327079313 1.1804018413114918 -0.4559190683028084 -0.4548242925767328 1.053262951543728
P 2.940999984964973 2.2445666233734354 12.690642275281414 -0.06979233820278948 -0.44253467657610235 -1.370063998664731
P 0.8091676576387089 3.6460297036037272 9.327800609585113 -3.0931661724056276 0.14431113534697082 -1.8809493959010897
P 7.565069431765701 2.522466571417451 13.061646183007682 -0.2493576687663641 -0.013594965075615296 0.004043831052070455
P 9.29379041192264 5.957091946911237 5.9861736888578445 0.5107671264909397 1.273566383256613 -0.4094924014091528
P 6.6590299128019526 3.327982841537705 5.820437392881986 2.365057525043604 -1.2210276899279486 -0.5876860484361813
