# total energy = -340859.76303013135 ev
CRYSTAL
PRIMVEC
9.33696363519886 0.00000000000000 0.00000000000000

0.00000000000000 9.33696363519886 0.00000000000000

0.00000000000000 0.00000000000000 13.66559007486502

PRIMCOORD
 96 1
Ni 4.401369914248187 6.153619186758389 10.781043524040674 0.6134161062124338 0.4024738039994746 0.9753942640907073
Ni 7.802704349180748 7.53539642016411 0.5139092740037899 1.0072769717319168 -1.4325662309640101 2.2234776725848673
Ni 3.804233748390837 0.9439856872206577 5.96373149197348 -0.3142039758177879 0.7422425156602444 -1.356270030204432
Ni 6.742930977174198 9.262053075627449 2.4456485987073706 1.4321142310282562 -0.8887483446656889 3.348347389832304
Ni 1.6742482791466542 9.227272886463071 13.495412734347386 0.25213137485675935 -0.28106425584102557 0.5215063672853147
Ni 2.166950507875531 4.908002892569884 6.679822440647477 -2.2071907624993856 2.802396002130748 1.2039198266030686
Ni 2.982272837596825 6.813891900033063 4.703026664713931 -2.034300015742509 -2.4659836085367206 0.4596949904054728
Ni 1.9120420664321252 5.394972225688847 13.286520583985249 -0.30788523268861173 2.807325578221881 -0.6102377084844522
Ni 0.38998909397972936 4.571666792145931 8.890491412878543 -0.059906446547645216 0.9699193570190651 -1.0724683208275854
Ni 3.2849585214440213 1.9371398244116818 1.9216143214472448 -0.2348905854984406 -0.052541007321509514 0.8954869489411029
Ni 9.17361335703282 2.824627545287735 0.0376391673985076 -0.21635061771272418 -1.5585919377382318 -0.11407907593530676
Ni 6.718598850204434 1.8382987284401098 4.177038160986126 -0.19267332870044238 1.7538793070227536 -1.7412919572760464
Ni 8.031497303619386 2.085252076952495 2.0953453345328152 -1.1099611755667207 0.947540989323865 0.8546498603200829
Ni 0.7261888747360855 6.600663663805706 1.527717708228511 0.11146580668217577 -0.46940527571470125 0.10295494099768719
Ni 3.924288425511796 3.9243164364023975 5.952361871478054 3.263317408744154 -1.122500445684312 -0.05240782417775491
Ni 3.8211896741686915 9.055846235977707 1.805101154594755 0.9314844500816345 -1.8693411222382 -2.223882364222454
Ni 4.658192433216076 3.772964257515265 1.7997445386152642 0.7720238606877349 -2.657001403911611 -1.6411636870938766
Ni 1.7653023475308192 8.293464489494541 3.1174216499669476 1.4305245179436332 -0.45151065482246755 1.8846343009518447
Ni 1.2634872423926986 3.6749074664805548 11.991500548345318 0.5214662580759988 -1.9297785015886508 -1.1062235629011594
Ni 5.2956082597593666 9.08291409326295 7.584196993771235 0.6694198752715632 1.2432415070208265 0.3908192504796818
Ni 3.8245042962232834 8.865073397049768 12.086107331354194 0.47148889771660735 0.5642118765736412 0.2669057049524564
Ni 6.080314686052475 5.492786255671673 1.5535997711449285 0.43783547132822015 0.9524620807745661 -1.3591717772322591
Ni 4.778527219243057 1.7651716300413423 9.324114004845647 -0.022065721550787804 -0.9366022309241742 0.6910168847160486
Ni 9.127227322195605 2.457964987305151 9.518193062560998 -0.8926625921184305 -0.6743769621665224 1.2015505550399435
P 9.03125267402899 5.983107558699364 12.986587436987893 2.0420984287410056 0.5860631681207777 2.71921875798062
P 3.4741534135347036 0.362969788904863 3.72299843085909 -1.2994915877628073 2.309837942448667 1.1215092854156363
P 8.85282330089308 1.663286683957666 11.776212577962347 0.45003869826263143 0.039675721323067153 0.6412261864461666
P 3.2066867561379864 7.412428610420524 0.11260004543536473 -0.9046902127069258 0.5442434038715144 0.7913066201767469
P 7.33931084898529 2.576086912974559 6.131381340709316 0.19319243442870598 0.7815469696868217 0.5936934309725259
P 6.057000288107924 7.488431493587782 11.471183316268103 -1.1035699273283963 -3.7848266042429466 -1.9527885893305785
P 6.290872550709089 3.08804196051067 10.008746855980686 0.8682569095805562 1.5347930355464214 0.2869289421519187
P 0.6661764753172603 7.418553658498868 9.914918775730552 1.0434256537383322 1.0737782978882604 0.5740162642585728
Ni 7.917371598342555 3.6082041989932208 11.943520693832836 -0.07604294709819162 0.7323903054565128 -1.8548038478539735
Ni 0.709335655557105 2.437489026274955 3.035974383362978 0.7008711518023091 -0.019906509115939913 -1.0832900940334378
Ni 5.125423425424033 4.809675329592685 8.478063728133758 0.39416579835441146 -0.9502707295502021 -0.12110641509573336
Ni 2.195699018596905 7.218761312797025 11.826420231974057 -0.9935650214624631 0.05452692740328674 -0.9046992115679903
Ni 5.766938178958778 1.5161454756243953 1.428941971001677 -1.1509584439146887 2.180353587701884 -0.23707293786174014
Ni 7.257024189359609 0.9706520550739366 10.57728950471133 -0.9968969140491735 2.1006391052893756 0.1277537452089219
Ni 7.911872126820993 8.397870415732413 9.656884318895942 -0.7944161123400061 -0.5661211777812121 0.8069371276251522
Ni 2.607888610771572 6.038401056748073 9.309272901308258 -1.2975743161354365 0.025366760899562763 -0.6468602448034925
Ni 6.825189625909277 5.462478472040109 10.277480539328977 -0.007757018237599544 -0.3773099031393373 -0.3248923087695695
Ni 8.876996699482765 6.8561136491340875 8.156484698575388 0.1178197739246616 -1.230013695476643 -0.6314436531381061
Ni 7.043777279205184 5.995525720199665 12.59166562517312 -1.7990229934389275 -1.1373261978432347 0.01694331272255792
Ni 7.5698684895318635 4.379521419578485 8.08453592497462 -0.9129642797902598 -0.9027629137772258 -0.648367168366322
Ni 5.733642566996315 3.844093245717744 12.631132036335242 -0.41749238889549395 0.27469177665577854 -0.1794005228509362
Ni 7.651734985798512 6.531084611549883 2.876674581115653 0.7321031132333972 0.25092475614316784 0.385862934915671
Ni 2.80587892251134 8.401418461875355 9.728902186026865 -0.28792344485470417 0.618670669743154 -0.30254042343693055
Ni 8.066174786184888 0.4542834248752749 0.6143806038084091 1.5351889854332592 0.6437906047392332 -0.9861479030627855
Ni 7.396854555245709 6.019941879841235 5.650611751376969 1.3533101762451594 0.5807774942418061 0.28316536134442843
Ni 0.42625105925696294 9.325796525674486 8.52969246799535 -1.7282726621982427 -2.5448907645565852 -0.45191843178384755
Ni 3.8261009169876075 3.821413761293509 10.885407433942644 1.5826746897190485 -1.286882897859861 0.6721496154979005
Ni 8.129227300930404 8.4537054576661 6.508168901948236 0.6084605619793715 -1.1584154144133663 -1.2540535100346661
Ni 4.69429847120229 7.00905311182201 8.70425633822816 0.6322766905623627 0.8133324896285348 -2.089619871360737
Ni 1.8484386708381004 3.637793036432661 0.7978491361636519 1.1756430911455624 -0.13044183356404632 2.2707252927179216
Ni 0.5834845914742005 5.955890309997574 4.933715022749981 -0.532435869713625 1.2591874888271217 -0.6521634021839607
Ni 4.593076449529533 8.112840929928126 4.39459407981152 2.060829686601922 0.30354546766267726 -0.44475405282492436
P 0.8099517082965021 8.117145270117328 5.68308197576302 1.034721698206431 0.47919526522192957 -0.36517686732122917
P 1.28714710798801 1.6699626128845197 1.1166868332284212 -0.09226557960464112 -1.6198176173179326 -0.04423274456613027
P 3.3272269553627165 0.03763730000580079 7.79822820886252 -2.6885138726975955 0.2565166484086486 1.2504061430900657
P 6.789503751282095 7.6951798771224995 7.936537583388922 -0.09797779949806998 -1.4045584328971745 1.3375395436744644
P 0.020796218879414564 5.141595046265028 6.80415157967433 -1.6721683630055073 -0.5846164083719222 0.8268428654101437
P 2.0293983610917405 4.128861296543077 10.00941631626608 -1.0974396460609421 -0.5018184019380841 0.15012568514621885
P 3.0691532832812647 1.245980435766334 10.664229706962386 0.9933503343484955 -0.2595052987233273 0.6815781079006519
P 5.800457878046058 7.977837774189134 1.2477927403882954 -0.847394207198934 -1.7809933896307264 -1.6607662918161528
Ni 5.299287023391787 8.798855651666207 10.16501214507944 -0.30961764199868613 1.1483107218791966 -0.932177362383601
Ni 5.2045261804846 1.5874238552434188 12.9351090222392 -0.5497509639533048 -0.38693842736803685 -0.7540726755259529
Ni 4.576064501970473 5.164442596032876 3.506330457265786 -0.011218237313322615 0.6897665572487153 2.5082754273263967
Ni 1.412066343110215 0.9862447841758188 4.7566497799863985 2.0933302303327883 -0.3413100880059605 0.337263942961045
Ni 4.396355964830398 5.762484447353031 13.184165054939454 0.876041952842614 -0.008195905547231045 -0.32803342550171244
Ni 6.115963212825521 0.19516588027071471 5.527403047974205 0.6833529404128875 -0.0745599347947619 -0.2433101770207035
Ni 4.492657406720705 2.6911369776412615 4.080941198597214 0.26924695149112343 -1.3459221113112045 -1.1842344323589993
Ni 7.355314404482671 1.0167393070780628 7.615819421868393 -0.01636995671759116 0.17850063674448613 1.6479783960228649
Ni 8.616747514897876 1.0211463538661398 5.322310108074076 -1.0382780480991216 0.4488824731710011 -0.7066414786271831
Ni 6.7185708393138315 8.83130159994707 12.654951564006986 -0.5375973593099064 3.138592165948911 1.0889660613722922
Ni 3.391605318930069 5.554746345683703 1.6537144289425465 -2.330098492469916 1.872976147887626 -0.22459897376444546
Ni 0.080188643919578 3.539717571470882 4.926212772550364 -1.2716583676006228 0.003318522850271704 1.9888717082063812
Ni 9.128833279923464 8.1475650973113 12.267217346720733 0.003589260013155109 -0.2481016848720759 -0.8398521331856181
Ni 8.762114700159675 4.423358463370902 1.8050329947609565 0.9653237672285826 1.2717460422184226 -0.13600724346696577
Ni 2.3540539201345836 3.5343394804752624 4.3582844960202625 -0.06764443862185124 -0.09781042068227026 -1.187980786775309
Ni 6.029680332807261 4.25589068542398 5.175541444585814 1.4733081887680626 -0.9088088628609898 -0.441552258058175
Ni 0.1325746115237819 1.9436103401407863 7.15233722051936 1.1239245797253483 1.71263932653636 0.09565712178469332
Ni 2.6221928389057534 7.462754843869114 6.992436117820442 -0.2591664273266698 0.12215542518553801 0.2807608656679939
Ni 1.0798385066412486 0.5188746712112037 10.993283909526125 -0.013361251798254408 -0.9051396415395185 -0.01933289600065703
Ni 0.23497775908359833 5.607518863578217 11.075742369280835 0.16120045490314172 0.3081891370822757 -1.4433435240851724
Ni 8.738893671850464 8.651826486895345 3.806126350899191 0.30269417540597543 -0.5952242657947555 -0.08978369372305182
Ni 5.4290988274058405 2.5305318678918747 7.216852837450664 0.5240335045825427 -0.014076018477091886 -0.5482206433517074
Ni 3.292521461906611 3.3231186914077298 8.414628397883346 -0.4951736429280568 0.9052777097792796 -0.6865542209590048
Ni 1.8038266590723557 1.5152864749792616 8.819880626152205 3.04417148767448 1.439628022906798 -0.22074309035346498
P 2.2181264050057203 2.849417183470668 6.472337370689922 -1.8279494466652908 -3.6159786600968755 0.6384452812669198
P 1.7467871488427757 5.276458147551009 3.2718288833224243 1.2187316948049203 0.9010307615774676 -1.7562082122662466
P 3.5756368701864156 3.660976716887735 13.092674016661896 0.06331624356014257 -0.10405897269514336 0.4648374538383607
P 0.3875082627687293 8.810172051469488 1.7660586415770783 -2.0330134357206022 -0.13956410758028867 -1.8422154696660016
P 7.908660211365275 4.535037884201808 3.719554958707729 -1.1921868544368563 0.04567307655708263 1.2984163524207573
P 7.241571514710737 3.6583156822805276 0.5406923539012446 -1.926672094749185 -0.5223136936779585 0.01276681274736511
P 4.252081204302083 5.862875479271256 6.655306375496093 0.019604661604804948 0.9525063037489402 0.45011377447494094
P 6.7754516211633335 7.73247170947754 4.465341186205455 0.016418550567339468 0.5697590316441155 0.3275174050972424
