# total energy = -340898.44327146636 ev
CRYSTAL
PRIMVEC
9.01744555321591 0.00000000000000 0.00000000000000

0.00000000000000 9.01744555321591 0.00000000000000

0.00000000000000 0.00000000000000 13.19794306450257

PRIMCOORD
 96 1
Ni 6.316621224852658 1.8426608377451916 11.210134484888144 0.05868003033971185 0.1356722287250502 1.1854266528948876
Ni 4.571916895154808 0.23459244586714686 6.005948593180906 0.13632940269307486 0.2639509931995067 0.5828436327422155
Ni 2.648928654879402 1.523308013249508 4.7972538351893315 0.15072423796216622 0.45694236736100013 0.09751114427429658
Ni 3.282070540134673 4.317688060451807 4.692765991527638 0.6188295639185213 0.3881982679170669 0.007176977364413446
Ni 4.9398196450234915 4.688268991567848 2.600311098666823 -0.17198160467904577 -0.4411884469608531 -0.04170894970301204
Ni 7.131085899743937 6.117651294808969 2.6199628171596494 0.13003842747804056 0.2961905699595028 -0.2826956207968615
Ni 5.104865945933966 4.520273986051694 11.64809466886072 0.5350429683191688 -0.7010192473443992 -0.8782590150985907
Ni 5.6401685499305 7.854104662078087 12.361958920749352 -0.19783456118640766 0.31414561177602673 0.4636169511676983
Ni 1.718815244306713 6.600742890649919 0.5259433975432216 0.6291335169476906 -0.028244596667990066 -0.9879127082726922
Ni 2.786949672293801 1.7093920139919316 0.2820575725732863 -0.1844141740154437 -1.0293653189905239 0.39381947075858625
Ni 0.5409601491635142 9.074706054813813 4.629073070300465 0.5887186034657538 -0.5882059254953934 0.5435726030567348
Ni 8.483531359879109 2.097980783326747 1.3912349027400182 0.5164546637940202 1.640999907822503 0.06302648023386566
Ni 6.8467117454789115 0.6993741190725336 4.807112608111007 -0.5920803208491351 -0.06091303343528864 0.17509855304147262
Ni 0.8415503752707135 7.465678206758262 2.606580928368132 -0.06974451568398957 0.1398232747789463 -0.11362990421303011
Ni 7.601399775626948 4.047958237317121 3.7134921745366776 0.24535908912993226 -1.3718645422085793 0.40881440150552173
Ni 7.632906729425845 3.737108863717934 12.676927463351209 -0.4425603876077152 0.053664322292675315 -0.3522503890675482
Ni 8.134925942903855 9.061630759161721 6.8713636373780025 -0.24001325143698665 -0.49824919652958705 -0.5805525227151938
Ni 6.775573119686268 0.8029854670532721 0.3586129777440051 -0.8946675383636011 -0.8591240940413526 -0.06388805690321255
Ni 1.876007350380658 6.273094016499117 9.319094151485693 0.7261304405897301 0.694478618012404 -0.6339273387919082
Ni 0.005411368910909493 4.89876321667593 1.454189295198981 -0.08563778987547832 -0.9003265364215913 -0.2626474438967348
Ni 6.366154051760883 1.9953081513993758 7.010693987846666 0.18997135638824703 -0.1265440411715369 -0.13985181402403654
Ni 3.256271629196309 4.3020337754504085 0.30865993788585777 0.90785781180163 0.4052652507016827 0.0742665719240592
Ni 5.773229972442383 5.524862477169628 4.805238782982383 0.3365520044956849 0.04684061450262256 0.6445364817663223
Ni 5.393045462106014 2.8709471750518776 9.265879501670746 -0.15565509960488033 -0.23672403916275356 -0.15236948687507307
P 0.30282384730238726 5.449684035892754 12.41575339229563 -0.28478464211540633 -0.7116363607386132 0.5610985277556402
P 4.095326877358794 6.158076501987118 12.508719646126512 -1.0537542893578498 0.19004926081403398 1.082359097578736
P 2.470626709411291 8.573841074331298 1.263958171373526 0.11570375602292331 -0.08678784431952151 0.7017422415533527
P 6.459304261475422 7.8285672570527645 6.071132999856945 -0.5799105182558206 -0.09856246835694639 -0.762628535515764
P 4.680667285199081 1.017717891441687 12.530298392675096 0.6884090147795563 -0.16869650616987078 -0.41819558561010556
P 4.069104146492396 6.055872777214166 8.249149922231451 -0.7408052689930855 0.4018459406074885 -0.16097008405989052
P 4.644489294746542 0.9852280361075644 3.9440998113357844 0.7480637503277117 0.6342196732213465 -1.171887223647556
P 0.17716574736317084 5.537234412090088 3.5920704703887383 0.7636693180754525 0.4617953245779273 -0.41023185067833867
Ni 1.458084831558776 1.1261346360107 2.4630132803636644 0.12426090156431502 0.09500868956741702 0.30423246642737284
Ni 1.849459991484278 6.584547558931883 4.694336830494945 -0.0664956697293887 -0.20907028200122701 0.4106475980595186
Ni 5.99290395684276 5.713516449816083 9.347706505350574 0.7958500165730552 -0.6320625176690275 -0.24078226839252728
Ni 8.461754229534423 2.3861963692799035 10.233513600297764 1.1664154018997073 -0.11057337677489343 -0.014532389288220133
Ni 2.2713321513376186 5.287649561704897 7.0908320240260565 0.5970664612098169 -0.04231573004907552 -0.6003459032920371
Ni 0.6547621120521327 0.04466250471395372 8.809283865288094 -0.4044509823305034 -0.4870908659199224 0.8095516824298639
Ni 1.624059929332814 1.0169423911478388 11.345070634273176 -1.188163077989444 0.7741679036139312 -0.5135696289367414
Ni 4.123894143997289 6.879472124171353 1.473260290215949 0.017954784706207788 0.46648964472980303 -0.01277761138064251
Ni 5.4931210697935215 7.847152211769285 8.203168165273427 0.045567661327469915 -0.059201450060820615 -0.7862819132686459
Ni 5.186681226934936 2.8901543334925326 5.035556058043561 -0.30864293679024263 -0.11130716961712445 -0.5950054649157301
Ni 0.6091789261753663 7.253146039017509 6.752991633222846 0.2785348045509526 0.3846516882163891 0.5034821627937522
Ni 5.193245927096812 4.466493942417859 7.298409105586931 0.4576013411012377 0.10055995840294941 -0.9336647455624049
Ni 8.353256327957913 7.051822555756444 9.309630342667162 -0.5116263891674414 0.39868194105721017 -0.02699426920065674
Ni 4.56097873403344 0.2713935417883479 10.293339840990031 0.1677084312249886 0.07482167309658083 -0.14010275369257807
Ni 8.141670991971278 7.1585440206133235 4.594190886734275 -0.6104724502030777 0.35386941272820993 0.7218798928434923
Ni 7.358280433505584 6.107732105003936 7.0567947750823485 -1.1404372326683907 -0.2219257978076565 -0.08377579696607508
Ni 2.343129050635505 5.303889980649319 2.4341231891842408 -0.11544998814090439 -0.2627767703857474 0.7829505349025677
Ni 2.3644462912710487 5.068146908764789 11.38137757419318 0.19323897139592527 -0.018507057665251996 0.2544934473310327
Ni 1.241828458918497 3.4118225602297856 3.6508281438156445 -1.1650408901496838 -0.2825477823650876 0.25770655495169165
Ni 3.6127943631250354 2.576121801710458 2.623632015642984 -0.04392344085582758 0.2224904120618749 0.2922544681298902
Ni 1.1404272867752252 3.359665656745865 8.133944844857684 -0.8670549188526551 0.5312894148140076 0.642130700538307
Ni 3.634616580696109 2.712429504522169 7.088786867437165 -0.274430809684908 -0.22165763174793437 -0.3473943465268275
Ni 3.997190020405905 6.882420828777031 6.031816036703377 0.3982384257618883 -0.22530037070684422 0.22349622761856994
Ni 0.9118170141050412 7.212801988846856 11.42581554451973 -0.3016888740699127 0.8871920559221624 -0.16044609323562048
P 0.20842652490599695 5.481416425823582 8.005674391021634 0.28611827332516526 0.050130598107803986 0.6601266228950954
P 8.426811629084874 1.8554385577031298 7.997808473506241 0.836106807210573 -0.6543498683123182 0.19107667363728384
P 1.7584920035268459 3.0903055488675486 10.312661520985708 0.19956002851794663 0.02359964169681097 0.4705792414181444
P 3.876419375806987 6.294032524433015 3.8155516201851922 0.6056660299533698 -0.4511620132337972 -0.4863331618182915
P 6.920726936315014 3.9904449713384826 10.447847453604922 -0.156534159775724 0.3948885354530489 0.4359811917283007
P 6.38746227495115 7.778340086858187 10.299687220720724 0.2865934131893709 -0.49317306755826035 -0.7360209602305646
P 2.2629008400033404 8.508031758697541 5.9620778201623 0.4619192517503013 0.017955556037156175 -0.821338904872779
P 6.82037178782391 3.930469942799141 1.5662788452294398 0.1737152995407008 -0.3860359701584255 0.616717402671525
Ni 5.1491776720266325 2.766939961223465 0.5412027184414737 0.24640115724120146 0.6281300153838407 -0.0875198373895396
Ni 1.4654340494597777 1.2811084505464285 6.94737078187586 -0.225389845096857 0.053169899154760045 -0.590740518991789
Ni 6.975048026665487 0.5471190642879121 9.01107986268169 -0.3258718990740195 0.2319063060591361 0.8506998745333995
Ni 2.6406326052242832 1.446776955181038 9.074350767469886 0.7725103134058502 0.47963440964187726 0.36848279176601056
Ni 6.215364331833823 2.094653346019422 2.7140905179422483 0.4495291056160645 -0.20649017997887664 0.1094390060601341
Ni 4.212120828590421 6.821976893083269 10.468317956128928 -0.7059974172852809 0.23366956860714597 -0.6763199448255062
Ni 8.105502018964016 7.060614564901814 0.29474692156750704 0.7114877509758908 0.811665386338757 0.6152007089166825
Ni 7.491368908353298 3.8054610989198907 8.278990452143102 0.7630406833525181 0.9096766101779238 -0.3224441043393931
Ni 3.1451857208252147 8.382247414524443 12.221756583322373 0.07604217576724323 -0.6801195210772545 1.0021152250253194
Ni 0.156131654509334 4.842503375590837 10.208094323805573 -0.5178371459638437 -1.016993170578416 0.2004455164466935
Ni 8.542388225204064 2.2833524058922636 5.645287753614426 0.6050062848821838 1.2509656151379618 0.24998913170277592
Ni 3.7189026417030595 2.648730271083301 11.360089189382524 -0.4439143305324484 -0.16758244717008558 -0.5075383351409969
Ni 1.0312801291387506 3.250347167649122 12.583420162803689 -0.4482682366257699 0.20284178459301194 -0.5988412937220526
Ni 3.081729958408834 8.231728217955702 8.006703281527773 -0.29669270640690193 -0.06985944399529903 0.15938731295380293
Ni 5.714643630475745 7.844744553880245 3.7859482490843344 -0.7407751870860985 -0.06285678742522077 -0.25953538063031434
Ni 3.154482706906114 8.382833548467467 3.5759166189189777 -0.1459918654835034 0.059059268056001514 -0.21209981285617022
Ni 3.45814517661929 4.135806189208607 9.21892115538919 -0.4711538829746918 0.46135463749608285 0.07488929310972264
Ni 7.267817422483682 6.044826406749471 11.554324058911101 0.13526496598430252 -0.45782476996595345 -1.2187640907047526
Ni 0.6178032108385789 0.006974993921993823 0.21796427677580024 -0.39880072602326155 -0.0057772688034094044 0.015616366381018269
Ni 4.605497861367484 0.3799906352629072 1.6016894510888808 -0.14664749678963132 -0.4207828867213076 0.11832602413711879
Ni 6.045565837262209 5.600726244287578 0.4812150654787436 -0.5094178115518969 0.3160119755608041 -0.5404602826799982
Ni 8.120849710825985 8.804958196788572 11.180293954976491 -0.018728429647438715 0.15128808088543622 0.3351936906955776
Ni 0.10196476247310297 4.98662920345797 5.790927610543617 -0.19315798164634476 -1.449829131809516 -0.6563512150130631
Ni 7.956651049771575 8.869378825849624 2.4055360841661355 -0.5359582810445866 -0.7531167393705869 -0.10063014951925249
P 8.445964682853864 1.5499996512703247 3.589747576485305 -0.01885261393012882 1.4682467150847551 -0.7199088851600505
P 1.7577165032329978 3.2702396519308516 1.4553236898148658 -0.173675704552017 -0.3562173441350962 1.1759734779017876
P 4.733509514524076 1.0828148288985369 8.180190812962332 -0.2702090582940766 -0.6928192280321099 -0.05451278633589967
P 8.368910612959311 1.6046092998696713 12.35442213998658 0.8576482808267745 -0.16224200879377865 -0.07613756369452694
P 6.300543119923227 7.733721767626092 1.3460052007181222 -0.25427850310674915 0.470068620330313 0.8396652139857926
P 1.813146739352579 3.388395237399352 5.94797002702596 -0.3150786651132574 -0.9466663000283955 -0.20651640523112175
P 6.9335317086087835 3.9029847695939215 5.904389615745282 -0.0366688161759433 0.851412841440024 0.1591219751075582
P 2.3056796003988658 8.32337251430893 10.125078820838196 0.24690740745365863 0.34670631932086743 -0.09546788859202268
