# total energy = -381165.58469618123 ev
CRYSTAL
PRIMVEC
9.27610155686895 0.00000000000000 0.00000000000000
0.00000000000000 9.27610155686895 0.00000000000000
0.00000000000000 0.00000000000000 13.57651227119971
PRIMCOORD
 96 1
Ni 7.247056158830327 3.6115758229212997 1.03979251357879 2.0388153871143597 0.9849981057290583 -0.9606003936109841
Ni 2.836028823555752 4.493018794451344 6.468284786661313 -0.7914585723735789 -1.036281329384067 0.785372256970183
Ni 6.6053818530770805 2.0909445407799208 12.958794184369307 -1.287840119566808 -0.17250662394458033 1.0315358442792815
Ni 1.665913580322909 2.314739760159796 3.1965083228446214 0.15292690204043985 0.04064245611171065 -0.742689887610308
Ni 6.017620247938765 5.767573661948384 1.2754073412042854 -1.3922356496657635 -0.13250591518192664 0.8334739975734161
Ni 0.9310515611530062 2.2454472836295936 7.560555915597796 -1.643263764156015 0.65294578887594 3.558417830963271
Ni 3.3733191616524576 1.675968874105873 1.3490289741999022 0.017762209079427476 1.596645550076844 1.6455139936427725
Ni 7.55008783530806 4.425006419897201 6.131939847671812 -0.15545995287493872 -1.1146994615826544 0.4500777790306829
Ni 8.721529561023342 2.477785792284477 12.235206338690007 1.7818889048618023 0.9033786929843539 -0.05323109140999864
Ni 4.294760681883738 6.265793061471433 6.397945038297073 1.8649669044299042 0.6232873425795589 -0.03810014930583116
Ni 7.131216206098177 6.61043732827239 6.495356160624598 -1.3331892371255682 0.894457222125008 0.6564653719934243
Ni 3.13558196205506 0.9749646245926286 10.420000401604042 -0.8905105787724341 0.057502465091842904 0.4032374216383765
Ni 1.3595425073858904 5.322756777470097 0.176906382650977 0.9918380114690274 -1.184800075054482 -0.6345798847742425
Ni 1.3997265781126424 6.8701959922985285 7.913939197410681 1.03300497262564 1.030821077600444 0.17812139902819646
Ni 0.6837210176161795 2.7402438017818733 0.6295198302515709 1.330111112420877 0.1309676241605293 -0.2348844148508535
Ni 1.5845157916277917 2.451330351445905 5.6628984247117815 3.561691102397905 2.0612510904100563 -4.1335278425066555
Ni 6.11034415629163 0.9775062763421969 1.4567597591967518 0.46771966048216224 -0.3600086928567283 -0.6141745816450133
Ni 3.8909070606393703 7.941242473905861 11.622634873079445 -1.0711794268128325 0.1130416358097279 0.2648423946655245
Ni 6.687549558178089 0.6553240887805826 8.848029609341639 0.015315290200831689 -0.4723054800806317 0.95916417538509
Ni 7.8614030702250774 3.492275884413276 8.499426302516172 1.1437722105788948 0.3456205424558564 -1.945210519873005
Ni 2.7241219377645387 0.6350595179334768 5.084593804824141 0.378862849448754 -1.6363361837982464 -3.176437518931458
Ni 7.013901353263173 1.6923040884525509 3.908705116157242 0.5672534916134424 -0.41218048976427724 2.009121459594353
Ni 7.052953739634279 7.803371780643693 0.7141336432590071 0.5648595374599692 -0.8114720393810282 -0.5918193538782647
Ni 3.3528097017316703 8.110920918442737 7.196637765565988 -0.5459997244409888 -1.220228333955105 -0.29128593356903376
P 2.5514844169206836 3.886946165394605 8.577056138873061 -0.6037940097416375 0.4451124646056076 0.24195057766901554
Ni 7.575884672956051 5.7809869043931865 10.971586139376878 0.2672468903419591 0.14125383657788576 -0.5263724371283643
P 2.5455013315977943 3.825065293783764 1.4613894613435021 0.11271973369393491 0.1791920063845559 0.7410356398363367
Ni 8.341877288007527 5.548991611485508 13.285988249450234 -1.6463172062703584 -1.1169232087068506 -0.26666273570371496
P 1.631619833906288 1.9617377261093465 12.010502061385106 0.7134081079270552 0.6718536815240365 0.32479049308438257
P 4.909756920367793 0.20049643580545598 12.693468004357435 0.23925966110041372 2.1457012877353367 -0.2617904952130782
P 6.23415228001969 9.160808613039977 4.652589071427985 -2.0996016651637968 -0.7779481965919699 0.20502336562536302
Ni 8.698265099023642 8.141634089766901 9.939731185659786 -0.6629106133981357 -0.03808755090034086 1.234060611852507
Ni 8.313455313698485 0.33971494658299795 0.11677591135087904 0.7779499963641827 0.961409776886157 0.16562043834770832
Ni 4.244864533121227 2.228110250345129 6.010199366918127 0.967911839670733 -0.2493921215487253 -0.433054504999809
Ni 4.850742364051174 3.776319381579452 1.0653407517125897 -1.0873125849292693 -0.9803084135628729 0.4387132459474831
Ni 9.268606185966012 0.7631708250433795 4.133016086768051 2.0798221685440246 1.2716552822768294 0.5254974907225789
Ni 5.308276783378578 3.976887243364731 12.258096973808291 1.6110645537156512 2.2975899783192495 -0.7988846896343209
Ni 3.644441049741448 5.743400142023657 8.611283097360495 -0.400613096641652 -0.014576612262594251 0.0499688757189591
Ni 8.572787277065938 6.326059891460285 8.337783744514518 -4.017860853258939 1.2201311462556084 -0.44845361316369864
Ni 1.0434964608182158 0.0649642476749157 6.6237633753652 -1.6136685669974014 -1.5386252648083178 -3.14526932085877
Ni 3.797255542158925 5.81805420509127 2.457633462262809 -0.4070082015347184 0.025921347851452132 -0.06292954964468517
Ni 8.693450802461504 2.18341799439834 2.4695133651667214 -0.5811400197875476 0.14548690082262686 -1.249020575596449
Ni 5.645954698121411 8.164731581943634 2.817655649758781 -0.9074772885337596 -0.5164268958798783 -0.0575896254890105
Ni 5.855177162397009 7.08347211283165 8.683672864106686 1.2366646251342572 -1.1930944538527903 -0.9352667999422022
Ni 4.8831808902126355 7.939480014663459 0.5389980683415797 -1.6803470421615578 -0.05221062056528428 0.2803183788139366
Ni 7.882877244678547 6.154850890212903 2.3043681513233274 -0.34122447027068975 -0.44933267333454224 0.919520849961855
Ni 2.665923678360189 7.757399422720843 1.3464233173515308 -0.5194047475612797 -1.4479612253628418 0.7894783087187565
Ni 1.407138183032004 4.649942599734 4.4517920899411925 -0.2054529969636139 0.4413059463753239 0.005521958259493716
Ni 2.2572372083511314 6.142337429591852 10.966603945381648 -0.964454477249752 2.379131486638167 -1.4493341944509683
Ni 5.3685992699750855 1.792708608661776 11.023421920916158 0.38306120380081776 -2.4405659397945643 -0.6599093646779667
Ni 2.714734523273432 4.2391782830391636 11.953440124387042 2.601125675789914 -1.9086324636386547 0.19760881832884675
Ni 8.525247258027479 6.369388560519532 4.803233883757053 -0.1319515853403534 -1.6085099056145975 0.1492437967618978
Ni 3.8238130201115315 7.738309206295253 4.532966324595563 -0.03945794888530624 0.5559732907139329 -0.6790977646809595
Ni 0.8970889715519312 0.26192834411454824 1.9554522398848666 0.050773631008441594 -0.21329280472300682 -0.5919332537483096
Ni 0.4519279437163125 4.789854035276844 7.197180417490624 0.8153675177806925 -1.1665483279331457 -1.3655640539118483
Ni 0.4805298743901046 7.056497210321633 3.171812558418067 2.328387166205764 1.3010725590966818 -0.7547329348177712
P 3.55739411536937 5.422289344159397 4.55425404941339 -1.0286690642544476 1.9779427199987032 0.09502360196575248
Ni 8.031981296585705 4.001032934985631 3.960689315316935 -0.0010973468292368197 0.20182105663798144 -0.9353696440686535
P 2.506430393024138 7.951826505461546 9.58382294907963 -0.17798538767096445 -0.4275148061285024 0.24462066830201099
Ni 2.941451714555183 0.9183117636608269 7.222011612995804 1.075689398868044 2.3067924707541243 3.5190735248376943
P 8.632163601332314 1.5338961069657682 9.284365354423462 -0.1189088932237823 -0.5922582411878962 0.6352185467995061
P 7.7608408562941635 7.889565313698397 12.268211634639421 1.0947191618059855 -0.46036964787499424 -0.8043025182157825
P 2.8649517073336863 9.282872829728188 2.8869638956611525 -0.2755250711903513 0.12023095446931552 0.5908988989465243
Ni 3.931517832024809 2.451033516205079 12.702347088498627 -1.8400575427827344 -2.80729112543952 0.7443747315118986
Ni 6.6744238748728355 1.714585283717015 6.728940449680822 0.9160375193989448 0.27242997720479534 -1.0717507259352703
Ni 3.6325398118046004 3.517274977351549 3.7260874379507567 0.3371631557171225 -1.0926177991922665 -1.1190338272919502
Ni 5.58610529268997 3.728185692059342 7.588808137253491 -0.11041139727573243 0.0060935144922475695 1.513731844000748
Ni 5.922456724950364 6.327831626803962 12.7081177511023 0.1451323456966855 0.2906292738216414 -1.4715724370238783
Ni 1.05518434842572 9.153693843361442 11.845370761693625 -1.3119506394617662 -0.9876625399350989 -1.0385158751415404
Ni 5.6566036623860265 6.035003661729607 3.9988391370339045 1.2050115170053504 0.04702187727549321 0.15654418707805295
Ni 1.1667016379633495 0.2028061850231294 8.764833184609143 -0.11732586500737859 -0.38702430221362377 2.5868707085327967
Ni 5.754086210693376 8.633239629080306 6.77408166892936 -0.15278034916024655 0.0979762568361732 -0.383565654241062
Ni 7.904926537411116 8.525395675647893 2.6007980265230746 1.6526223225527799 1.396771075642272 1.303374210646665
Ni 3.6968788502535275 5.603961787645879 0.13158706225794387 0.4454893883290521 1.1773310203709466 -1.0828141828382836
Ni 4.514585729917572 3.494836088365396 9.920533366459397 -0.9821752915682826 1.0223855452385813 -1.371975870975463
Ni 0.18520571046243248 7.185657644485829 0.6504550632209168 0.28835384752390336 2.7872434627600255 0.9580591152463694
Ni 6.172948563801982 8.189044243387498 10.790381211394697 -0.0534915441602369 -0.5099508012372315 0.40897483834278603
Ni 1.594218593562275 7.090892993852288 5.407307512988858 0.051464486427879104 -0.22324554506034458 0.26431454718651254
Ni 7.1865110458032015 3.2296138006878126 10.58156040230434 -0.43386980181225276 0.4145140229934603 1.3579834133511128
Ni 0.45333234544946815 5.102801864018402 9.560932313961347 1.6345004161410883 -1.5647469015960342 0.05732120231897225
Ni 8.353704317134168 8.559318378013481 7.6376161993363505 -0.5774689986938635 0.2050691312616339 0.0050365339826429385
Ni 0.47624802604119676 4.8273573127348905 2.1825460408784148 -0.18110722112939778 -1.2417158144049194 0.780249848141953
Ni 4.476433125370219 8.685093035212011 9.213618385213216 -0.32095980648438277 1.3705239690202848 -0.2830208653467642
Ni 5.090677999650936 4.230801963587118 5.483159120731177 1.8645701832121178 0.15444385290559853 -0.9991952231650469
Ni 4.494809081997573 5.820642237347218 10.764327425741365 1.9720566935315715 -0.4940750105472394 0.34002556486658214
Ni 4.628366388166496 1.1892611162660873 3.3148277774477926 0.487443878383967 -0.09139834650833936 1.6770763418300858
Ni 2.626286897608709 0.2914606677463027 13.472909111038561 0.37963443750745585 -0.6031216662649613 -1.7946575173813804
Ni 0.6782416245925663 4.54215430290924 11.637459938138425 -3.4111805231084413 -1.02411101257012 0.7515026008059316
P 6.110167910367389 2.9367580073096295 2.5914848208421746 -1.2356935194702396 0.30576330124960244 0.754154950827114
Ni 7.544670592162994 0.7381299896493659 11.400183760774434 1.1095518559434439 -0.9610991876242737 -1.6428444172304093
P 6.417939674597053 5.119229839377838 9.202730097535685 -0.36654932218872355 -1.0667195912692662 0.396092325953163
Ni 1.3385785185025894 2.512422754448303 9.763765399678174 -0.1919534198152823 0.6734431374983434 2.171745791428215
P 8.920668903212148 2.328542598858182 5.830744839246688 -4.3680502460324 0.25944179247524346 -0.9015956329420021
P 4.775874950654218 1.5496654791346227 8.428461344925942 -0.4198866001592833 0.8886598987169406 -0.013878043533672873
P 1.9911986237612773 7.192661100949055 12.85303271567331 0.296089011384632 1.0335114799484137 0.07886704681054804
Ni 8.141532052652867 8.66395280040447 5.236705168764913 -0.35284868477317943 -1.8277069916371813 1.5816673315004566
