# total energy = -381177.18803788803 ev
CRYSTAL
PRIMVEC
9.14637937091223 0.00000000000000 0.00000000000000
0.00000000000000 9.14637937091223 0.00000000000000
0.00000000000000 0.00000000000000 13.38665073952588
PRIMCOORD
 96 1
Ni 7.158029614437396 1.179974394024299 6.513408349927957 -0.15149016959391332 1.632750523329517 -1.1019850993397795
Ni 4.72041891971753 3.8709032099510248 2.043419124833046 -0.3992676383573511 -0.19305693729210624 -1.0925998014701377
Ni 6.589554701548533 8.72700866664515 11.04762802368604 -0.08749978278488156 -0.41194009161869694 0.5607200613702988
Ni 1.9438891398835614 6.292791278647111 4.943609782134555 0.8639107167967185 0.5878125467117167 -0.8756249199098532
Ni 3.4388739835209976 5.199780659046369 0.1708607678664423 -0.007136353934465128 1.0371246512209686 -0.5959207776411479
Ni 6.338212198271363 8.982174356471441 1.9468745180884257 -0.3111986133325608 0.37274182415268065 -0.5519819101663526
Ni 2.330835862723589 8.006758735583748 8.663251085792002 0.9312921315651702 -1.9235649165787712 1.9253783156384259
Ni 1.0578427911764074 2.14063690509445 11.985215134409831 -1.509287177965833 1.7548761237183843 0.28858010460209654
Ni 1.0803977625403633 0.7237392747659231 8.128909545828177 0.23989112403682555 0.9621582250164075 1.4329061308019322
Ni 3.1686899388773444 1.9754990267585943 8.696892383510479 -0.5720581120909374 -0.6568538656810945 -0.9195640444949648
Ni 8.988613407501541 8.102054861553356 5.023247306735513 0.2908115650357766 -0.03340660048490376 0.041570367242618735
Ni 8.673804178233093 7.857444093444017 7.580029835960458 0.9212332046672714 1.2968340955353022 -0.4368908480267637
Ni 8.81222548262162 6.24275143747428 3.324842414184834 0.27923954392746103 0.8169952831921027 -0.965870126650356
Ni 7.186913880279802 3.895452092003278 6.873121728389973 0.2411774469484169 0.9763427440469056 -1.1062122500472495
Ni 5.5225929702059195 6.104567938947661 6.084112061634001 0.36446775706934653 -0.11356819773715925 0.11030135406042939
Ni 5.282198682955779 7.264850178330193 13.207081774922852 0.6890695311816908 -0.36478168876533956 0.2506722738127296
Ni 5.246225973152682 7.534101292284828 8.106648173239885 1.8070011265483976 1.6788444894741024 -2.9984644725556686
Ni 6.6622318314990565 4.395018183214915 9.802950313188548 0.7017540686278947 -0.4941099775502329 -0.39965047561806655
Ni 6.122814965659378 2.2475672255388965 3.3114292489353443 -0.039005434728919916 0.4906778119402323 0.2557759135878821
Ni 0.38132444348178635 4.567756702752492 4.71080241651718 0.819633492145898 -1.9294576279141222 -0.22873536453032223
Ni 8.66993525978745 2.1639052940441266 4.83697214582784 0.8137513223335082 2.080775790706545 1.6289604601594658
Ni 1.8160776354878128 8.368315109475542 6.661344632706557 -1.56244730692858 -0.896696910088804 -2.3718640064424767
Ni 5.345025162395768 2.846371532200216 5.45223536204692 0.9419444690726939 0.2282337423035553 1.2011998565687443
Ni 6.661628170464985 8.258284166447 6.2498252472280855 -0.22606578811795905 -1.9158693477067263 -0.23930825495016203
P 8.0821614865669 2.7257490819375043 10.648250456733784 0.9476582316280195 0.33055490637198554 -1.2030587641543538
Ni 4.8288949782643735 5.3384672084347145 8.57998610715903 1.6438764580393497 -0.45182612918035736 -0.6124190324064872
P 3.624801582015114 1.5776406734087534 10.854458322058921 -0.35809219256030583 1.8414222843407446 0.848943553963925
Ni 9.197050245463092 8.52561454074777 2.4990597294366546 -1.3237903124091717 -0.5161175921695756 0.8892139714481976
P 4.709928022655707 0.26323919883803687 7.000629572992826 0.7717736923501418 0.43146736301834726 0.5270908033516277
P 4.486747221255917 6.696027703027774 4.026195925603927 -1.765227127935405 2.3519713812836076 1.492047674159095
P -0.05466059199727165 4.395768186317852 8.29614926212812 0.44158696795085234 0.5519394869641915 -0.015924384539740318
Ni 4.527430316400634 6.55048136916134 1.9270351067398628 -1.364417856122547 0.006161905836337775 0.024342433400106465
Ni 0.13552647533877257 6.766720068669303 1.0413893694462293 1.3860968837578773 0.6666489973946454 0.4938353837326076
Ni 7.185048018901762 4.350182631866127 2.15545129565333 0.6194633408477783 -1.8176467791877018 1.1711382612966732
Ni 3.3499254447884477 5.880097498065991 6.957042502419049 -1.6752583147847404 0.2814038985686315 -1.0511510474070478
Ni 2.4376472802370825 3.2340774045224854 0.567954483906459 -1.3644715921786177 -0.4326631830986613 0.4576154821686248
Ni 7.073169507253787 0.05590449958263173 8.633653402363874 -1.2389580491541243 1.2746205355527402 0.13077196320995543
Ni 8.540614602806523 3.294278873102192 0.4054187504826251 0.641210759827199 -1.8095190078742451 -0.6394827213924986
Ni 2.758538851742768 1.0814221570224245 12.756246678005628 1.533076824186263 -1.1837788328788195 0.747518419347203
Ni 0.6965983088188824 6.0540616324303205 6.839560918809371 0.29022509640468724 -0.7443922150133954 0.6550368670770139
Ni 3.3328034227311383 3.852518987549747 5.16104940124515 -1.1093834486863796 1.9426080492531514 0.3954852884967834
Ni 7.442847865967639 5.996649809538369 8.147423646815573 -0.7442770295917698 -0.7737045908242675 -0.655907185497109
Ni 1.0600287758300917 2.6945873676483734 9.800527437310885 -0.2769846864550133 0.4442051222999898 -1.4518024534858032
Ni 7.186785830969544 6.353642140157411 11.40398102239172 -1.2468608489409687 -0.46082807556865146 -0.6821355230660189
Ni 7.520345137811433 8.139628187734674 13.250107257807354 0.09576587944841572 -0.01643706251010072 0.18165460899243555
Ni 4.835407200328905 5.730590781960874 11.304076035890768 -0.41932995632486486 -0.5405345875613593 -0.33221815300702146
Ni 3.9537053817912073 8.196600984420026 11.624739862551781 -0.2932785385190304 0.18387269968967687 0.10042317571476898
Ni 8.842134142946087 0.5281595021921707 10.231805746000044 -0.6112527800125279 0.1110487737494152 0.3571180015724946
Ni 1.5844638723696256 0.6838720366551323 1.602756630977862 1.0908699632632246 1.1285425381133338 -0.03811814702796016
Ni 5.23773813315846 0.5081892976195589 4.869514963391893 0.4071961491758084 0.4029119199781577 -0.42488688158735216
Ni 4.349505799797622 3.599484404101315 9.787931043733252 -0.07702022340979639 -0.8457271039091564 2.218808549243972
Ni 6.7689792243574205 6.452907794745006 1.8980932187078412 0.9524101444907082 1.9279625314258344 -0.8935110561616547
Ni 1.6636989562812021 0.5722130381104564 4.358546081101813 0.6256861818290386 0.23533692900723988 -1.2808485187403231
Ni 7.6936781720037795 1.5561375356647713 12.327485452900962 -0.6506991589336084 -1.65126349453204 1.111879475635356
Ni 1.9695630265902215 0.1676814864203308 10.53935000618723 0.2786523039654233 0.27249656877667267 0.14139936101681452
Ni 0.646759687990742 4.397963317350841 2.035467262666046 -0.33177386638075124 0.26352804672947516 0.7475374455105964
P 4.093910230144036 7.05560845898988 9.5897015650751 -2.25451474439633 -0.23155020827129796 3.816371726039079
Ni 2.2769545422430286 7.130837428766252 2.6286026434346725 -1.8919262066275675 -0.5509794370437673 -0.5129523070677167
P 1.4077466778347563 2.6048796794335813 3.2080705896091555 1.2108705468892886 0.5190723039225253 0.17937018383363304
Ni 6.2252269747275895 2.321094968764703 1.0252286318537827 1.305000176285862 0.4128255795474438 -1.219552390934003
P 0.49885816145349743 0.8104606701379204 6.092893500403885 -0.8065602039017077 -0.09091215090054021 1.3667256783201172
P 8.506059581795565 0.7035504717279427 0.8062149208649487 -0.973118066462021 0.7977708877448518 1.6575830089921644
P 7.8843984732532535 7.485945605248644 9.637116395387647 0.43083872829541286 0.4002737110243622 1.375304935348696
Ni 9.333788616059659 4.6024672122116215 11.062152474020978 -1.1803577230124123 -0.10991183193149458 1.09275638165266
Ni 7.881444192738024 6.064561675871448 5.3846061188343395 -1.2589010679349546 -0.416220978382238 1.5979516704827772
Ni 3.1934857731708086 1.6585678374915918 6.163977331079631 -0.08309933972434076 -0.749721854756425 0.1926404185799779
Ni 3.915784493196333 1.6063145725271641 1.4909247658643383 0.31678742027424794 0.3832555791998109 -0.2315332389904335
Ni 1.4831860143351239 3.6932530847271354 6.865115902585079 -0.060844642091198435 -0.9107335906875282 -0.29550151431227817
Ni 8.601511196213343 2.291753383957092 7.89371954840208 -0.047183085443705836 0.4425146219714443 0.7772221170592227
Ni 3.6304266052871466 7.9626000163034645 5.659447499819651 2.2231097477224875 -0.48865049709755853 -0.9131164890974081
Ni 4.425237820435721 2.9773385374558856 12.434699311103836 0.179985963040761 0.5405245602590303 0.06398421616144465
Ni 3.629310747012045 2.217978688490074 3.5386134205565467 -0.9683041900131454 -0.30799090502854054 1.901446744523493
Ni 5.98714672144139 1.8965566269847496 10.647728198475518 0.3092386613927126 0.6324181012362334 0.21587753473104757
Ni 2.7168862403918137 4.758943469346477 3.0189975512723533 0.5611476358260207 -0.04930553110334734 0.18587995992769277
Ni 7.593900320175153 0.4974404726613591 3.84175461374673 -1.1906627044828462 -1.2609705488694736 1.1196277521222073
Ni 0.6401221605297434 6.296413244851543 9.425125274428517 -1.180667026722715 0.43546568554446297 -0.9090585169779505
Ni 2.479080378484738 4.437393358530894 11.399214844136344 0.404362022161123 -1.164901279248026 0.4842078879451725
Ni 5.432482841301746 4.9630174843799635 3.9567858823408346 1.1663907193093588 -2.161932404882218 -0.09623356311345362
Ni 6.821854443114529 3.8701074749515665 12.025576277003042 -1.0315294165213782 0.34323070206744116 1.1247491325091725
Ni 7.9106302890974645 5.421159623723248 0.08618816145856734 -1.5453864947915514 0.17664918535804416 -1.2212004680603872
Ni 3.7959303387951673 8.687642650120225 3.230480133542176 0.753083057919174 1.0060140458590932 -0.4796778612853029
Ni 6.017924287799749 2.472174862110129 8.234971874876663 -1.2839428413949305 -0.6781737102047933 0.044374412350317124
Ni 2.179719383860947 7.399173904790476 0.019571422434952288 1.0244403708850809 0.16081813186305852 0.09030871298858639
Ni 0.12029866843534605 7.165346717880691 11.731993964823593 0.53438142347577 -0.21265697091122088 -0.35074886482135725
Ni 6.620899343423747 7.563168485713316 3.897443258777785 -0.6509709245377563 -0.6773303883678915 0.6601991280042436
Ni 2.3630219714947813 4.759254446242816 8.840825296067667 -0.14755149666113945 -0.22439457106312324 0.8406682013290103
Ni 2.31204919963293 6.653204355125892 10.968258487998693 0.8297919207361387 0.2158610796708153 -0.38938226092283906
Ni 0.6657091566330142 9.136684142055913 12.762658289897812 -0.2555190603820696 -0.37452179887123893 -0.6087397837826871
P 0.9774003851966873 5.004670095730918 13.335754868249047 0.90542246288726 -0.22855461597808382 -1.1124003811358325
Ni 5.161429890624201 0.7250398899029686 13.176400245547185 1.7287128350594547 -1.285623314421147 -2.093957579504142
P 7.3566066555091085 3.9544187993769286 4.538811156168749 -0.4411593934951305 0.07802449630459465 0.28143243781372174
Ni 4.646443003905822 0.2382320831826471 9.743741226763337 0.66135561020619 -1.574352028785966 -2.588531641174987
P 3.7734302457070363 8.718109239582242 0.939919437446341 -0.45327366026016125 -1.6827767346489728 0.22166354528520532
P 5.544919282087272 4.950468651974713 0.3352431552717776 1.0776719765157117 0.23491398253720833 -0.3669637840183228
P 3.827778031532107 3.642883973899356 7.3329129599217895 0.00844118878881772 -0.07521890853499949 -0.058447088393299346
Ni 8.556639059347338 2.0962220871936514 2.629780697089043 0.16024580429935625 0.34062540323411017 -3.064137903494078
