# total energy = -381163.3411813922 ev
CRYSTAL
PRIMVEC
9.27833223151321 0.00000000000000 0.00000000000000
0.00000000000000 9.27833223151321 0.00000000000000
0.00000000000000 0.00000000000000 13.57977708901923
PRIMCOORD
 96 1
Ni 5.8800874168337645 0.4393373842841177 5.79822561889961 1.449560708639478 1.1040730922170598 -1.6738223536691623
Ni 2.3891334505494757 6.427258506789547 9.668883272193607 -0.7502720708329401 0.5181150822155787 0.9511760149732907
Ni 4.120572316941529 4.751962829065569 9.148695428194607 -2.0969937952273043 0.28458255340692923 -0.8184083614895454
Ni 1.0818535446533883 0.6382351378520915 4.809862406035556 0.3968582575849101 -1.908442973335668 -0.6030445331701227
Ni 1.5595392041125227 2.5100301202478774 12.455629446732978 0.5498610071686079 0.05680955278987635 2.618727448032077
Ni 1.311844845381246 2.8289635142780285 3.9739858008071387 -2.916382004131616 -1.7612889692232636 1.6900861238261926
Ni 2.7531966528231435 4.011941602526419 3.2942913629642305 3.277041700308782 -1.1609356097320587 -2.716432710595051
Ni 3.5771032815682227 2.381107693121301 1.7211009485579813 -0.24439852498887585 0.35054240523750596 -0.5969103952479268
Ni 3.584479555736314 7.7485579727711515 10.872118743324002 -0.7137595777292031 1.8102286323467596 0.027777941444216678
Ni 5.4917149839684 3.2083359648250926 11.816334723333721 0.31612613254116523 -0.22217468059366896 0.47001128472981635
Ni 6.1626033566378045 7.963806003495113 3.8663116824508084 -0.46759290509631085 0.32295292565501155 0.9438231741526454
Ni 4.800618403578111 1.983382701310734 8.888724908014524 -0.5103516362200758 0.18161989909975818 0.0015897130846230685
Ni 6.374576136064487 4.775112268121403 2.190825798914949 1.7993754916823397 1.4829850497361943 0.6530792291300107
Ni 5.950908927179728 5.407439891806421 13.05399559074823 -0.2583696424569873 0.50049042715528 0.931595521738202
Ni 0.6951011086053176 0.2742851312323242 10.261598911846132 -0.8980032876050534 0.9197751320645063 0.420737635305669
Ni 8.459881317546898 3.740457599811512 8.766275973324522 0.5297686072941069 0.0368567638170333 -0.5832128431561763
Ni 2.3530592946179802 8.971507116511539 8.898664785393487 1.398972968389597 -0.719971877187502 -0.7757457896240124
Ni 5.753920654396399 0.7759014653258496 1.0420578496416144 -1.4931126250884994 -0.030242343824309206 0.6083952559590747
Ni 5.21999902294632 7.824556792533209 6.790974699435684 -0.9158284887119325 0.31073118677783906 -1.0021216527832224
Ni 5.1581125465926485 4.69373201563294 4.362693181468061 -0.5051515800763752 1.4272615309216452 -2.5485553578923654
Ni 1.0849432293049284 6.713235264536603 5.7475594297804955 0.03189299205385475 -0.002824613932988684 -0.3989341662773323
Ni 5.1169631429002145 8.977250404197134 8.953730759683053 -1.6193270508347597 0.037532963948451493 0.6574675880056935
Ni 7.002162531950896 1.2502831106576162 7.978906489292054 0.7347582914680572 0.4943362346284261 -0.3912478533766682
Ni 8.76048072697812 3.8492553242077867 2.383752945656298 0.4011296312667543 -0.17233770246688385 0.33095934089925577
P 7.622799456954411 8.184194230306021 6.110913767467444 0.028304760481964158 0.04757929244086 -0.3479962417768846
Ni 8.833120790452316 1.6586132362721184 3.228673141364765 -1.508691710473679 -0.928354389093085 -0.9650576580513897
P 1.2863758232536853 7.982269884746059 3.6028645711628204 0.11480001326173132 0.2502889223313819 0.13370842013046005
Ni 5.283852505744815 2.9661343788076655 2.9229112678491083 0.8307064621306081 -1.6196864910567075 0.43719629508232444
P 4.175036127465675 0.6737052743517093 7.013587870328993 -0.546344252264601 1.1545926982331665 1.2143417932673408
P 7.421905006278294 5.8344936919759025 10.445835972567561 0.22910920292997317 -1.0860517159389746 0.32177844573093617
P 6.940842033866725 1.7636439577599088 12.207051790767988 1.1461088291318713 -1.446448131152425 1.5546434946134453
Ni 3.1402051708423326 6.580081917887197 12.976033475874262 0.566472904693676 0.5415185487411834 0.528082992061568
Ni 9.040936877014467 0.4564948763490666 12.509826969120489 0.40380820654018196 -0.17338799810826913 -0.010819973433639432
Ni 7.238407428640128 2.2858377771993372 10.185675246575597 0.07229864956441097 -0.9637106571051919 -0.19087432781849065
Ni 7.716668344701051 4.116025934120945 11.955486511806612 0.36391059901429584 0.12317795291278141 -0.05065561737333857
Ni 0.4883705869207366 3.9516417209938086 6.422012537714529 1.5627301282763215 -0.4022873990202814 -0.6994339051351502
Ni 3.628217614136795 2.428538527771971 10.836852730134694 -0.3020305736800476 -0.16610097752855266 0.5545437573562578
Ni 1.441017787479569 5.168680567067436 1.5086456958523786 -0.17364819374819127 -1.498170242117065 -0.03433322606423119
Ni 2.210237925725617 0.31931473348714257 12.43717484381432 0.41005418744989375 -0.02030580143688761 -1.4484116826366993
Ni 4.9833087663073155 0.3381590263618513 11.563695941326753 0.7120989021973284 4.010226990862765 -1.9277002789033835
Ni 0.19797641517188397 8.881191830030783 7.658152686467213 -0.5265040776102222 -1.643349639001602 -0.9856974457889282
Ni 5.107833263929898 2.73442658660673 5.319551817051921 0.8824769098346802 -0.828491199646844 0.5446455244059394
Ni 3.7920544056590035 1.960530168888081 13.131033583726419 0.8397068658570054 -0.4390986543113599 0.1882785420668564
Ni 2.189955491346437 2.0838670399779393 9.245641938760816 -1.2915147402049176 0.10581812147809518 -1.013551748997035
Ni 6.636429229865585 7.183405474843343 1.2324640735006107 1.1912445451282452 -0.5741214223778692 0.06776733735296071
Ni 4.192748463801381 5.036102477019818 11.567960262845814 -0.4062705520377454 1.0802363948087783 -1.5094453008102522
Ni 4.473009768859702 0.4523391113177609 3.281851902867174 0.797605308701265 0.1691410499064571 -0.45816955489988187
Ni 0.3380142843781755 2.823823318191082 10.771940589622263 -1.353379338920198 -0.11336482347710154 -1.9745493780464383
Ni 3.169088619251475 1.7659913758284964 4.853534588276801 -0.4063011481653648 -0.5266331469889188 0.5007827615847182
Ni 7.968899807920625 6.785392854731881 12.431308154309306 -0.33428120618363716 -1.1759356826853167 -2.370971319424878
Ni 4.198946389769035 5.22834024367225 1.9950047403333138 -0.4391122811581147 -0.4784067078823632 -0.9397420621047363
Ni 4.711722701937253 7.390766923123433 2.2743270781642 -1.157373089191781 1.0069031333322658 0.1057150202413276
Ni 3.155403079128287 6.029895369938169 7.399267731164698 0.8762255296083297 1.6225262744983475 -0.9346890730618613
Ni 2.8871015443877894 4.9033109853296 5.336363227322567 0.13997496986546215 -2.395079525326991 3.676135789202746
Ni 8.411800999636144 8.389625785470436 3.7640969348120947 0.5318697127975098 0.6755992646093978 0.5161559016066788
Ni 2.6575556036097034 6.096356064109286 3.6195405177820787 -0.8481377702331779 4.416630211823632 -0.9753325576148365
P 9.281950836499169 1.5858247194813309 8.342993815229669 -1.4393570286335986 1.0534742962235855 2.537546922597004
Ni 1.0582123539863486 2.4155210275734404 1.2929615835109323 1.4441469938230742 0.6563036496045794 0.5474824796341022
P 4.884828547414082 7.968769911268609 12.526773843042525 0.2940483268055194 -3.538334944170468 3.4228070516037756
Ni 6.981991437559159 8.722430286269512 13.086559753575587 -1.5485823760210298 0.4608823258453546 -0.38605551054245124
P 1.2030471209849711 9.005911172631391 0.6654772492796801 1.6691917968756866 2.0799995746621533 0.39887631645620336
P 6.569384000760393 1.3306705815913806 3.706369006989415 0.2760709163914923 -0.3205371171246673 0.36798219798050824
P 0.6779853690356596 4.867543014363574 4.2548158676346475 -0.7102628774298542 0.687970384580241 0.08685212189855364
Ni 5.61486628841252 3.5493146763689354 7.432225295281021 0.7638572657165426 0.05172545339874962 -0.3943102943520757
Ni 2.1867544667074545 0.8561544004414541 2.483849450033911 -1.0693619139881196 -2.296856699697651 1.148021729883868
Ni 0.16651915738635356 5.231003125038592 10.625198197505453 1.5208121478862968 -0.42538927514506736 -0.5749120365999647
Ni 8.269415712361265 1.4029023984449538 5.475515943628688 -0.953777200041564 -0.09051208724864412 1.0922791849059252
Ni 8.540472911790975 2.508387855433095 13.683254869945966 -1.7511181993378486 0.6338018689576375 -0.9298744252820373
Ni 5.633692024622654 7.0112460192597785 10.422560348192627 1.4422281795338063 -0.15452329999328224 1.2315105917371436
Ni 1.7476852262264282 4.6630856840892845 8.53141354814604 -1.7711568631562786 -2.583422859193512 -0.35058637110156393
Ni 1.4392549043450567 1.605132928970385 6.9196429002576005 0.3737360697451499 -0.4952615746561729 -1.356867811689431
Ni 9.107805817806206 7.57354079084322 0.5481685106766253 -0.34939312212441115 -1.2805914084241945 1.2195166526000611
Ni 0.940804337227824 5.4723325478210505 12.839706011749504 0.15314750269167818 -0.6888371034559104 -0.02202844055494916
Ni 7.96588434992738 0.4583793056365375 1.3683387550097668 1.2873801492112538 -0.44677365435811445 0.6923240335632463
Ni 7.411253480812924 5.942975953074423 4.324235421972059 -0.628220261104802 0.9098941255053684 0.4183477949172537
Ni 8.88689800438723 6.2599052273306 2.62945246294589 0.7629442669839699 0.35563884592380685 0.24575015392076385
Ni 1.398986942219879 7.559586179083711 11.647225055572864 -1.4957585473517787 -0.22385901027462735 0.04816010464499448
Ni 5.652304359190191 5.572185959892746 6.215410057015508 0.9506949615718143 0.45824000312650115 2.5558629472973724
Ni 8.308616666273448 5.801258705724201 6.620019571382961 -0.6534762074581133 1.4614461472231541 0.7047566028996443
Ni 7.155626147976342 8.199856055206322 8.478791486580844 1.2410804948137657 -1.0550974336493055 -0.9154903886462233
Ni 8.932408224254512 7.416978211833946 9.90549651867463 0.24060229117123724 0.2072013471132883 -0.38585419316492253
Ni 3.3811449036687407 4.286051373278521 0.06550595377879405 -0.5253604509240823 -0.7513863869430414 -0.19873033352779967
Ni 8.095613991962917 5.099640496520559 0.666452402003034 0.3660908944950663 0.48263077326603976 -1.4826559485315498
Ni 7.849487671388129 3.740791619773841 4.5667840176170165 -0.27062763388873395 -1.0911779814219467 0.3247665818249826
Ni 2.6992802639039253 8.583283136962764 6.2524825615010755 0.09272400729829838 -0.2642885790445835 -0.16816480203611683
Ni 7.379233956090808 9.152119132808476 10.778758308186683 -0.10167530295431522 -0.14177139964425262 -0.48691654512558724
Ni 3.1135763571789092 3.0176755146614354 7.239650725166575 1.4380254543063686 1.1205348373175088 -0.5488441358683193
Ni 3.486936448404058 8.889551607421287 0.6357735962963751 1.7675148955283173 0.7512647737635125 0.28020525027484
P 4.113298104428594 6.779194928764227 5.139198666225788 0.2703098455379989 0.18854593679563011 0.28367006889498886
Ni 2.472016792868419 7.117288078966841 1.5740867013051643 -1.5409307730130428 1.3053071660033198 0.24431470702581792
P 5.52579429845821 6.616768443749629 8.410078013330466 -1.074871530952439 -1.83676575940534 -0.5141671533114242
Ni 6.041855140255993 4.128338281065671 9.60278999998105 2.830843201727847 0.8212062359496566 1.4781313211883187
P 0.893469069399709 6.693435303436343 8.130701861172316 -0.09846270955428849 0.17593287601730992 -0.8994384773896832
P 2.3263098626348264 4.084377542690304 11.267195699099886 -1.3663667523188017 1.3539560373592747 -0.4749717140588853
P 7.6903178810062345 3.7060999353530946 6.723890501334887 -1.6272321646144492 -0.601861568605615 0.061961272194144906
Ni 6.113929225460688 3.035935272602069 0.6439886317032029 -0.11117810023842788 0.4853630845955384 -1.0045924829212183
