# total energy = -340854.4230979581 ev
CRYSTAL
PRIMVEC
9.41781567142981 0.00000000000000 0.00000000000000

0.00000000000000 9.41781567142981 0.00000000000000

0.00000000000000 0.00000000000000 13.78392520253022

PRIMCOORD
 96 1
Ni 3.2271839885171265 5.975528567716299 1.8893352713705032 -0.5069570087162301 -0.3622617505569632 0.1233515023761682
Ni 1.2656884733000522 6.984054172028151 5.887059492835272 0.6222630150801026 1.0363466354043636 1.8340049088307508
Ni 4.628357155044465 3.9949431405590254 4.737038745468687 -0.21097186989931405 -1.2405361922745215 0.30404888966165705
Ni 0.3489131107759704 5.423964787405637 10.149490253472798 -0.8509245889496958 0.6243363526693635 -0.9714946719259849
Ni 1.6293291638945144 5.512030779784919 3.6647046160614076 -1.7554170838235188 -1.5029666350644437 0.09051748656528283
Ni 0.5806205663536308 3.7234651920695407 2.443076450615834 -1.795171223793005 -2.9361165064460657 2.4259584742940348
Ni 7.8398039739256395 8.69679692746403 12.976310663566936 1.9168764488150019 1.4131068366878181 -0.020529744522235608
Ni 2.8905347570349536 2.305895608823956 10.226307607065019 -0.8444734340077134 -0.686236689718586 -2.47038816536232
Ni 8.91351027904564 4.813078187503797 7.642221030890712 0.412554071053612 0.2975463126564489 -1.3735190470928667
Ni 7.384339582582808 1.3559393988663717 7.092394837532673 -0.8246666836944314 0.5100896408079408 0.3675011445790316
Ni 0.6184114344554748 8.042748479302727 11.987921290493045 0.2948109160031568 -1.1705620770782292 0.08005155403695245
Ni 2.3575240731831926 7.6186359956308 0.3250813287509707 0.07281441285856492 0.41089956616932466 -1.4632140377568543
Ni 4.001300165995451 8.561500590545972 2.532534396120307 -0.4865591617861684 -0.9879456183931568 1.266017881485394
Ni 3.9409037154416775 3.672006248388609 11.690091352561097 0.6669143352408902 1.2367510142004765 1.151524600830804
Ni 4.506189252879557 6.444206154151434 11.735316644188146 3.302634718286538 0.21925390740244818 0.4936461505399369
Ni 6.857064348347023 5.352455314607446 11.033962508964375 -0.07893415260305761 0.4238697531767474 1.1456576005270656
Ni 8.19800116718343 4.536787735313553 3.9230701400840253 -0.18820243741328233 -0.5359305131304447 -0.23439693369147377
Ni 9.027654202437459 6.7933339911199235 1.597887786976727 2.9819428207515615 -0.017337719947499174 1.4814940670129646
Ni 7.198610843869108 3.8231339330972314 6.388821864986203 -2.0697640129770742 0.2593173510822373 -0.13380792182280182
Ni 1.7957796343587882 0.1819729139077055 10.328956144904687 -0.12382175714436738 -0.47446032164010543 -0.919136727149559
Ni 8.981864783664273 8.894288517688983 9.836980766581211 -2.0808567804561258 1.759343415461118 1.1484446763538996
Ni 8.433305286485789 7.71637408448891 7.031745047742988 0.9633710143775861 -0.5095198843473999 1.3372685494012646
Ni 6.006268317382214 6.049590268504522 0.8233346228609956 -2.056402246958187 -2.0246807474851907 -0.7024140708093968
Ni 4.654802380859994 8.753793546636247 0.48364343698479983 1.430208529365111 -1.121710602793165 -2.218333923600399
P 4.257474164360207 3.8827769584140945 0.27198745230594473 2.05787908861403 -2.42705196446853 1.366461626025453
P 1.187501769339749 3.287043623589602 7.143270818436545 1.9640831884077916 0.9927458679952773 -0.8790385735770926
P 4.398703725018929 1.5634232912958392 11.393213555772293 1.3835036691094045 -0.4703948933214802 -0.38145477854564624
P 0.3627271624947096 7.430015987570458 8.841519555877374 -0.1008972871377101 -3.4393636704108768 -1.0228095201498772
P 3.630577278174037 8.06626476450977 10.374237001642959 0.24833025594311425 -0.6453805749341724 -1.9955606901907825
P 1.319106322596949 0.40974843153024343 12.82592792806131 0.2807343833054326 1.4795382288381744 0.991759592822608
P 4.973887386506711 4.911993503294579 10.137717984146082 -0.2895437540669465 -0.11273927407796068 -0.6491454412932434
P 5.839751922209712 7.996911971452234 6.850858949739525 0.6732058246765568 0.25356913574455037 0.43494529426461864
Ni 3.2163064116592435 5.362975014477797 13.346602215440221 -1.901536733134138 2.2139900448094063 -0.2734219088044194
Ni 5.085582677878572 3.9561888299354826 2.4209944987035574 1.6445863396221805 -0.2692613496688266 -1.2852703019571026
Ni 5.016926803165176 0.8045988207821438 7.153967573237571 -0.37869727040516715 -1.6395978852686535 -0.547265992747922
Ni 2.488667153482786 6.431765219926963 11.172808420529826 -2.709401771890198 0.1295889986454478 -1.2344676174829383
Ni 1.8907677211021776 8.403347215503166 7.864197999533683 0.8519825979005651 -0.5809379310790705 -1.033444374155904
Ni 6.180610917203117 9.255207459615109 9.3423448553899 -1.303083933099756 2.118230336008578 -4.166951926493057
Ni 0.7163934447340339 2.966536527808219 9.096287474393748 -2.055042390496183 -0.8325021205784502 0.10487246973537423
Ni 7.594705326543456 3.0734946580030114 1.4751557576656846 -1.595682414832626 1.2951091424243955 1.8864741823740607
Ni 6.893021567778538 8.499936330874988 11.038662940661148 0.10829743625652316 -0.5278158544431103 0.40119905105210907
Ni 7.476492906872325 3.9917881723794655 9.163594717933076 -1.0521998003865363 -0.2583573011618131 -0.2558049670536046
Ni 9.126399997549935 2.6549386854532933 5.939382991975557 -0.15459503377148212 -0.9281096200721306 -1.849639015823582
Ni 6.4963714339919685 2.5213469731337437 10.933905753939678 -1.010448427481363 -1.2397059830637425 -0.9011217786293771
Ni 4.481994884959295 8.535253138855131 5.142782721864756 -0.060804275771566246 -0.5305646208328411 -0.08728123901617227
Ni 6.605043606600731 3.582800700338501 12.931720132701983 -0.4395583675565978 1.0026713546391055 1.6439803306070655
Ni 5.418747317640038 5.8623923505788476 5.785595716180643 2.4576375505648707 -0.2686116318999696 -1.5176234657456702
Ni 1.5083196530313567 5.79166455646395 8.030652237124142 1.1330494248447518 0.295669150238394 0.019134149726289625
Ni 3.818603963860312 6.15775387907837 6.935284956442986 -5.0775903863636165 0.3139486652738722 1.5196173562472475
Ni 7.691897182104806 0.9671719766209709 2.484235129526665 -1.5481141781353596 -1.5449769180579584 0.5910657635416917
Ni 7.383680335500513 8.754518718426773 5.368686919555119 -1.4523056183744665 1.8353773636982456 -1.556820447660106
Ni 9.039633663704324 3.058011769384517 13.62946253569632 -0.6303249661526306 -0.02025283671176512 -0.948516980083889
Ni 4.887215230815711 2.347079715836532 8.875275831835566 0.634964521807171 0.6433249779567243 0.30715221117732905
Ni 3.356801382711978 9.165144890358016 12.061926484388497 0.4786936429951627 0.4337250487042724 2.2541787012131502
Ni 5.703438461221825 1.1669991850803438 4.751111787112614 2.040427468796486 0.11864124138469245 -0.08846446069099603
Ni 5.647025746608213 1.3326679768613234 13.081978553043522 0.15116878169875256 -0.86513327634991 0.7304084991397937
P 4.9745748870353905 4.340699399592344 7.409356125792849 0.615376058152282 -1.1122687406539749 -0.3649521529049327
P 7.2706288787022135 6.383357648455515 2.722283600254466 -0.10972259873882394 -0.7965670972447378 0.8845505045342573
P 0.8463112672421028 4.871073095114921 0.9859284978938377 0.7209859202743132 2.945783854332501 -4.4253565359530365
P 7.146228954272962 2.602622720565377 3.832936937210973 0.06297454395000768 0.692019357838634 -0.39180141188729295
P 9.536574114339034 9.365377064882228 5.710335127484187 -1.8617388844109097 -0.8383531800425884 0.2359336820509743
P 8.360609168939463 7.006120113654143 11.07451562234104 0.5944398222202472 -1.277971197192528 -0.010861368194536133
P 1.467700614946463 8.054897461247895 2.13473057993972 -0.18922059426515153 0.480445849799579 1.1836963004673422
P 6.012578253741334 7.670904871441409 12.677172591067405 -1.8637620854885257 -1.0636995734960195 2.981292588762072
Ni 7.0317742429709185 7.941375113676528 1.121254971821372 -0.4192083431453361 2.0626515703020085 1.6724378146168102
Ni 0.9928920306459755 5.151931187803932 12.39702742700882 -0.8279199005244064 0.041848303494353735 1.5255645749696178
Ni 2.1982970671777906 7.660008458952603 4.092034225494938 1.5337453110081973 2.4913699098203095 -1.3048873048570817
Ni 2.050107740893116 0.5645113930069554 5.483782984090081 0.9438879659523098 -0.7029339478686087 0.0030166753391367403
Ni 3.235716529325129 1.1649555191252263 0.4207719845277783 -0.44341759340168796 0.5496463200546405 -0.515888506877905
Ni 1.8920391261894627 2.869872069912706 4.151139493548958 -1.1238276491361678 0.6180636322867743 2.8587571545292962
Ni 8.218240052609916 5.697260374279166 0.06125441354230405 -0.6267842999892238 -2.3568371940163413 -3.2740008565999292
Ni 1.1714349761626497 1.6896785253709807 1.3226681404044396 -1.2211734714771936 -0.1737204417470234 -0.3241289482409837
Ni 2.435993311607337 0.9445032948054506 3.037273739738578 1.0736440863032413 -1.928888128563897 -0.4822805890154726
Ni 8.983117353120635 1.4107605026670134 11.235966174576873 0.866211082795121 -0.6117112077061851 1.0753728960688897
Ni 2.943340448326862 3.2750076554299694 2.2674972916248537 0.470118499731642 0.10849001188330347 -2.085347469237628
Ni 8.869227710746273 8.035741624599467 3.521875910337345 0.1937094832744406 0.36661797064312984 0.7956587264978555
Ni 4.978172492541634 1.3178537531405867 2.019578950293535 0.5426266942036977 0.3736311687361694 1.1101740629084753
Ni 0.042220066713326836 0.7398824182762398 7.88472224476865 0.8996701337845151 0.3571537399064365 -0.333725076569851
Ni 1.8126751952964881 3.0635023557984966 13.285166979841058 1.91027051346271 0.027415673008791493 -0.6950879694616287
Ni 8.53902968285514 3.714424089226624 11.386321598417663 0.171310289643634 0.4432070200527787 0.0829810689789216
Ni 4.738715116620811 7.215967877764415 8.615146350977033 0.4732984401215203 0.7743121425012793 1.7223136164013308
Ni 7.35783784987451 6.427593127677576 5.135972699504638 1.9438288090341296 0.40446820872168404 -1.1290361899203007
Ni 0.14773727114252913 0.9543449119625833 3.721701235233626 0.8012465049982781 0.6613679515013642 1.0036170063818264
Ni 3.00665642167366 3.8177186892069432 8.21320717202736 0.04329840567731898 0.6208756478142727 0.5368021171021207
Ni 7.1983753984825745 6.659299641473689 8.957552693050744 0.592106031880748 0.3933715845878903 0.16582895481408857
Ni 3.227033303469745 2.3864744379114478 6.312320949993485 0.340043305478395 0.5415763985623124 1.3065312682184078
Ni -0.10848569986262648 9.100039532073557 0.9730524605950511 0.5970458923845265 0.5700112568642377 -0.00466809489963067
Ni 5.113223966257697 6.212339537492477 3.1843762501190103 0.3495597296092625 0.8783644303282034 1.0560369147444393
P 2.913156349773167 0.737582587740573 8.051548486069832 1.216513861217995 2.222030655725696 0.19103527887638713
P -0.044238304566698666 5.547385259026906 5.473320732894045 -1.471801265205233 -1.575725769205041 0.03110546315555288
P 6.096396811347536 8.665313170376665 3.193487044796341 -0.21630896584151132 0.6780757511743484 0.40145796114045057
P 3.421548864008905 5.807910288134815 4.646671038990647 0.7050394242473857 0.7944389951581415 0.13483327776352264
P 1.2956936333599807 3.435054011380511 10.981514694660001 0.26558827169261356 1.3992997556013966 3.1936731660834545
P 7.580917644708008 1.2248622432750083 0.3415709818422854 0.6726003298820739 0.4050932439001927 -0.6369684396110772
P 7.956274097736417 1.9011179002942242 9.402731888128212 -0.10653057416408751 -1.1363028987850432 -1.4382720230995358
P 3.8683488651272744 1.9040562587181722 4.317621042804253 -1.2577080760681179 0.5273831377810659 -1.0548053563301834
