# total energy = -340872.2972278372 ev
CRYSTAL
PRIMVEC
9.21548622683532 0.00000000000000 0.00000000000000
0.00000000000000 9.21548622683532 0.00000000000000
0.00000000000000 0.00000000000000 13.48779560859627
PRIMCOORD
 96 1
Ni 2.606342222017223 1.99864541927033 1.6570973856333036 2.5078154569708424 -1.4778029913146227 -0.39557116334237036
Ni 4.8916445532606945 1.2494448267932379 8.727831184592993 0.40633791494057114 -0.362243238614202 0.6753102726140692
Ni 8.514980179592838 8.768664082145293 2.910517773148756 0.6246636541017951 -0.1262941299442599 -0.6576987301798931
Ni 2.777077533793934 7.193553190534372 4.417617455473591 2.1605627782282015 1.364899937965288 0.37156837266986975
Ni 6.245473191598964 6.618377838387145 6.330024355415025 -2.3713392442872574 -0.5762855199087237 1.0432798721890872
Ni 2.472542578702813 8.985661134361314 0.7068876878501817 0.34012172412481423 -0.19215936517850132 -0.2479152798928827
Ni 8.47493889230025 2.969745702591673 11.907349919812964 0.22865103234663198 1.111765575765311 1.1660117387033853
Ni 6.230212346545677 8.300664833844515 4.4041020234958435 0.46780450688648473 -0.20921760621236873 -0.16893998963924453
Ni 2.794826560105909 1.625998806094161 10.1434293834525 -0.5650747387945687 -0.8392612936791547 -0.6914575717978931
Ni 8.875591367865873 4.265498347254937 1.2277856697106662 0.3053678655833966 0.7655241118960041 0.41465569077764713
Ni 2.9506880772473516 3.2374279285957823 8.498565555674412 -0.6189234091839082 0.1743904712308545 -0.42345580556778045
Ni 6.543419074097634 2.4594473728932 7.830946897378013 0.8090189498548455 0.35933814915226503 -1.3053040806795262
Ni 3.673624534216071 7.104992368697366 6.532273865155941 -0.6809646426863691 -2.2764323704050278 0.03304407493916244
Ni 5.697557247463585 8.718439682664368 10.442939133949686 0.622715786346805 -0.5910935314558337 -0.3829691583076436
Ni 5.759135125873041 3.5543300660911976 11.77054326337 1.7110434428041499 0.6758152372749457 1.4906793330566586
Ni 4.634504843404507 8.007335909903633 1.8399510616884396 0.24275507584818187 -1.7587374064460035 -0.7072066071020336
Ni 4.437754214245291 3.582769056329387 0.5069743038465894 0.8570610408647369 0.8528907115371311 -0.10880471491024488
Ni 4.381373870020651 2.623280285548588 6.598931319527577 -0.6419813194446363 -0.03410748320667029 -0.40854803521801253
Ni 1.5038198908064384 8.421203392598732 10.373652501381368 2.0200483909195017 2.4048718288270647 0.09645390665437582
Ni 1.0932699831229227 4.055634081313822 10.3831343150742 -0.22247215722942978 -0.2199969562160598 0.025262631221530687
Ni 0.7748482119624793 7.427792417324486 1.166918305282858 -0.5674236986427195 0.6756013214919269 0.43607632254526835
Ni 7.790384935118328 4.696866038136142 6.404895572586175 0.9376347859537464 -0.41992799492018 -0.6712345598827989
Ni 7.461115615218619 4.615401140629469 9.522599591402807 1.7665142221779448 0.09928160591115805 -0.6992611270027118
Ni 4.297890781048597 8.172606438397374 8.390393257775873 -0.7613350135153211 1.7192905133042906 0.5309597993887308
P 1.7236737437268792 9.000313757329144 3.3550350412078203 -2.178708595899293 7.918997736760557e-05 -0.35587024520832256
P 3.7077586948908126 2.947130899596042 3.9036375390608735 0.1583151629355467 -0.36274511795128495 0.4999648936691131
P 3.147235965711415 0.9484025409504229 7.662025193274301 -1.7111426873861757 -0.5233704170772471 -0.7413367160165233
P 7.027259743078726 7.049229462044326 9.35891136187987 -0.23086269528597014 -0.11350494859939161 -0.4187437448040917
P 1.8788533148937192 7.548386268995563 12.383711300240162 -0.45593680891462124 1.9251911393282846 1.2941722324324227
P 4.708698722344126 6.86917729377675 3.7965720210481444 1.4391222869149731 -0.6397958817575432 -0.3501510833363582
P 7.197792314160285 7.737506475628137 0.7471519899074391 0.7079450279299548 -0.5744613222157913 0.517120065292161
P 1.3360335345955792 5.6893646802822015 2.1935197754507723 -0.3344082186798047 -1.2281753567163234 0.426324128254511
Ni 1.0645453128142914 4.912775662987255 7.3337456165863815 0.17693586336052755 -0.0939131425103931 0.7280680239320751
Ni 0.38415859846636524 6.582207055274736 10.446607818983328 -1.5046195972868344 -2.5526863493416037 -0.6975469725250826
Ni 8.891653960213626 0.10428981358637061 0.2661275734917367 -1.4755748733150524 -0.13679065860020956 0.19303739690808044
Ni 2.090929297509224 4.013454801235989 0.7017832300754141 -0.7234420951242896 1.0775418786957507 -1.3462905503942169
Ni 6.433598125728062 0.34837394422336054 1.6177398874125457 0.1460592283863291 0.6280274283677055 -0.06126913122312675
Ni 7.0389173330499855 2.9220094843694375 0.4902122561005614 -0.3312737868158811 -0.5963722633562697 0.3576538194713066
Ni 2.9615899973548627 6.403942691318957 0.6568816953908538 0.3123612661820943 -0.10324316166206735 -0.5778695765663919
Ni 0.3269718992041866 5.84406504616959 12.984444881657186 -0.09443070557675995 -0.5507822334312965 -0.4898159781605693
Ni 0.37430724377918956 1.4701004270081446 4.443392248667755 0.4512990530322938 1.0620936624614805 -2.059053568538106
Ni 5.4758050043976265 2.6218150232518047 2.6250220124296693 -0.18281777606260127 0.13698811932299634 -0.3700300816484724
Ni 6.077778990249539 3.201763997221255 5.108138439933292 0.8326957246464949 -0.2082668122633252 -0.17825561061321557
Ni 1.4443707896960825 0.9336301166627309 12.225176370568551 -1.0325002650750799 -0.36756825037154117 0.052709928799206
Ni 2.305742279509286 5.725977806729488 11.564773437922346 0.722767180544452 -1.5059429440839485 0.8367912348721072
Ni 3.7449247505066965 1.7178403409981773 12.453241221642662 -0.15977169287641516 2.440581109303216 2.2931959630166117
Ni 5.981219126440157 0.9814492742602564 12.501405959970562 1.5192111219477642 -0.5544098028815548 1.3629590121888335
Ni 3.694175068315605 0.2548072703133208 3.257909346549242 1.0740395219694472 1.3784766482084583 0.718624362020672
Ni 1.5085566506840888 3.134020958581939 3.1381107913323305 -1.3617673058735773 1.5545707323939808 1.4246004391497142
Ni 8.009317239424439 3.571019311496694 3.4398193568233055 0.0892375914115947 -0.0947279251022046 -0.19206911945754018
Ni 1.7463807015839428 9.33160126869423 5.52720437836182 2.2017197120824856 -0.8697972574844828 0.5773458428524381
Ni 3.885092294746119 6.975570081301019 10.481365868069972 1.1421711846403622 2.136775446000617 1.8014231182399878
Ni 8.47648709397232 8.638071428008747 9.86601191788662 -1.780904943681978 -0.10218978069688853 -0.3230853374678178
Ni 7.163473843762677 1.7228443499739832 10.286224262791375 -0.6190144262358178 0.7489338116374908 -1.2934548946504238
Ni 3.5505240703140197 3.6643814016143526 11.115683445638984 -0.2642428134083127 1.6791987874897272 -0.8410633798848999
Ni 0.19893009163210354 1.6638560231707915 10.192295420275904 2.507129743757727 0.007996902162547519 -1.6775417115022786
P 4.4210741843259385 0.8088450618936861 0.868835112040653 0.3531662160135982 0.5257489446117525 0.2538445008931241
P 4.448158498101064 5.643499205747053 12.590897545908039 -0.2226804165854939 -0.36832364048032695 0.003954356662057706
P 1.7301706614578976 7.203413760707691 8.574825546607356 -0.3616166607737966 -0.47368204871318426 -0.6991883647832474
P 7.992793872769522 1.0647756999678737 8.398094639545821 1.7001134261552078 -0.4802226780451794 -0.4884448088446556
P 0.530917058395468 3.222028851250347 8.480248855416011 0.3880874533708155 -0.9610271967357578 0.1406082325740869
P 8.2158915768124 0.6459714813458142 11.742852570606646 0.7130180715774882 -1.4249794197556878 1.5327153270817861
P 7.973376843465612 5.113617967994092 11.580688582491806 0.812859149536542 -0.1482374669845705 0.07626894706606865
P 5.222517367749335 1.8016459719852456 10.748181838376613 -4.163707965634462 -0.1041492184161045 -0.1613981727362446
Ni 8.600674985239282 8.943832042756926 5.5549346977155905 -1.0745218609225045 -0.7284536894062681 0.5613206710687753
Ni 1.7393861476011865 2.2443026333919796 6.547070249707605 -1.0868009354001735 0.7892001153567053 0.179772047257742
Ni 1.8493176818044783 5.164035892684025 5.1735545683214275 0.6179078234352003 -0.6057061391626859 -0.7773054208016484
Ni 5.33587706279793 7.766682704757788 12.853315886227103 -0.06447709663746315 -0.5364881854061276 0.2999361530448641
Ni 3.493360409767199 9.10507540380605 11.500962647220373 0.644192211053026 -3.533691788971501 -0.37725899529674384
Ni 8.172044293742633 6.193774314335114 2.454670986425133 -0.34353794889521483 0.47432816693761526 -1.018594453627265
Ni 5.954300691415612 5.833061755714504 10.921634797016978 -0.19258951073738445 0.730855099758909 0.7438641104240673
Ni 4.420254006059186 4.896150925984762 4.977482198942358 -0.715565006369058 0.20858280084184722 0.1559266080987121
Ni 3.0447505443119005 5.486670062560565 9.249525384456257 -2.8080519148649445 -1.6896428656411868 -1.4964961968487518
Ni 5.063964928654052 6.052924824121088 8.616341311682872 1.7562478072549301 0.4843495557293594 -0.8610380232346139
Ni 8.231696135548141 2.143346982692251 6.177221458124539 0.18513048335617793 -0.1778203228480099 1.0541648945327071
Ni 7.92777861802862 7.5284992498983465 12.121144590594193 -0.4671607026548987 0.6953512504253444 -0.147888568285584
Ni 0.7442168575708017 7.027407190857018 3.9433185008452605 -3.5486532953773398 -0.3687800112914552 -1.0131084908120294
Ni 4.366195964342654 9.16680994547994 5.7685275493502814 -0.445908992364974 0.6806278281722407 0.38714488695188803
Ni 6.811405411144472 5.638439903854389 13.445525142961582 0.20626855088637377 0.5065163216343856 -1.021101279209519
Ni 8.565785154700789 6.658667943805604 7.683484374307564 -1.6878536349512478 0.4292140482077963 2.2913874490529635
Ni 6.6745093644859175 8.778985426625775 7.394994502140522 0.02908740428425958 -0.3799141735314038 0.8947541845401364
Ni 6.581202567285118 5.5006683860122205 4.090754299005895 -0.15952255298008658 0.3438881331457819 -0.34714340685828604
Ni 5.315437114532116 3.698294390621655 9.376108380571859 -1.4286756376603524 -0.19615511660145574 0.6147147704191993
Ni 0.9941205677072785 7.267894517252282 6.353560707024984 1.8637489728624033 -0.5649518400634593 -0.38051838277430594
Ni 0.5295034028210874 2.237206709061647 0.6426290245216434 -0.22172473754044394 -0.17012706796881025 -0.21782617381698613
Ni 7.224839765990838 1.26690817303477 3.9468388165519968 -0.9101154974875553 0.44330395064195915 0.4161425597358188
Ni 3.266889837795877 4.587275476920152 2.5583378331482174 1.0815908519541437 1.28150620692898 0.7868696674513158
Ni 0.7060490786111425 9.166966608744378 7.919467171075987 0.32968947304789675 0.5249809560974765 -0.17712663921509494
P 6.00775972653283 4.541188830717565 7.500387409418244 -0.10325524584692539 -0.3337240481285866 -1.1883505114099018
P 3.3652835833477712 4.748408252135557 6.936652161769296 -0.6955247998887312 0.5334550550067586 0.2379939070141127
P 8.070922764292325 6.834757453031566 5.511585050897561 1.578791038393926 -0.16509747596470276 -1.734738986648877
P 6.352630864473126 4.6437479760062255 1.6969396184251984 0.015196248124464152 -1.1433978579586115 2.6474081037962214
P 6.250689156756065 1.0172975153576498 5.896244050261506 -0.400335160389917 0.910498848968903 -0.8896628860601581
P 0.19839375033856413 3.7132050472014964 5.180459732088593 0.7218066164033956 -0.37567468152875944 -0.428449659237946
P 8.185821445526848 1.6510004200009036 2.052883162966656 0.5245114726602258 0.5042532366318219 -0.30251265552278866
P 1.8523772232040503 3.042852154166383 12.2600956906627 -1.0373262257088134 0.14576535129499413 -0.07611802331050116
