# total energy = -340862.2512615214 ev
CRYSTAL
PRIMVEC
9.31330415430350 0.00000000000000 0.00000000000000
0.00000000000000 9.31330415430350 0.00000000000000
0.00000000000000 0.00000000000000 13.63096203303672
PRIMCOORD
 96 1
Ni 1.9351089961950951 6.537129165345333 12.956501845978586 0.048360650691574775 -1.3163063453273007 0.24855368480783
Ni 6.750636660028494 7.518192610925451 -0.030339019179056313 0.3782424422559357 -0.9880780302059629 0.3906230753084756
Ni 4.177305565877121 5.598720652181742 2.3431211200368147 -1.3609471239651272 -0.4618709150108691 -1.4972518440678537
Ni 1.6761805178011475 8.021092401455498 5.059172078998358 2.4539894122893218 -0.061594375773029404 0.5550129836831925
Ni 8.778347838105145 0.9873312991863019 12.507566132937857 0.8694658422869929 1.0982914525382763 -1.4961503834735588
Ni 2.4747311444802444 3.947686055237498 6.282115068631443 -0.8158583413741819 -0.7883241405096553 0.39301780079289733
Ni 7.49758226912681 3.5400054850189293 0.06964581880000645 1.9386999724479963 -0.8805413833748641 0.06920844067486145
Ni 3.108557362938575 0.7963927341374135 10.060358595831099 1.5495061733868798 2.9145341522895998 1.1713177242973312
Ni 2.404965184058366 5.620951508880049 4.714363761565268 -1.460340572863801 -0.2126400016303564 -1.3878272361854227
Ni 4.225902386259094 1.8359875014987863 2.151375091529299 1.035155700420056 -1.2953917066618206 -0.6090349464256027
Ni 7.342757903080447 1.423035601204288 6.086360594073257 -0.30062546580240485 -1.3097315203232605 -0.6488083696687987
Ni 6.7876570435122705 2.6653279112715595 2.0818568649943816 -1.580912455612303 -0.487491958013083 0.33059912934635965
Ni 0.22944814584563447 5.1962927854310585 2.1995192853358483 0.29380869999088755 0.23992583392950292 0.8916786309386063
Ni 1.425857532322674 2.382073082774562 13.510327714226278 0.12275269244990474 -0.4113960461897689 -0.3674641206935091
Ni 5.547804819098521 0.35657940238532876 3.809648919689124 2.8585589224755608 2.215791359684203 0.2482844903068434
Ni 5.749139825426135 7.686381568242058 9.20107684496097 -0.8015570942601614 4.816077570291957 0.8447477707150226
Ni 5.472469502872039 1.8514475861737718 10.57942535081133 -2.2146760151328375 -0.550850881885703 0.3436585336334791
Ni 4.29252976322587 5.952067406741355 6.0467492494108175 0.9830731207922038 -2.1643713533410143 1.2446005921518823
Ni 9.131582833016505 3.0654274520169733 5.4785427084241825 0.7566610050784194 -1.1287263719893657 0.8595539824899198
Ni 3.2779384231698794 3.221602247146392 4.006262080878054 0.7167040050695077 0.9449935403116627 1.2866098467041327
Ni 1.7077805583446577 0.09892498398146435 8.548644507729334 -1.9566447298518754 0.9248641165516395 -1.9708354195299604
Ni 8.918764522830903 5.777470896258247 13.691074730684903 -0.5401154977460698 -0.25317961361561553 -1.1484403054785253
Ni 4.7402575407350644 8.16933226155896 5.694538717941775 0.5379321169415058 2.426702037328279 0.7656061300868492
Ni 5.998447660766312 1.1379833050312231 8.350286033366853 0.9386884240292415 -2.4540755442452253 -0.8550069865491856
P 5.109222706138023 3.7228163296486247 1.1609629513728252 -1.1476568903452815 -0.2233692151224024 0.31457832843807115
P 3.944389145614038 9.140113819499811 7.6268639675649705 0.6551741639858265 -0.8108122943098424 1.1569182610425495
P 5.4213674037083965 9.223765916217113 1.3119474421712987 0.2990316389527237 1.0795483676028181 0.5777695606534179
P 3.574306383728551 6.667766880848962 0.6060213493034087 1.0857169583073754 0.5689578758990589 -0.7725913031554307
P 0.4780770413226744 8.366513534293176 6.870659071608901 1.8495999350555306 1.352027452877994 -0.474417384217312
P 4.751806037721199 9.066883309982092 10.905860382071644 0.3794380052259336 0.5868452977024409 -3.28028077607137
P 3.3746105189086455 3.504065444801598 10.091437091349428 0.22199676025490797 0.024900362786105502 0.8863944997215315
P 6.674370013399905 8.574367853435545 6.936291787706226 -0.700472887922626 0.9807997513769946 0.7971551085377239
Ni 8.248905131115032 7.423830214583911 9.363830558050875 -1.575671261818022 1.4022524104718173 1.3551397732547306
Ni 9.01795121065536 1.709801545317231 7.7119484504407145 0.9027834826025162 -0.29258665465832834 0.07780852363904664
Ni 2.1552568766452835 6.976642608707939 2.2122505719326586 0.18860172973423003 -1.033670631234097 -0.0697519718831573
Ni 8.97103078499718 1.8421529087607382 1.8503895948369777 1.1113223175803055 -0.22979928701846228 -0.03144279189031359
Ni 4.622313858612162 5.056015800265616 12.989693530179299 -0.6511971816159495 0.20247180284810293 0.4547381606208298
Ni 1.1068582429927878 1.7946550582532521 10.577966887401631 -1.2544651436507879 0.6495935845742554 0.907214007570044
Ni 1.0740940394466434 7.224925980605797 8.7355522747979 1.149111363403621 0.1326164726178619 2.043423832420648
Ni 1.2354004650916752 6.1154227592710235 6.912669523387169 0.4545389001258301 -1.5354754063254266 -2.018740727851672
Ni 9.03153000791809 5.317645136825676 8.728300004956688 -1.4244114630673597 -0.1178359718745777 -0.8217667364388169
Ni 8.969065677848734 7.595772433421011 1.535419240826609 -0.06248037792240853 -0.28153296794732807 -0.07738429161743447
Ni 4.073089693881283 7.5133124396184074 11.98584136099001 -1.0245699544844098 -2.2885985734539167 1.656059887479419
Ni 9.47973276393236 5.830808188386949 11.300462279453416 -0.923699663929893 2.7954198279232307 -0.6171544902089436
Ni 1.2845467704108917 1.226031281246473 5.885372042655225 -0.23822684896052518 -0.3060980588812019 0.09193159330399006
Ni 7.240833103873794 3.211497312283525 8.140955555537145 0.545680393428357 1.1630140895276422 0.19723626548077644
Ni 2.2335631368544884 4.337261562439097 12.05722597365075 1.430504206228659 -0.5753115860312286 1.211697156555642
Ni 5.536302888632491 4.810563672790166 3.776799033745986 0.34386010812132395 -1.145264478853705 4.032195010493423
Ni 7.033407196716396 -0.003098536247811897 10.783085889153009 0.38556648672117466 -1.3372184128896196 -0.03438567656872142
Ni 8.168671016973464 3.9257625375718863 3.6935678983704365 -1.403171322741661 1.4111286299155246 -1.038305044682315
Ni 3.0734741466911824 1.6235324101700066 6.945956203288897 2.5815115011034124 -0.17327204135569513 -0.6783246339603608
Ni 7.206243492739518 8.100087846162262 4.831849229130333 -1.220170484133976 -0.8564180079640993 1.7279582162816176
Ni 3.2556144334313606 7.973128885746958 9.556285328994395 0.8044045910112856 -2.160762038723201 -0.6995264648489565
Ni 7.54312432578987 0.3536280163410499 0.5820479734227576 -0.6918306388665957 0.21420786033810849 1.509069405528072
Ni 1.8409421792379985 0.25915013502964923 1.0020211736187448 1.0595837515554332 1.461488056204683 1.8634165292236486
Ni -0.09347856378993927 3.668706033286175 11.815549459625444 -1.2305623688912612 -1.3377076938212122 0.8375293985897124
P 7.307013442247558 5.927340584565399 4.446678914730705 0.5528753685148995 0.7117350911000065 -0.9928661956232255
P 0.3492749780415991 3.896993741450783 7.32829154794451 0.9231779870984681 -0.28417631910744606 0.3610255641570169
P 2.138353229847031 0.47443367678962955 12.54995843018099 0.18986234161420848 1.2224042585605013 -1.8432140861338449
P 6.798143823840001 1.8757459963647585 12.642458165718315 -0.3524388509292704 -0.1987457601467674 -1.449071427707885
P 1.0753792754015519 8.638704157613136 2.7474563514510137 -0.8451411494986993 1.9848294198162075 2.0650799772378434
P 7.783817354910552 1.8332214502045265 3.764762519629148 -0.06788946475312178 -2.1797938585436714 1.6096995550473245
P 2.3465893944542633 6.3553614107659975 10.799619797781626 -0.1494093758054846 0.06968795141444127 -0.5634441451696811
P 3.953301977562207 1.1621140757498303 4.879993422936883 -1.4651336233770704 1.2718105769077708 0.18726758430383877
Ni 6.793068073148515 5.1897920992243485 2.0628139522624878 1.293912808123449 0.8746044490651388 -2.0368132690826664
Ni 7.324392067550886 4.70307883108293 6.16787435618732 0.4123285853063673 -0.15598368658889264 -0.017744468467614603
Ni 6.108316708302942 5.866906554772639 8.463150239476661 1.9166085398655959 -4.519607778529139 -2.179249041783795
Ni 7.699504013607753 8.887006156119035 2.8907042805991794 -0.579519453464989 1.5003978458960032 -1.915667258998249
Ni 4.603389224841336 2.8508954938914934 8.419218453078846 -1.993154137631819 -0.5432748693106579 1.7499177512718442
Ni 2.742171982749455 3.534929734327443 1.7611616230022575 -0.05230343738940669 0.4414627836681622 0.005528128907080802
Ni 9.226448147775184 0.08988921642021666 4.5934845260149215 -1.1917669932906185 0.7713191213112266 -0.9866973478083524
Ni 3.459957636957783 8.974607093741273 3.3099929529496177 -1.8776432143459922 -0.3550081543183434 -0.1607937063830263
Ni 7.642590412734958 2.1855530546258426 10.194609873294905 1.9565588550062882 1.4471533847495657 0.8481002321270231
Ni 5.366987021529335 7.65878624842761 2.788377146658816 1.7195563653711674 -1.5141738166341727 -1.0267278813676768
Ni 3.4556362638920044 5.225303727456709 8.015060174441047 -0.25332102428948633 -0.7350364848301082 0.7968645738804986
Ni 4.626570038549793 2.395223468052321 12.798369394343936 -0.3215732716986655 0.7107213051235115 0.8946896498507881
Ni 8.228574188437024 7.06167307442036 6.872799268872945 -1.320672078495164 -1.2668306071946764 0.05001695534807515
Ni 5.5961036137518185 0.012085874628149982 12.688422115053529 0.26324342560952085 0.908989354302912 2.6012845699652813
Ni 1.9023075394328663 2.6703570954429403 8.554273468679671 -0.07224851305276589 0.5252365237517083 -0.5912624529335301
Ni -0.0030389311020770126 6.9843260845253266 4.010133621359615 -1.339208703846771 -1.3221430066137358 -0.5740139502657275
Ni 1.320477497324202 4.341601562112918 10.059064046572168 0.49286453517890605 -0.25226558644177843 -1.9648228947872937
Ni 1.9542944024785112 1.6128500504578327 3.1344669747252074 -1.3258651926603295 -0.9849896210886262 0.3179541868888395
Ni 6.356860852713391 6.3151558773070136 11.196758639178737 1.4299059105230278 1.4010090249830194 0.9029544609627417
Ni 0.737933124797121 8.330210275219022 13.174052245937295 -2.516968327114704 -1.10674086885721 1.4814444447219517
Ni 5.88033633917103 4.062705359897784 11.18731215491016 -0.6696101369054984 -1.2386826840055507 1.05189538177224
Ni 4.420885719244335 5.7674590944355915 10.034637112785692 -1.4592522248956288 -0.6338450634907471 1.3376503582207158
Ni 5.50772035859181 2.717519667005668 5.3516107565905395 -0.6234189830614166 0.5389129927975363 -0.3793197344805145
Ni 0.8385158768943369 8.772135864323088 11.02962953585973 0.0873912822314753 -0.6226340252662761 -3.1668874133491784
P 8.72628646862733 0.46747198203387547 9.430866789064178 0.8182700361394682 -0.4927215818431386 0.2983888631624022
P 1.3253483553272245 4.417998594997802 0.5429386158470543 -0.7736534258713579 0.9881939869585367 -2.0655463753513006
P 5.539851257464522 4.008725449791629 7.145554278416581 -0.47067257246289906 2.736922088797654 -2.160553779367137
P 4.012264505319638 6.894611026890304 4.22986426578966 -0.9560294864108504 -0.3765303446608354 -1.9717250212237656
P 6.715134345100153 5.377296849080666 13.443795332960516 -0.40196446846322387 1.6533928821702168 -1.0161449636455082
P 1.031709192846728 4.040046091214506 3.8732783440915157 1.6638544438231733 -0.49300877406625415 0.3240222474597903
P 7.488157205457481 4.6715160437555046 10.07841988631917 1.199413968312915 -0.22090095608756796 -0.5134716699062963
P 8.271080107989214 7.790485680589642 11.947265655734713 -0.19072803204861347 -0.39783759077904385 -0.05416260208533254
