# total energy = -381169.3044810629 ev
CRYSTAL
PRIMVEC
9.20971424237174 0.00000000000000 0.00000000000000
0.00000000000000 9.20971424237174 0.00000000000000
0.00000000000000 0.00000000000000 13.47934772589019
PRIMCOORD
 96 1
Ni 8.966964755124994 3.494718229061329 8.87341431811672 -1.2022676357116262 1.4364269994709973 1.2558856781473984
Ni 2.109733747321673 8.58478923635791 0.4792477505647767 -0.06359315137061305 -0.2625867658621284 -2.5827140060519453
Ni 7.109300891135975 5.742312191348529 2.477908658246511 -0.28361916105239543 0.4109854410149115 0.037383068634148524
Ni 4.820677651163463 8.836306536826113 12.552211713897503 -1.4874222595719415 6.045866294241987 1.3988187021999199
Ni 0.040268555275253665 1.76121052499951 12.321215499072038 0.17123572765195672 -0.4883540489030621 0.48432513024932716
Ni 8.122608928533069 6.50914064205831 10.428499462048162 -0.3039941251643216 -0.19853775790101938 -0.032638869080943794
Ni 3.2375093250893032 3.4779473391253126 4.927995690239474 1.2160258658379832 1.1560679972271122 -1.6639475177576117
Ni 2.621370221514666 2.3778930017241886 2.6988349713388384 -0.035562213375325856 1.0306015053904702 -0.5033649204895976
Ni 1.2726996436836928 0.5965831960018003 6.338393457915123 -0.2408581159357852 -0.35345957888430096 -1.7653202018698435
Ni 7.399130603539285 3.390316906538166 1.9871257403863685 -0.7572523588055153 1.4382699662170066 2.0537390983037276
Ni 4.244877096693576 4.660585185618285 8.282560485447812 -0.24020556995345085 0.418020493484822 -0.22620179947519106
Ni 6.516351848439364 5.101555521162704 9.249393541030456 1.6179150009785814 0.2903420815985258 0.3021071925542539
Ni 2.293762260611884 2.0927234048110623 13.344810787462285 -0.5166755215555746 1.1664974200905522 2.6554464007196654
Ni 5.328823643596022 7.069303101464301 1.730896750027299 -2.6083435336945917 0.30454125591704323 -0.7500468421960114
Ni 6.081082326113174 0.49907718665551604 8.260818191674641 -0.9582509195422013 -0.23578404384698748 2.5348112688333955
Ni 7.478592019446999 2.2121641909616354 10.512287601784507 1.4717904665719557 1.2899952182365977 -0.08865832186935699
Ni 1.6688094603492907 7.293126790709221 4.301718533045085 2.1523313914573445 -0.15104614007795922 0.9682381126619002
Ni 3.2995828001957 1.310873909902686 4.793809230351089 -1.1208194584374633 -0.09154438516790041 0.26414562570881606
Ni 8.841813946041785 8.589283576988759 7.680047154339038 -0.6573590874522872 2.302995722715853 1.9925658692285164
Ni 5.551643473970527 1.021348118074823 10.629018889956399 0.31116930275652216 -0.5427405940737428 -0.7931673275345695
Ni 7.191571269937969 7.16583011816907 8.128181726721035 -0.546914008725142 -0.14828554661368656 1.625436249056291
Ni 2.320221770104566 9.04485130986903 8.358165793933116 -0.02277148936856078 -1.0960247679912867 -0.1582089763749856
Ni 4.705068106206401 4.068465017218348 2.8512189059249575 -0.4177070760094612 0.24295099390907193 -0.6517317139631807
Ni 5.80389755159133 7.026745011187348 10.279444839220345 -0.9255300322704124 0.9329834032246641 -0.4631718932104797
P 8.968613294003934 6.137381310286082 3.8486236084832215 2.8456275591258735 2.502896679512986 -2.0344496539464965
Ni 7.840828506521895 7.405991840772855 5.904614988351501 0.5159193601158405 -1.5811148014310963 -0.5274119341364724
P 7.374632763215395 1.5792173585933516 1.0567189472281802 0.30240981139633727 -1.5575928070497562 -0.7097597125411905
Ni 3.135198607736638 1.6883893131795873 9.769143773616436 1.393130393565891 0.31857407986102554 -0.9454825641329395
P 7.939722419829385 7.347896962290489 1.0384229285862858 -0.06901612215839727 0.22261896721993918 -0.5852373297853727
P 1.0451460201037441 8.454121808344622 10.032315046695862 0.15459966175717246 -3.195608949653587 0.9635301656632697
P 2.7187445319449233 3.985135521259494 6.801112534032799 -0.8032103135928682 0.6042154135497723 1.8788215509248094
Ni 4.090955139801408 2.0397767566824756 12.030924379976915 0.2797977304237762 1.0664701942626216 -1.1776387814193525
Ni 1.8864718506556086 0.1849310653021438 2.6385684421991886 -0.7391016560384175 2.804618206593047 1.6191059359628888
Ni 1.0050561332879957 5.307051878736745 5.508537405686329 0.3077525637654893 -0.3350890467969132 0.202763880167225
Ni 7.6837476175879615 5.022232250971103 4.762065186731396 0.09725943327480668 -1.2086521990817314 2.6778669345067105
Ni 0.35060553874969336 2.4229008760335304 1.3359998527491657 -0.03985544143404104 0.3483181438926775 1.2269851930629643
Ni 5.475552813535949 4.735349647178186 11.835514501621942 -0.4601660165046204 -0.10400112287401445 -1.5317169677242588
Ni 8.008518986453241 1.1892043728655037 3.162780781415592 -0.5682971023866084 1.5985669354692726 -0.1163755852789673
Ni 5.632560024754623 3.030953850358403 9.251820300776826 -1.050795720950158 -2.52071159620722 0.9435611787405104
Ni 2.351470331089137 7.475856734267977 11.758628121862559 0.733556300740156 -0.5030725860601594 -0.12454989355964356
Ni 4.1238246105216945 0.23532293865409648 1.3042723866154065 0.0977469144341865 -0.3014261073268293 -0.04128008969570955
Ni 6.9674252406887875 8.042530461760055 12.30797929752561 0.057193161381540215 -1.3249236546826666 0.4588704376216484
Ni 3.4387876334647194 8.412042623216857 6.084496367244025 -1.5245839562239034 -0.6325975642368911 1.6022765231103762
Ni 1.6960057469945713 3.013225150124009 10.909617705609097 -1.1859709554341316 -0.01680601581374525 2.563031954241986
Ni 9.232738693495973 7.968465938495123 12.174264375014891 0.7157460120316125 0.3989331378360678 -0.2829812703580804
Ni 0.9449351176359839 7.374172277495021 6.594528509187235 0.40814925711769706 0.2590363295067087 -1.4207401848633596
Ni 5.379891509985483 5.051242851354656 0.6510282646644837 -0.40858737309638016 -1.7279425325523339 0.49720584286673725
Ni 3.691041711085522 1.4397178144632932 7.113927851654291 0.07660601869051323 0.4849789617832422 0.6539382346961964
Ni 6.359731445225806 3.1095587628262216 4.300168538110307 -0.5085878594514338 -1.4685200233507998 -0.7609326358705799
Ni 0.1860076809163779 5.093856199918054 1.8349434985457733 -0.7072060928814015 -0.48095004312950723 -0.34637027613768734
Ni 6.968585664704129 1.0542083790807018 12.45079249689948 -0.21843321127336573 0.22314604336800278 0.9538034252938089
Ni 7.940753907843023 1.6374411730774232 8.212750850239134 0.8028912396905526 -0.30404349034501826 -1.0714131400901936
Ni 2.1889372912259777 0.6062819462443146 11.775436771627646 -0.3345177476744755 -1.190964037773349 -1.432143798714611
Ni 5.697101703322223 8.340400254841093 6.628604452494901 -0.08057888729533219 0.5377277142401836 -0.8403920648494881
Ni 7.754920290528947 8.872344149302572 10.116924692957356 0.13483919130079358 0.521990763120901 -0.2290906909872119
Ni 2.9180059128651017 4.796189020553981 12.367315645510107 -0.48356639770643167 -0.7098317034297066 -0.0980346208779344
P 5.949245264370136 0.5510466840854696 4.433479154158539 -0.5211011614270961 0.6204712132870023 -0.4043370824604585
Ni 3.211482672173773 6.036792809527615 0.7317624631033111 0.7593282674979375 0.9653062837270859 1.8148211368134486
P 2.946206058380797 7.7492839453115705 2.3159134657047487 4.104552024099596 -2.8868405430290736 -0.010634596895710717
Ni 2.2979987292393234 4.860951732267361 3.127316934146719 0.1711133431414795 0.4430265286108564 -0.5378146175270351
P 4.4605962372599155 7.313406581834486 8.18181634051586 0.008246299169192249 0.28816615699312953 0.822988267550744
P 6.183033864603947 3.942835302985951 7.445722548726712 1.1260449685024607 -0.8115458300417572 -1.548178969935024
P 5.698077933049416 5.084324145506315 4.4541291758029855 -3.3163795786764565 1.3076936639576253 -0.061226965131281647
Ni 7.532385961301073 3.4408874483496237 13.187290595151119 -1.486685638516233 -1.056904404951057 -1.5384208621069957
Ni 1.0379808622947269 2.99748574820163 5.732564629619655 1.0991142055498877 -1.338798870002862 0.980580179167021
Ni 5.0974756176801925 1.6964938618581675 2.7043073836397618 0.6461585907507774 -0.16178383821043751 1.090967150962721
Ni 6.674915501392901 8.43211980062516 2.7068953133882627 1.5149451475825586 1.311377797677432 0.17840190638309275
Ni 6.016117000682829 1.8367762317128613 6.401759976924329 -1.2437390154825354 0.9974381312646241 0.2427368210157368
Ni 3.134940735733229 6.05802120123685 9.95660106358055 0.10360363032527962 1.3483309778630133 -0.18774375260930892
Ni 5.68543299516795 5.948941343794689 6.63915878520587 0.0021229598802737634 -0.7655410811768686 -0.218721689048062
Ni 8.236210755749301 5.094850849074062 7.1306563769040325 -0.544280684867353 -0.2443825841492759 0.31619683787810055
Ni 5.905508330649027 7.231200671033343 4.5996251649837525 -0.16818125709634907 -0.6847050835654079 -1.0889367507962535
Ni 0.8150265700898724 5.417817113915475 11.09750693117892 0.9842434869512211 -0.2186880075966492 0.45969370485389216
Ni 7.698897597788262 0.46479402477368187 5.513497757866197 0.9357447680198852 0.5528807678315382 1.8002944039521835
Ni 1.1284939354914136 6.251535720366763 13.496061927176285 -1.3097279207788348 0.038234618001166405 -1.028297282737326
Ni 1.916891537343506 4.114559637827773 8.993717133535835 1.5678947031963966 1.4428719837653925 -1.3678821605220635
Ni 4.132730404353725 8.680349233049894 4.0276024353638125 0.26258985118592193 -1.7121482458325545 -2.833393736063843
Ni 2.699560696834148 6.327202733938597 7.2630229972255 1.1663498387690947 -1.2557324403989856 1.1816085647003778
Ni 3.5196028773903323 5.9867656408661984 5.107028854435069 1.200085797568959 -0.335932368633815 -0.669847449727285
Ni 9.247013750827564 0.16798426982094483 1.152452086551025 -1.8696841073999155 -1.0982870816629022 -0.6904939223330431
Ni 0.7581381641948852 6.085024083879574 8.725680368334938 -0.8615545578597162 1.4506372295331083 0.12075314552137269
Ni 3.9016862990133423 8.738259917244111 10.18097825666136 -0.2812522034821156 -1.5316722305292525 -0.5745076020726945
Ni 8.962479624208553 8.496265461473238 4.0964008439305495 0.27545925094942236 -0.8824902795711188 -0.7840936473680755
Ni 0.20791851246320708 3.6831581955527217 3.703680202166903 -0.20650226416373468 -1.209195216069395 -0.6172820169257434
Ni 7.286587893479912 5.711072840078367 13.073592986905048 1.7075657686681947 1.5611465858392857 -0.1215797551877261
Ni 0.5781232444434529 1.1692653411733154 9.983802876054476 -1.3296897086127422 1.7732615682041075 -0.19038967487258823
Ni 5.365634872082708 2.3508348607950205 0.3697092493451235 -0.17303395720296008 0.7652366625625724 0.879353276604034
Ni 8.029434247872622 2.8326410700221945 5.783894051898289 0.47143593299148484 0.2943072368938609 1.1235736241438328
P 0.7751282453337993 1.2903638759172344 4.146706145967071 0.28088016485467754 1.386470207936896 1.2022820338893292
Ni 0.4622447758256922 3.962249380956913 13.217551874751207 1.8903182387104993 1.3956932691970607 -1.7487748959166527
P 4.8747478844497625 7.039859644503596 12.21940671115458 -0.2644487587715317 -6.934801558107502 -0.5644787570817826
Ni 1.4540573397957355 2.1266151538305786 8.065057423200745 -0.05940662409309124 -0.2945568910108217 -1.3079086081819087
P 8.163527689645491 4.340455512814375 11.240240006037444 -0.5998383675279992 -0.24478727578686232 -0.17867675731103422
P 3.57145356950443 4.024682034925202 10.494077233486601 1.8555522959842237 -1.2984446345555314 -0.7362143071882933
P 3.3844042698885657 3.677346865761603 0.9931396838161608 0.4570459828183999 0.5393493090040066 0.08555911411874298
Ni 0.9503688491363955 7.278621490517445 2.1653631852571578 -2.6469607318461574 -1.1410864362166155 -1.1494643758676655
