# total energy = -340890.63192372187 ev
CRYSTAL
PRIMVEC
9.07198719468325 0.00000000000000 0.00000000000000
0.00000000000000 9.07198719468325 0.00000000000000
0.00000000000000 0.00000000000000 13.27777026993634
PRIMCOORD
 96 1
Ni 6.6991271840131175 1.8238867070451141 11.478884090154938 -1.4342521033068654 2.5654053395701686 0.9371614458617538
Ni 4.466112005303207 0.14492590021048118 5.951627203625332 0.6008223287078234 0.06627095531309232 0.836484759375282
Ni 2.5168141493757887 1.4748147896049169 4.949102781074625 1.804284756058499 0.3581526134845961 -0.8473055041398698
Ni 3.175249896969013 4.167952079148273 4.836082152095638 0.9360538146198718 0.08568406973238146 1.4090977155284248
Ni 5.229664866763565 4.409802181727364 2.44285749660392 -0.45416094796112105 0.5044779510481183 1.1318631178461345
Ni 7.014433165679303 6.122303031858637 2.501531480003167 1.0406725164732271 0.3341979024412115 -0.27770510956080563
Ni 5.178480715867011 4.6649518173114775 11.249550608099064 0.6719542116576427 0.09801713737643765 0.08666417425746364
Ni 5.801417778161013 7.918465746500372 12.63500632533052 -0.36061418765121117 0.549623437236505 -0.6143226771871033
Ni 2.0105609844287344 6.380410135218766 0.44853355458473043 0.42679026925765207 1.0244192878391583 0.8889103241648497
Ni 2.8142301725931973 1.7141700957471844 0.5215775654600746 1.3348848796604367 -1.1542574263809346 -0.055282317512072535
Ni 0.8150073575707925 9.059939444197637 4.539324755137551 -1.017781985028299 -0.9020342631413174 1.0872117976853468
Ni 8.886972939235976 2.5535919848480733 1.2553879173999871 -1.5411958537489716 -0.27460821580303674 0.31313876777806715
Ni 6.862867478152057 0.5687555268784436 4.73332556925709 -0.9614881955325764 0.4338631169440334 -0.5902083006374029
Ni 1.149756421867516 7.122843410843043 2.7528273354914186 -1.5738830595693476 0.7239120927821726 -1.6869851163033656
Ni 7.373683852581736 3.835010154670514 3.7434946709769363 0.8191647800395956 -0.6849503668069945 -0.09745637977696119
Ni 7.841970751753874 3.9892883663236143 12.537189439436881 0.6344307607908881 -0.4394017873740755 -0.8994618744284509
Ni 7.965259055668118 8.819078188206234 6.722189989473808 0.057399620965391474 -0.18381562119949635 0.6317485859730346
Ni 7.013825342547422 0.9115714020537945 0.4929826623005678 -0.2044340687807963 -0.5436823891617216 0.41321201635258514
Ni 1.7872993833007325 6.515981909589221 9.354706447198492 0.5199246246204916 0.46721469582128566 -0.4084680739096965
Ni 9.070961908454871 5.038200580221246 1.4528134066282559 0.061042617034617455 -0.3324114999647501 0.27931384880882215
Ni 6.254001067761734 1.7598475505086426 7.133163703303149 0.20014186916334564 0.3976866670234764 -1.0625952846882474
Ni 3.775017104355216 4.551270747675761 0.6957960046336685 -1.477627899189339 -0.4001796086486592 -0.8472684802543472
Ni 6.015843263909142 5.63782263581476 4.624886293734813 -0.25468010942054203 -0.8468846145523673 1.0456002927921477
Ni 5.330445570824149 3.0388253558165186 9.287268924315716 0.305878486671228 -0.30145284679970663 0.2768144794257362
P 0.3571496147032762 5.641387926722657 12.559443023653337 -1.4066291993832742 -0.15649739300051757 0.07728813235920237
P 4.274829158501747 6.217685903628642 12.504539358069158 -0.9514272117521485 -0.3184318978562064 0.5050227678079948
P 2.364531774872147 8.487506133771966 1.5300368819343058 -0.03553058880644204 0.26592174377263234 -1.3607576336621403
P 6.277007626902759 7.748810516809402 5.668864253879763 0.4985366458630188 -0.9258138820594185 1.0820719053556203
P 4.70372548993322 0.9742769764949464 12.87367397485493 0.7648736227961989 0.4164402934818957 -1.337729033977451
P 3.9246595306293486 6.414829254059874 8.210414990325674 -0.09528842559136493 -0.7410158423419948 0.20149015566112397
P 4.558192673789563 0.7147664367392665 3.907701265249886 0.6648579669324937 2.2347234207020157 -1.1457406471591751
P 9.013826534058117 5.5511397996189835 3.762627491650604 0.06776579469106395 -1.4398069716868236 -0.6485893116794572
Ni 1.524638142445022 1.3709133220015441 2.474471557051334 -0.5337859559836162 -1.582588043542513 1.1588879831744108
Ni 1.8227073487295256 6.534942362509071 4.859105948012044 0.2924565568383673 -0.6626367909114588 1.7199919102466894
Ni 6.0712186728195565 5.559957771024772 9.02098342463633 -0.2960753845378772 0.772349876568586 1.0937447137078582
Ni 8.763385259749313 2.015913456784099 10.132850692618796 1.2016320590101564 1.2479720797272766 -0.23521454449676263
Ni 2.193651826930373 5.273437204245996 7.142829905497456 0.45571132316737645 -0.34699171177177013 -0.4949725826608443
Ni 0.5441432260308098 8.928667791685562 8.907006608223012 -0.32084770638655064 1.4627887772939776 1.4576977359243155
Ni 1.8254198728553797 1.1480327443293477 11.659634359999487 -0.24134688264674567 -0.04597595250948212 -1.6634099000865867
Ni 4.502454385397428 6.83912608806055 1.3703853323556419 -0.5113422822681194 -0.07632448289435242 0.8890895300551913
Ni 5.751304121735532 8.00915840096915 7.902941762272406 -0.7293188656200408 0.06822602215693412 0.15286699533678189
Ni 5.176530238652767 2.5625732520206346 4.974437212090881 -0.59150619351322 0.3704738540541104 -0.2337428450472426
Ni 0.8114402522654885 7.480406708155479 7.222655226687435 0.6178682284465166 0.15682289466073637 -1.9084933669576294
Ni 4.852106910008377 4.5610412777210625 7.177325229029723 1.7917326304251016 2.022514078851175 -0.5742911151865142
Ni 8.099587967813681 7.151030074585615 9.046914792400015 -0.35614715301879313 0.4219905338761636 0.15586130207841545
Ni 4.637881007975193 0.6351461424564583 10.51875578465224 -0.8299700981852158 -0.6784922698864766 0.6387216748567581
Ni 8.275194421004853 7.130173576373778 4.884280712056343 -0.1170510140794371 0.5357348521798709 0.23095551211009255
Ni 7.171823068888148 6.078666774181852 6.948974243170603 -0.1295943979620865 -0.3532672603678368 -0.61172483455294
Ni 2.1298848300051914 5.050357042858853 2.99137523478686 -0.2465903904338721 -0.9428171014856344 -2.7181782325312476
Ni 2.1642041569888253 5.362950500399184 11.548194071163389 1.6171498406777827 -0.15840206622239816 -1.208417971583738
Ni 0.8863667004522533 3.255582342234696 3.913012006464853 -0.3093908706998607 0.11896828570680802 0.09968886865190572
Ni 3.5735554880915212 2.71529108190234 2.907499271382185 -0.38390324008613885 -0.21472542340447534 -0.16771974407889825
Ni 0.9636083197323894 3.2834605584178065 8.242348384717001 1.332170566053067 -0.11427987909220318 0.039180783964519614
Ni 3.6229524575406056 2.889573024985235 7.181122762805918 -1.664030050169089 -2.6865922301948504 -0.018516570746948752
Ni 4.257918974653613 6.633001470456758 6.000237631797789 -0.42475781220865555 0.5201048589520978 -0.24855497035941068
Ni 0.6863321077504206 7.546586853634096 11.45307247262022 0.20029716379428728 0.17953422021532306 0.3736414531488146
P 0.11243911460953139 5.656610720980795 7.868990757962718 -0.06227186145602825 -1.527878310704459 0.11505223848185346
P 8.316027434685354 1.5536866449566782 7.821880836447171 1.2005293128642807 -0.4201143998993732 1.6276993340588548
P 1.8125920831765907 3.4454681030315353 10.441770902605422 0.25606233448004934 -0.34566887919528855 -0.4495437609040838
P 3.9060075252689597 5.984599340533081 3.5963905866774333 1.3481180905212589 0.4568377234623358 0.4191515217654717
P 7.148734861863737 3.9838361021107773 10.264685715526243 -1.307149104308065 -0.7380860702897095 0.6168199896876603
P 6.23821581030693 7.793889220426023 10.097371965691067 0.5324883202181152 0.40161479843328896 0.7834814677053732
P 2.529569363158234 8.213015021812195 6.05992132735492 -1.592200626931613 0.5274083345920466 -1.860079751540932
P 6.969808061414832 3.9185994432846307 1.3127455554792962 0.991985335680169 -0.4952024392834633 1.091956254348868
Ni 5.473401942647597 2.9226041298087644 0.04015080025486837 0.34242851788111994 0.5809906386938768 0.8828386640494732
Ni 1.379767581355503 1.047977799232203 7.000983037689365 -0.5717956024581701 0.14184441897403313 -0.05904229877513703
Ni 6.789202943362972 0.9138666147756711 9.456255548561618 -0.15627267858422117 -1.5381611806877058 -2.4651770534750255
Ni 2.659543721523162 1.7362966721450388 9.300466851065858 0.02685851495374084 -0.4008128713572839 0.09666088045885934
Ni 5.897653416713058 2.0645120913734 2.5828582150487613 1.1882718356531663 0.07241640608919787 -0.09762864368876734
Ni 4.125694763502023 7.06711419443795 10.442634555771914 -0.053458634039772454 0.229716754606985 -0.47694040774948177
Ni 8.305875881184248 7.291691233687185 0.3723089050521137 -0.1520920648439703 0.4183537084545247 0.3348784734480039
Ni 7.808685631293142 3.718661920844158 7.983365834607223 -1.9651823350092414 0.49877781533954746 -0.11868315036622142
Ni 3.220682408080311 8.378733009126506 12.576478400922667 -0.001179879240714097 -0.3193479819125726 0.15622562739636967
Ni 9.01936044615434 4.928311601169498 9.897674850907235 0.7383876606905283 -0.3954436366255706 1.143480647480405
Ni 8.418459240387763 2.2983516293935295 5.713915741535254 -0.14565299408684593 -0.23769874437119706 0.37931150695039834
Ni 3.6719865475079705 2.885064247424869 11.815462974238233 -0.2999652065105866 -0.20472048967296355 -1.22005864114646
Ni 1.3707137382865984 3.321136520607347 12.67663223067858 -1.1607949703891363 0.698767732306061 -0.6618024679356215
Ni 3.100460435786598 8.608109129521484 8.007969063467815 0.6260276243288573 -0.43997925714410036 2.2484554255761275
Ni 5.513227965766326 7.726820020217193 3.6515863702443974 -0.8890789885322301 0.7139195003458351 -0.9146835764742118
Ni 2.925652317455209 8.362203848734177 3.632160524389241 1.1892737945551197 0.10689849902646752 0.28801729012009103
Ni 3.4907826783112736 4.560061503120419 9.370759328271063 -0.44876651641842713 -0.09642433896802104 0.13630626276462332
Ni 7.614889844080774 6.3775161713520525 11.341101472542109 -0.9877671838337633 -0.8039739312317703 0.32943364828334876
Ni 0.6603381432761393 0.322246958952778 0.24841822119821516 -0.00967171876180915 -1.6891196461478653 1.5276265997049692
Ni 4.589500101074924 0.19929250416171604 1.7473944338947291 -0.876310118902336 -0.05072323738648039 -0.6852982370647166
Ni 6.258654997114788 5.600119457664091 0.15691362388908914 -0.270265879673941 0.20035449939478397 -0.20563760217059424
Ni 7.782630884505672 8.928196048359325 11.448345967370821 0.817227968028199 -1.6716140331639338 -0.21850134550713982
Ni 9.054414604088457 4.619165498705503 5.89093470310902 0.11504298251047285 0.6528563144859273 -0.289532698323353
Ni 8.275412148693885 8.606167724294284 2.846580878388502 -0.8934141255724742 0.011011777729471359 -1.4616729185219794
P 8.534571602551 1.5188865026597658 3.645451892605927 0.11722790597693358 0.7151564580767296 -0.8880171229266189
P 1.833929396701705 3.3279042229414184 1.4915979656344498 0.637893522528508 1.4774754327718749 1.6852588776408783
P 4.610592470949877 1.1568416437480917 8.2793403190835 -0.40817393970804544 -0.21716488608390339 0.6961192389396206
P 8.72540085000031 1.6791975856964552 12.34082446549394 -0.4533165976829548 1.0873976884439078 0.060743854847276034
P 6.432029741493384 8.081915737053937 1.4993390921782337 1.3226484854952445 -0.84740577716316 0.3777853001138591
P 1.7053974842766124 3.0787330268186346 6.11819705052298 -0.5194363721301635 0.8864258671800991 -0.14552546737004615
P 6.582470502627299 3.814108296523463 6.03173284921494 0.9157181883863132 0.9751849762933787 -0.3583611299509764
P 2.1715252505325187 8.524837360453873 10.258763522384577 1.3941814605382248 0.6909767755067326 0.32857155739336963
