# total energy = -381172.7860768103 ev
CRYSTAL
PRIMVEC
9.22250012091994 0.00000000000000 0.00000000000000

0.00000000000000 9.22250012091994 0.00000000000000

0.00000000000000 0.00000000000000 13.49806115156498

PRIMCOORD
 96 1
Ni 5.002855717974903 5.135466043433205 9.125188650756535 0.6439196741179297 -1.7151145275497302 -1.1437434142234884
Ni 2.040339756086468 2.5786386277986972 9.972974328203835 -1.654891063982298 0.7156143715497546 -1.210851263615579
Ni 8.321009719387854 3.1727889586510245 5.801088903685125 0.5609620021777759 -0.5282565415249548 0.2184982601833463
Ni 5.4941567304107215 0.0916891713383328 8.640459591719532 -0.24622118001991147 -0.3522714721134707 0.7052654242152627
Ni 0.9288625181990229 6.057227236741562 11.525075864057328 0.10995194114081064 1.299866968824355 0.888387104671528
Ni 8.79037962716133 5.7032861371909185 7.200621702137601 1.023892211691095 -0.1904917476680913 -0.14640966974721237
Ni 9.105595449808195 1.5557988360465698 11.585857671621518 -0.27308766539345225 0.8868300445970533 0.9825648136972174
Ni 3.660225743646338 2.5181759187295945 5.884911282644577 -1.403771161109189 1.0036332043317424 1.583244960400222
Ni 3.8756633403294116 3.1428342791122135 12.737053449647448 -2.2233169786372873 -0.9210072046993946 0.05939325435665255
Ni 4.691882245262721 3.3327255511886045 1.357405341351081 -0.35528711901134297 1.1738026955027139 1.7578177228452114
Ni 3.570573822526639 1.0608733811665538 0.6857740224416683 -0.16206743088912734 0.8726480966697165 -1.395337685629855
Ni 3.574152152471546 6.9280341183344225 2.5006504022494216 0.47986786580892193 -2.561973945291117 -0.8457972950254594
Ni 3.6678619735287685 0.07510250534370487 6.926826893103009 1.880658604133548 0.5148682931435068 -0.2671851838660882
Ni 6.536234656866655 2.1742781215243228 0.556251389935828 1.1510918841687594 0.10725125438019595 -0.6346014820407974
Ni 8.296201194769813 8.34598424900334 7.108861517550362 1.0319973572967323 -0.1775668120763071 0.25056428747995557
Ni 3.0120776761253714 7.72694239103425 13.38304345220164 -0.2531880982560478 0.2878385984503817 0.14453327866010593
Ni 0.13671710464507258 5.37627473722566 4.93256920205705 1.7652494965329082 -1.507661469436952 1.0299643860271037
Ni 9.113526799686083 5.365917869885116 0.31128980445731186 -0.15507994382770068 0.7015486374853079 0.39629955686796264
Ni 1.1782204693598515 3.7640895370472274 6.768143638296132 0.4836350461608381 -0.3635151633480901 0.878349517929868
Ni 5.955383170809576 4.0822565596486555 12.11537303446898 -0.5852941511652372 -0.7193787236881933 -0.34298259061237707
Ni 8.302749169669 0.8646342624378955 2.492808510620157 0.2930329981671276 1.3213086836378987 0.06994223351709246
Ni 3.1956699807987428 9.330772006341327 9.647779760710604 -0.7648589675081795 0.5174723064252572 -0.6670423761783222
Ni 6.583398521140508 6.308687917870016 7.419074134024259 -1.2495512512889384 0.49049012140945847 -1.7582383553223977
Ni 8.725637678158112 2.94114742971743 8.870884672921855 0.31873348825702524 0.4419044991912712 0.6752084569288822
P 9.113619024684663 4.337065008225568 10.563906006605716 -1.4758260700939099 -1.0713797157490967 0.49511013667997317
Ni 6.9507860254841285 3.814859398765563 7.507513296412629 0.5864218370117772 0.8576585652394197 0.21973058992855063
P -0.3247887774994786 1.5233356365463804 4.719704682834361 0.9648180312367578 -1.833764510685171 -1.0666383444093697
Ni 5.692062354863722 7.559212786116652 12.889811248295555 0.27565594034126073 -0.3860012602657481 -0.4424241191401671
P 2.332158096593567 3.228179292798222 0.9402735172733365 0.3126173480569584 -0.5299043615410228 -0.06621901902923436
P 4.604028711615334 3.950171916682261 4.60193428189758 1.9416096898956239 0.2213444713828898 0.9037242492492307
P 2.0111597665357297 8.068359335777716 11.439620180373023 0.42186017894588634 0.5525308406912871 -0.7083121814613866
Ni 3.649555311310622 1.8561387664224682 3.6606333781400617 0.4072575985413631 1.5474104672001157 0.43250454603360994
Ni 7.590882850629053 5.55825310442388 9.267727919561969 0.5097137455257609 -0.7924983264920029 1.710149984455603
Ni 6.868438324251971 0.23416941614467476 4.448799283005282 1.4355355980049793 1.7496722109199414 0.198027136813188
Ni 3.315073686460377 4.5692783321503585 3.1580606263777855 0.5568549219879378 0.16932694066501805 -0.9142470031574255
Ni 1.2118272588424337 5.47846925815225 9.356585783443892 0.7029876839246797 -2.3996288352605704 -0.3200624914810939
Ni 1.1404451099414494 8.811886496830205 3.7149225458042134 -0.866418827930553 -0.26203963510940675 -0.2774857944611479
Ni 0.35426019804572995 1.3758770863166854 7.270500583561731 0.3067632032690265 0.745640999818832 -0.6825687539486954
Ni 1.7212228159996645 3.3340904811675895 4.434841951720172 -0.6641059192578175 -0.7651903827056693 0.40225526023076535
Ni 6.984328257467705 4.8645920001036425 5.192434347306108 -0.4305422801009165 0.13895038525568973 0.272469315083163
Ni 3.6754613134117675 6.8949253438441716 7.056624356104618 1.2320081001988523 -0.6292566727891162 1.6681900950840498
Ni 5.919129523867745 7.86497554640906 3.3163519249406965 -1.8797003539853367 -0.5126376040407752 -1.3195299944709211
Ni 5.209495049793437 6.149793467816391 11.071217278795038 0.7210733377817969 0.7447771091566399 1.6508181794645052
Ni 5.380839874655374 1.2658526630106464 2.3604056914086606 1.0033483261014722 -2.0672885548533877 -0.20679974079949545
Ni 3.2016369382068746 3.9937758960109244 8.374885719058367 -1.5268133597750544 -0.6398763572864915 -0.08002070079901702
Ni 0.06122725430733136 7.563685698547786 9.2234811319932 -0.436603655803648 -0.25970044545326887 -0.2678919801251257
Ni 1.657126441986507 1.714840846097923 2.5639029175255716 -0.9088407445401897 0.47511878115971073 -0.9078135888272558
Ni 7.646014954780227 5.7269326268268514 11.8187534605358 0.31060391717135544 2.1719221691050787 -1.3523313572716582
Ni 8.202251588716281 3.662734263607716 12.49827278357377 -0.6272820655612488 -1.3815583724575755 -1.2472997362506002
Ni 8.209675701101979 7.824571774531125 2.684358910421004 0.3701079860742594 -0.8278723351159227 0.05257391744197397
Ni 6.4766849752834945 5.700915954727409 0.39872555886113126 0.08583705037047798 -1.0167856825533004 1.667217189647819
Ni 3.286732944396717 7.4208383982470965 4.894072643149752 -0.12850913531770772 1.9403117970198067 -0.9540163126355633
Ni 7.421161185742125 0.9155618289038032 9.745937593449343 0.46769883454655575 0.20377355237866196 0.9233101418009583
Ni 5.613043976080307 5.488208218002306 3.1934519695828922 0.5055534435004843 -1.2937515999552363 -1.6204063999418674
Ni 8.847706686278709 3.2242505078587107 3.221515114400826 -0.45758617159258613 -1.6177684480983878 0.16240064585883
Ni 7.781133800199907 7.254575170806922 4.91907115126487 -0.18726038521498717 -0.5854216778820369 1.0010273912777792
P 4.2766115216563225 0.06300166328001217 4.685176565615963 1.1410090460114606 0.7448776392902462 0.32724795348593966
Ni 4.85441958276026 4.431687856768733 6.851359176764926 -0.0248607677974217 1.8824653183249838 -2.514585171594508
P 1.70494510375028 6.638862635286571 7.80928917001642 -0.2751689734025132 0.37395384218291083 -1.7079882009175937
Ni 5.817156342937747 1.954708844904861 5.711893496308398 0.7898886567832977 -0.24209867321110565 -0.7217639360909183
P 7.676393869312506 3.943845281779667 1.2491331930180634 -0.967455725969921 0.23144582148294982 1.5907628660438218
P 1.8216373944536592 6.330591355032785 3.7505573630055715 -1.0436429119554607 -0.027757115508610257 -0.4621215975690945
P 8.578409690424866 7.445397915368972 0.42594207819209956 -0.5681474641826215 1.0804351410831459 -0.32457374908788617
Ni 1.4057026508574844 3.7025385729948797 12.060463192564384 -0.2227727191889841 -1.3640699858648249 0.2990208403194463
Ni 1.5987941303846045 8.75417209271879 7.773128670323155 -0.08516984910012429 -0.2541743734287171 -0.28375800062310486
Ni 6.142194127933391 8.53056336116152 6.510289920266106 -1.4966165244767 -0.15289733435408506 -0.5753622367635058
Ni 8.240303623130423 5.347546650167964 3.1633921535456997 -2.4532479061376073 1.6664705412897818 -3.0258379794726147
Ni 1.2591294606141585 4.62900324123082 2.2799439913974675 -0.7719472418135286 0.3269311935764692 -0.763298307889279
Ni 8.90586377038331 8.383095588431967 11.369524570202232 0.9427435679352215 0.21771793037389603 1.7570466490071415
Ni 3.4178492248780215 4.5424685250631285 10.951894731132155 -0.5539356914586137 1.0728827826571847 -0.8876787657505938
Ni 3.324305408818243 6.865588571795847 9.760461186225735 -1.2779318593141604 0.36337066735042584 0.01804708730969795
Ni 2.0538507183784507 0.9460624804342084 5.464379122869184 -1.6054459219772932 -0.21863735686437186 -0.7853300908783377
Ni 6.405966846372288 2.933216079839543 3.6134169456170167 0.1926252490713263 0.6688069242779127 -0.42366046537941876
Ni 6.327262032584045 3.2795578395071865 9.725757841510035 1.169093977173135 -0.41164261498293625 0.8770277137946508
Ni 4.241012672204411 2.4103925628890512 10.282863234932714 0.9271418568422227 -0.7690156699890305 -0.13451060431678127
Ni 2.654281571634081 5.265235838935239 5.517197301805984 0.3936834594013543 -0.8675508846524672 0.8134803280603086
Ni 1.0807478683605616 7.205142571567997 1.7929876986447564 0.9481845364451349 -0.4598520848086274 -0.3663690878571174
Ni 6.753894876015509 8.732305545555452 1.0948767381430304 1.491795963159605 0.6994210496193437 0.23122624927297594
Ni 4.5188128129273375 8.90836306784483 11.57288622557123 -0.36922275525582865 1.199450477977805 -0.7655482802657202
Ni 3.2939357167858216 9.056328855566715 2.5414553528711794 -1.3921438612829056 0.992875451594606 1.4916494102794116
Ni 0.10339990165803176 2.7085928732978926 0.6611591703206441 1.6390152732923065 -1.5226319747038553 1.0308946111508568
Ni 5.148488213232713 2.4345094000177436 7.851403715618014 -1.2975707165910104 -1.4407788486817896 1.6825646186381666
Ni 2.3415834914484517 1.1383884924731136 11.730476614144933 0.06960773299580916 -1.0411934219737036 1.2592795343202958
Ni 5.329802560441156 6.436207423406696 5.149280425970515 -0.09845911000986268 0.6872484188125519 1.7144964343497568
Ni 6.984180697469976 7.7402781258289295 10.338016550833563 -0.7433925701042875 0.12552511298871932 -0.04905561987607035
Ni 1.037872466520681 0.27664179474076045 0.6723663521480957 -0.3573164907365459 -0.4625563711136679 -0.2883265938303937
Ni 7.2715999055448055 1.2910208651231512 7.431815939828083 -0.14030407107010676 0.4145417909076022 -0.16924877912891498
Ni 6.989677307385349 0.4753562324313081 12.343071944713277 0.37123464347953483 -0.4701236419379645 -0.8281484715954446
P 4.726503509729684 8.298746604730622 1.1532689959940101 -0.1954174671044828 0.08938157318862672 0.3317039323747642
Ni 2.223323375769211 5.395688099426768 -0.049971193230632226 0.5039002241677774 0.160763110255407 1.322628945111219
P 5.3645990524054215 7.165817832173451 8.992071087806043 -0.021517048136169396 1.5807417343623937 -0.11882276126787922
Ni 0.6049766234356433 0.6897719761301149 9.639167790343194 0.3177220162733754 -0.5064263330237407 -0.7973443417303945
P 5.361306619956112 1.7998169597896114 12.039271732390654 0.48851885661570066 -0.6368797365520128 -0.2792979079692222
P 4.269381081767644 5.31788709062461 13.032202034853274 1.7155724410227549 0.8787300411977381 -0.6681965443874235
P 2.6309394244934627 1.8123134470972126 7.816672703402741 -0.6576341954905448 0.4464931470032181 0.6471757191613822
Ni 1.0430831789404558 7.307521542491748 5.725350968101203 -0.4276305057707603 0.9998027748420587 0.9932896563138893
