# total energy = -340892.61017622653 ev
CRYSTAL
PRIMVEC
9.05195794257336 0.00000000000000 0.00000000000000

0.00000000000000 9.05195794257336 0.00000000000000

0.00000000000000 0.00000000000000 13.24845543489139

PRIMCOORD
 96 1
Ni 6.22501319650926 2.2382051612703147 11.643073331607013 0.6109113375127092 -0.45316824503054853 -1.70610101119721
Ni 4.555823147316876 9.3555603464314 5.889322250932531 0.30253785233376934 -0.8632944233689583 -0.3386829347957586
Ni 2.850723981985501 1.7109195741232515 4.814316282163039 -0.6788100582372115 -0.10094330988429713 0.09623999087135683
Ni 3.371111977376095 4.379590583134868 4.912169755136502 -0.1652748820828315 0.24475205167355263 -0.13038141263975608
Ni 5.031141445390597 4.851505345118782 2.375965094896754 -0.020324570489964996 -0.035026138366197744 -0.8778890333536816
Ni 7.38633410779031 6.209461933205306 2.706805096349742 -1.247535249300174 -0.5926115107622568 -0.6986039530346873
Ni 5.049435451873304 4.389620152250573 11.42203629246832 -0.26715253085593993 1.2192762544544808 0.5368008315505401
Ni 5.59646335873278 8.034028836071949 12.732599545700062 0.05245976046161289 -0.3758544016397333 0.11365304414148167
Ni 1.7345361317251242 6.799848717379067 0.20047189647265412 0.9256179639985285 -1.308449311176727 -0.620478412375854
Ni 2.5187524858218056 1.8853055389373863 0.17394151369176922 0.30926900041001576 -1.0431515741413389 1.2962836223484708
Ni 0.5974029565759117 -0.20406280808655328 4.598022468851629 1.0541358410669845 3.1154982602439247 0.13150961270692837
Ni 8.666253768668806 2.177629460437914 1.248196169973351 0.7040850307539164 0.4226009137666528 0.6213487307959492
Ni 6.974343305685429 0.5757769244691143 4.7738558416996995 -0.022161880809019898 0.7793936707892448 -0.06861477295492054
Ni 0.6179988758980814 7.238008729153174 2.2062915792537705 -0.3589105746965432 -0.49428815499930995 1.3086434294654041
Ni 7.613846012261551 3.7891856950457354 3.9063469937627 1.3522277418142583 -0.7114975211679037 -0.9050082581679769
Ni 7.660210139527474 3.7829670001156908 12.626903456587748 -0.17571021848354257 0.7416552756982066 0.15318118414309104
Ni 8.011435149688555 8.78075198143465 6.931260513080557 0.26610403498676755 -0.1282545961047404 0.19118286019784494
Ni 6.806112672097539 0.9924747445705357 0.3191421565358167 -0.6918864318051955 -1.3086807104612428 0.5454477085922607
Ni 1.9372818799684148 6.455638974424367 9.294943911789414 -0.2616835373215687 0.1248540550636237 -0.3984505417726944
Ni -0.07547341279145046 4.796424182601575 1.3999377574410525 0.07717474670978966 -0.19181792267868253 0.5441433879585403
Ni 6.597962905115913 1.7020848634220527 7.095250304492716 -0.1282175722192179 -0.10074379227898134 0.05668074052149594
Ni 3.3739090323009617 4.471956759359287 0.429553410406588 0.11470128290033796 0.26155729615634954 -0.46370822532992395
Ni 5.752455745529664 5.043642198954485 4.659269824944305 0.5779454241096498 1.7869105264461094 0.4528854236828071
Ni 5.448617733852984 2.6787005781273217 9.234994606428861 -0.3917849568270607 -0.32542864088901374 0.25423787967680084
P 0.19730914245728642 5.758312362152283 12.451798766333372 -0.21726438777624518 -1.3327236103430595 -0.19486493703512248
P 4.071317112192217 6.276301588756179 12.564264814598788 0.038597400657223856 -1.1455269884864723 -0.6171256938535371
P 2.238784486562196 8.512922657431504 1.637058314995616 0.46824622240959357 0.722417253404201 -0.8520131940281843
P 6.394981805972796 7.593506263341886 5.670193364473973 -0.32645502527099907 0.7911284427276698 0.804053378319454
P 4.568296745007708 1.2648934111203094 12.787859031783677 1.111497409705589 -2.125745670549016 1.0572512467675148
P 3.995814733136172 6.08313281174431 8.251694020972735 -0.10731218952511842 0.06904183319001012 -0.02257145754261274
P 4.749489782001455 1.2308489982645627 3.722577769611615 0.05727877911681103 -0.8054348320480129 1.6174131216414982
P 0.23249048119835136 5.535534631550639 3.652201514192957 -0.5277760023441104 -0.014607979721161938 -1.6602081053198376
Ni 1.6803963728072242 1.3955041085666187 2.6256714944174515 -0.18620340470538255 -0.9628863614316837 -0.4309246031409998
Ni 1.6654334867528375 6.789882511967161 4.602526722996011 0.9562775978659145 -2.057231170617386 0.6030884990341807
Ni 5.991617519542343 5.574322270233669 9.22904565983785 -0.4064312459853259 1.321839102220072 0.017483501496744082
Ni 8.721199151820729 2.4653278315610727 10.207099730619369 -0.6191332112018693 0.33818774032689497 0.6426896583655706
Ni 2.253041319917102 5.137257545339525 7.136810557814863 0.16533838833091524 -0.059840626306716306 -0.4387081037411606
Ni 0.9400548576129103 8.891330696522607 8.919959323095025 -0.6803522059133509 -0.8212787410588048 1.0812810340232089
Ni 1.3634601783594018 1.0646912629866878 11.457581519908347 0.18229609923117637 0.4723281057884511 -0.8637873038449768
Ni 3.854395998213191 6.9909717519539765 1.2862886183061224 1.4224283711990597 0.4569853047837936 1.897215737161281
Ni 5.863821980936272 7.744583437115461 7.872894032113845 -0.7871023522874122 0.821246859379605 0.5676694961049386
Ni 5.3222252486881905 2.8789932458378 5.258046868696899 -2.4359400109867786 -2.4752228677468016 -1.2842254056323559
Ni 0.7780655488492794 7.262041676808588 6.894867117205383 0.1607127166334458 -0.38247370672846387 0.20195655377458122
Ni 5.157380047274734 4.293153439194553 7.259544241683116 -0.013700637415544144 0.44773524694043537 -0.3095343382562605
Ni 8.279074382580305 7.143153264565202 9.061254046197712 -0.598722251645685 0.10153929159708318 0.3217594195675426
Ni 4.809196494896033 0.494606209510313 10.702194745844706 -0.3555761110066715 -1.0081079522736445 -0.8189639768826993
Ni 8.17936706867282 7.314099485458787 4.627923800674652 -0.7621438825698617 -1.6051672143946096 0.4665762909063384
Ni 7.302974629463117 6.016229792489638 6.939753059781237 -0.4671403909399245 -0.5692831204489616 -0.3523807439978254
Ni 2.360904447699362 5.488745062273491 2.6083958331743795 0.08661635173866374 -0.6825232454227407 -0.08984540019892269
Ni 2.359438030554286 5.236530365278099 11.36895018142503 0.09974980379682821 0.2413147438572296 0.5367918326894756
Ni 1.2076035709278017 3.5071176416030543 3.6479624824087646 -0.8979505799902471 0.18530171882671959 1.0278283135207071
Ni 3.7980656655353626 2.8622561760770244 2.7933046987980883 -0.23371533424341684 0.8108809427642486 -0.5584832016199801
Ni 0.9202491741966982 3.340344373202555 8.167142399818342 0.46381955409680764 -0.5303368210927512 -0.029831738649451846
Ni 3.5107112688042594 2.5577211636585484 7.031736338195554 -0.04467034632418113 0.7850968918216091 -0.03852823798218526
Ni 4.494876316219364 6.544429627362952 6.121752989210156 -0.9210041193756008 0.5581677272620903 -0.42433409440767567
Ni 0.5803907073014924 7.5924743401657215 11.21558557794429 0.5632001474796752 -0.538938189608517 -0.09440936542052128
P 0.05345452572109579 5.389110164027492 8.000065890835375 1.1772191773834306 0.8552671821891076 0.5734704190574317
P 8.713812754349236 1.446430422506111 8.280602353037642 -0.971280756142966 0.07985177932132054 -1.168634006817581
P 1.8146369052854814 3.2890831368286935 10.419260420051508 -0.157673929807122 -0.2701175270215348 0.016623467489293952
P 4.15848746470507 6.25392514935724 3.6946099359502487 -1.386270176110948 0.2525579208712167 0.7050574219695148
P 6.940932529867679 4.083238540464224 10.394248050574507 0.17050681990573216 -0.8068347977193331 0.8215836738937334
P 6.177589990194116 7.780456345423709 10.306238581584195 1.0349626105726433 -0.6733207529878662 -0.6281742383582148
P 2.4840382280973206 8.3054517872763 5.858850645775311 0.03595970592406065 0.7206725027989525 1.537237640432172
P 6.881660310942013 3.812702681113066 1.8241930570142268 0.7897043086866335 1.5071904433378043 -1.411379569584066
Ni 5.269361815803967 2.9473898381106056 0.6073809295328086 -0.21524684312558418 1.1469799188829148 -0.08432395616006123
Ni 1.5521753921899275 0.8757262151240376 6.995913215654575 0.17132134538722754 0.9845219374235884 -1.0823814661762392
Ni 6.903955282721779 0.5293467179120865 9.35486696647268 0.3723769846140942 0.559138832926108 -0.6709206281868058
Ni 2.856915521042488 1.599987832685555 9.17462166944862 -0.17892281188356926 -0.6380588444617785 0.7091205362952949
Ni 6.39116187982945 1.8365879026731935 2.450169423220675 0.8468149376566964 -0.30715066851543227 1.7598350103855565
Ni 4.147543647863114 7.046903798493636 10.515113410376442 -0.23559506776463296 -0.5098114474458898 -0.7461084263735537
Ni 8.012023526938124 7.123546724218073 0.303776458364418 -0.18218245647144754 0.9559456684477923 0.8585733637442053
Ni 7.460134718801452 3.7617130034697746 8.154755700921294 0.8585653933244053 0.013254036796428786 0.4723944402500122
Ni 3.289354695559263 8.453813373744179 12.533250091980427 -1.3404250927523753 0.8071150479639133 -0.07893106727926406
Ni -0.008508840224515273 4.963487113648014 10.385079322634708 0.5623110600065025 -0.2966934777378503 -0.6500183308164998
Ni 8.798122688233422 2.174515586994049 5.880074770960865 -0.4034557082967697 0.2628523608186892 -0.16009025255809847
Ni 3.688835692142569 2.4330666543693997 11.411133209435949 -1.430727892203691 2.2605115854097133 -1.8028958461307723
Ni 0.990030715995409 3.6187192279094895 12.757970372701413 0.5520235620375654 -0.19528762639483788 -0.821568761495398
Ni 3.276537123476376 8.268664631241801 8.153668560803245 0.3631199847922004 -0.06510444580881691 -0.40709073394619566
Ni 5.443430962099105 8.111251087088268 3.69605372320111 0.08741802170435269 -0.7628365377615121 -0.48829388508908805
Ni 2.968435639729752 8.534058978627508 3.7899062308775138 1.3481967662779943 0.09098774133348202 -1.5251958787762896
Ni 3.531078173596982 4.212989301930396 9.31296183356271 -0.2769291506267295 -0.1407254748782415 -0.1287582752140363
Ni 7.23226978798047 6.218948384859871 11.486251785486122 -0.3371837245424128 -0.4878408567120695 -0.9731314361984597
Ni 0.615150224814406 -0.16813558803219036 0.19783687159036006 -0.3824803915966832 1.3289808554711757 0.43907217194879866
Ni 4.375797812864579 0.4907699898431325 1.6802216700238912 -0.19356550149740856 -0.7158568265778639 -0.5602678043242286
Ni 6.093614978744299 5.668000980322508 0.30834950738721073 -0.759807264016885 -0.4515445933841966 0.6840157708078671
Ni 7.6166792750171615 8.762657118021027 11.63179911830953 0.2907555149868606 -0.09662308524238843 -0.27842578977691407
Ni 0.09598152812406942 4.89067316602461 5.664827363957918 0.06538649582560997 -0.5987003972688141 0.9039841877788366
Ni 8.026398035742943 8.840006096444945 2.3475464737426415 -0.23585320652202604 0.8887583719680178 0.3293750271312714
P 8.676047986884685 1.5865456755223581 3.6357070368981574 -0.02937485361769135 -0.02684437388635377 -0.48925959143646713
P 1.946759279665295 3.372578394521171 1.6320371940673835 -0.8623896521665019 0.4326580408923388 -0.7486689880118783
P 4.68884166550757 0.9395207921094566 7.958744609196129 0.6550718340800072 0.32044430030054494 1.3101372404021112
P 8.43333784545923 1.5746061433349796 12.298660461794773 0.4849540220825777 0.8904146766245181 0.4366383656963254
P 6.232716412499752 7.851179290821728 1.596875769633227 -0.06009773662284489 -0.18023561715772185 -0.6210437979610207
P 1.6794368652925449 3.2437961925273635 5.897523324595733 0.8380518467520857 0.1178323723301519 0.6758653737865908
P 7.008668329229431 3.6619242219431185 5.974192500997459 1.5250138446724704 1.1724649505278968 1.5587531459064448
P 2.4661968194988955 8.525577294276049 10.39744067605024 0.2845452724110906 -0.09398359073701233 -0.12281234204324655
