# total energy = -340855.88163031015 ev
CRYSTAL
PRIMVEC
9.44684218783988 0.00000000000000 0.00000000000000

0.00000000000000 9.44684218783988 0.00000000000000

0.00000000000000 0.00000000000000 13.82640844334912

PRIMCOORD
 96 1
Ni 6.834780660286425 1.306687170169991 9.82660776761839 0.23258841972782524 1.7304244184339228 -0.0892123946006141
Ni 1.1201498302178752 0.10256719644799482 11.506046535699987 -1.2582608632477943 1.1835075814953038 -1.039672614453803
Ni 8.475772671245712 5.600267362153006 11.665921109102886 0.04091704992933598 0.7482565830648082 -0.39001655207272834
Ni 3.3137537511933144 0.7696549917981748 7.596823386889957 1.8674189655148226 -1.832817059170237 0.14292633918430225
Ni 2.670943394815227 5.181469967503093 1.3996337028376133 -0.4393303107061917 -0.3872716423377395 -1.316349025639778
Ni 1.3379845573502482 1.483418688240698 4.846750410354842 -0.04859384974830341 -2.3866141681684576 0.04498993444712897
Ni 1.5423858753156046 2.669583049583124 0.7857495763254927 0.3643122053280887 -0.13065420668516853 -0.7720822247294962
Ni 2.024817196933889 7.813549054784491 7.934588605863417 -0.390227896752586 0.059523352176613614 -0.06983090475020877
Ni 9.274002470391562 4.51970924629446 7.165867906728122 0.020243837850700618 -0.5751843164247449 -0.23109717989427941
Ni 0.11096449420366358 4.709326256702587 1.6746265468230337 0.12783550628945078 0.8327193787955788 0.3200954016015584
Ni 0.9973786730205849 2.390353297010216 7.867115482351111 -1.0342591567477155 -0.7999537543287835 -2.539356207891601
Ni 6.201341571062824 6.725735764354729 8.366553008739059 1.9216088212936648 0.11418089162049368 0.04221211459167569
Ni 3.0900903226150556 2.8037848854668352 4.138852258041574 0.21246902327013087 0.42859389812529414 0.0661521703470409
Ni 9.207610065591426 0.9396953117584754 2.757469853734675 1.5157529881958347 1.2655779657344979 -0.023915373165016875
Ni 6.538943359671594 7.983384378275786 13.782702367147877 -0.11342884394581756 -0.6519438299739869 -1.4860027535165956
Ni 1.864532630592982 0.5681406287142813 2.3265975057814696 1.1173970630194756 0.6059347102337241 0.9454136585682169
Ni 8.263454899776868 5.084904349707563 5.0366423238619555 -0.3111921855746576 0.35582833622679366 -0.9448279612680761
Ni 4.976700222704042 5.737010398505021 12.063969460226472 0.4765470289658051 0.36913585196897714 -0.11095030049833796
Ni 8.654365217168673 7.789676885329461 12.543206804601883 0.7489749492880713 0.16242018624285576 -0.5806093440950582
Ni 9.357720383217229 1.8593652080793688 9.715554473100964 -0.4430234432870628 -1.9884688163410078 1.611913789089824
Ni 5.359174510288429 1.1734300184752404 4.104051037204462 0.41918571743751676 -0.2827516708457775 -0.8953391105093289
Ni 5.3215477390421375 4.2471584109375025 0.2957758961425486 0.9370097507752378 0.40811017634964547 0.5733115248820642
Ni 1.424886055892713 5.233163086323004 13.003709172141829 -1.0078703823415416 0.15401190757450248 0.7065674308561379
Ni 5.82259878602483 9.272434294637888 1.869427039375986 -0.9364525927201871 -0.1855392887588224 0.36782021848134716
P 4.899887951299674 7.007374461609485 0.44488579321224325 -1.7631195946740992 -1.8978595413928667 -0.09205552047636405
P 7.352306999524587 0.5089438833814574 2.977627559287701 -2.8218641381576886 0.10158814255714761 1.8563547372808609
P 6.849319349954524 4.249331184572112 11.777113272196088 -0.4564777690197558 -0.6331081853247226 0.6131798218319117
P 2.9699831748306336 0.7630185853707281 0.5888707785568278 1.5854278269841535 -0.18375468605457387 -1.3340065908205412
P 6.783956650920356 4.459570650825243 8.150294014833872 -0.9971985044499925 0.4247058759247976 -0.08542104587898192
P 5.031520246189413 4.924421399686975 4.423399637914139 -0.9155842339116103 1.0014611363810884 -0.6930334009254451
P 2.6149708566193253 2.2576818495126214 6.594574866875281 0.7682276268700963 3.63125924040503 -3.6522738949834843
P 4.064210870903437 1.2078259697952876 11.119501603945368 0.18976386836313125 -1.0361286058562864 -0.06968435187001547
Ni 8.663812059058277 7.921951565467694 1.5757266143965831 -1.6456201802033337 0.08557351229644618 -1.7899822233928981
Ni 8.153219701767084 0.7700734868938842 7.604911772915836 -0.6125560722049838 0.7224802454316526 1.0149321742843294
Ni 3.7881741508892146 8.80010164699959 3.0053219209712636 0.19769546450538208 0.9801937423618797 -0.681092169403169
Ni 8.391648544218793 3.682766289085016 13.582966844391796 0.17232073318601937 -0.11527695289814986 -0.39077117085056573
Ni 8.075245468810294 3.6617187253549788 9.866621755810183 -2.281357318510471 1.011728322635051 -0.5943395491969571
Ni 7.014563508287474 2.042359982322883 12.35779458351882 0.3280740489316608 0.4148297544616662 -0.6450833554087277
Ni 1.8661291468723251 5.421570900969263 7.5665434245812095 0.1509011298596627 1.3097268923375702 -0.9140965936224903
Ni 5.940722097012436 9.356605655874256 11.489661933126659 2.3830256794862508 1.141899419036214 0.3459912955317138
Ni 6.34518863251582 5.8859965419459614 6.187261997910559 -0.6839792611429769 -0.43501959914597976 -0.058984706064324224
Ni 5.792916808807695 7.549538164495734 4.356977947904146 0.452345234908621 0.6404196313844712 1.034242444577167
Ni 5.382640465542205 2.063964909724407 8.296397926814295 -1.446664360928289 0.4254332410091254 -0.32749323672752634
Ni 6.400225933364652 3.357776034398868 5.051035532164956 0.48525715514529333 -0.758331707912623 -0.08684492280970203
Ni 6.332246459127063 7.001441844902814 2.1827750061173865 1.4337070294366727 1.7344834189946452 -0.7622397847177776
Ni 0.9119971713381572 9.241920995334466 0.09905580531762909 0.5025030867099346 0.19707480020224769 0.10196043829490184
Ni 5.043668884859444 8.339171337522043 9.58768768938842 -0.17618407279616755 0.55108485227338 -0.880487133098161
Ni 8.370638767856313 5.820832226591475 8.85527498237163 0.0754132839339927 0.6130412393715183 1.5185639752820685
Ni 3.032804673396499 9.177172341023123 9.50670652665817 -0.4264999917107429 -2.861884387304368 2.886234534013958
Ni 3.0146856306522385 3.7527673874869802 8.624774874317866 1.563288828993269 -1.366855261919446 -0.5470453920966837
Ni 7.781562048146292 0.18491437251548176 13.67915647788012 1.8569558611999697 2.8415212502669838 0.3601436757726959
Ni 0.400715194589023 9.219541426897996 6.442843471181221 1.0409918474858588 0.06166225289648735 -0.7429022607314303
Ni 7.323777537017984 5.864013740868853 0.27409728337428596 0.531344179311343 -1.0381160685999604 -0.11469485514243473
Ni 4.747255326889347 3.091393986795821 11.92032739524248 -0.05813907023457729 -0.49297509261484124 1.2612618548576473
Ni 0.9328123427577102 3.5751006320692023 5.089362314395267 -0.6828394911115788 1.4870890446022387 0.5124519703925303
Ni 5.603866608912945 3.7065439901211485 9.954032439130499 -0.05784930690830037 0.9197234528909645 -1.197406965185215
P 0.9914555031558033 4.011695876839129 9.202940491645396 -1.0624420469398348 1.1453174435788274 1.6760733544868684
P 7.263884559437896 8.359727665473821 6.460665883090148 0.12397268089993488 -0.1962692735818168 -0.27195432311995743
P 8.058694601819708 6.062784741068006 2.954772814704183 2.680488174179642 0.48545410164744784 0.37199054780895285
P 0.9855701206585802 7.106519067240877 0.7352590404781275 -1.3544337483266415 -2.616094124174288 -2.537064326533631
P 3.4744256380516947 6.802321311553746 6.741507266889422 0.883486324935801 -0.08913551861609165 -0.20668532670881826
P 3.335736552270422 6.936636509540132 10.303688397990403 -0.5161507594003563 0.420745605725469 0.747388578637558
P 8.374209674090583 0.5406314251317552 11.24785206596266 -0.667265805043038 -1.0316991093300232 0.4775070788862293
P 6.388124528904069 7.049649079065462 10.519504335010966 1.3888875591291372 -0.9104304576248128 1.3667457329247752
Ni 8.360096092307515 3.2524343004878964 3.402333008855373 0.1386472521929741 -0.2709351378268237 -0.6166513253202799
Ni 1.1131402735357894 7.453955018256724 2.7779184876889107 1.7838149182399214 -0.4500312420634637 2.0329707554081247
Ni 1.7585390645916281 7.49742938463268 11.995971092305105 0.6911217857250291 -1.6588191953921108 0.1078436365485562
Ni 4.763456660730016 3.3145094985444823 2.6506742508568935 -0.02153376030671775 -0.7141850953023958 -0.3104946452870007
Ni 4.2601478185357085 6.4255529164706795 2.613772052383534 -0.02336130043375977 -0.8471484097367152 -0.5425343916002076
Ni 8.297595786365896 1.435116985659154 5.19901936568141 -0.15341052654507772 -0.008601111405449703 -0.6280832213063053
Ni 2.5624369688712383 5.328557295724224 3.692300986604193 -0.9521404357690892 -1.441213879336679 1.3566852633649795
Ni 4.166151741734151 8.359878814944055 12.156219760646833 -2.0484606235136074 -1.40393314060835 0.6966069772093164
Ni 9.278017378194644 6.994318926118053 7.073106532161537 -0.3495008513468691 0.09264507443124691 -1.1782054525561
Ni 2.7078333123941296 4.184459721316203 11.1206626208136 -0.0849235374172731 1.2155669239236935 -0.8980570236611243
Ni 5.097175797322159 8.388247681138534 7.084803611789244 -0.49638488962733857 -0.061712646518448565 -0.6244476814362472
Ni 6.079023862276235 1.1539222899732087 6.363756400249837 0.19013873520404673 -0.7011547444809989 -0.6181384513887677
Ni 2.252382171212554 2.1246703157070006 12.143748039984176 0.2774138035726319 -0.5009146591768922 1.5197016884309376
Ni 4.24604368359453 5.692950327931909 8.606966632671774 -0.9837099830452541 0.2144541720209597 0.008464071606953165
Ni 6.439760966672643 4.788065683852435 2.729900190364055 0.015376482456070293 -0.6170470180968018 -0.026806578669882866
Ni 0.22271685502092015 3.6045558850809867 11.34874339265944 2.3631405105265495 -0.44644840980821177 1.359952878372658
Ni 2.9023248932172914 7.760467250206807 0.625748415241274 1.2883967634012263 1.4114811281589368 0.13757433084376952
Ni 3.430478929581258 7.297562550774334 4.571411811956262 -0.9905663438454555 0.14083140432848648 2.4516659063624675
Ni 8.435377975325768 8.219016955528174 3.8151902293251037 -0.5414257319170611 -0.3584166657792602 2.230325034524004
Ni 2.4020957214789935 1.7421299002293862 9.72863362569712 -0.38207055775277426 2.3668637250144076 1.07599715991645
Ni 0.468016385578938 7.483448058636066 9.817413156407238 0.1647658036568969 0.6430179882392668 0.19474975161349686
Ni 4.255358269697679 3.9421104394803077 6.145728012858727 -0.802080056643167 -0.44004507738502924 1.2759348834887896
Ni 7.647001232270776 8.666617771099489 9.57274089615069 0.658364131678034 -1.6585353456031047 0.0014135925180749848
Ni 5.420664004147859 0.7433389243463057 13.705883482954187 -1.8914644364998006 0.6903841362280562 -0.5864202943498804
P 1.174818704233012 2.95124064052166 2.847203515475643 -0.4181688461372282 0.26175424265850405 1.3048076006590819
P 1.763328613429657 8.928540909330641 4.334371655262324 0.20094225357745393 -1.0536067080363918 0.17583543120749717
P 0.8553576861048489 5.6934510105520575 5.2453240058874915 0.5424983961559495 0.9915150809119698 0.9471758926749625
P 6.958751566403695 3.0849040064176636 1.3792474180398482 0.025550594775594706 0.0927494612195951 0.36153541391389993
P 9.399248700163929 1.6733191039055126 13.342995332659516 0.2672240075238237 1.2182606687057729 -0.6884028441319693
P 0.9224104251530674 0.14196619523277623 8.843992619102877 -0.34418689533312335 -0.879293627010692 -0.8700875350313918
P 7.856277120651168 2.9741681257877284 6.801846135406699 -0.7706372647528534 -1.3765118111726036 -1.0301955282013033
P 3.406814590647801 4.315931419893818 13.256746610891621 -1.540843098395243 -0.33355409820962556 -0.42223530289711797
