# total energy = -340862.0334609247 ev
CRYSTAL
PRIMVEC
9.41718630862812 0.00000000000000 0.00000000000000

0.00000000000000 9.41718630862812 0.00000000000000

0.00000000000000 0.00000000000000 13.78300406645883

PRIMCOORD
 96 1
Ni 7.834345601464209 0.06482696856178415 11.903787712146494 0.7823679229262204 0.09212031227602845 -0.7334089765290143
Ni 3.8718196316573716 3.59442699289796 0.7887044175829284 -1.5870643341463118 0.33358649410945773 2.005215182561411
Ni 2.010399759221779 0.9537161222746012 10.945331920022369 -2.5230698120267516 1.6078514460949922 -1.6376675010151602
Ni 8.390223272590314 7.559533271742686 9.537976751076965 -1.4160615484407675 -0.8558809045137066 1.7309535514645158
Ni 7.975961248587512 8.641906992833524 5.210127049154924 -0.7740329206979638 -0.3766758690997642 0.963583130388392
Ni 8.071027743979835 2.149745864454092 0.05031131764571417 2.3475765946500218 -0.13695238098905446 0.5488631620317128
Ni 3.1799672079834957 9.10922544427965 7.835169605262805 -1.3318957151251256 1.383174825015076 2.0145608854423696
Ni 6.032969708684035 7.156223435371512 9.256196645234514 -1.113493099979379 -1.3936034765475678 -0.3764514117937839
Ni 6.37712078090914 7.122406319477125 1.432164746172849 -0.4271183420210321 -0.22381015931456294 0.03201434812306744
Ni 6.75000368844301 9.359487169396141 9.350114243901938 -0.267382644588875 0.4434782714362943 -0.046953228821086886
Ni 9.000193261649406 0.6094558106887679 8.816395212068368 -0.4997784886899199 1.846545207389607 -0.8131679390262124
Ni 9.192576959952502 4.274894038371805 13.245769715726473 0.7351814950484048 -0.7945546948003993 2.490507047599382
Ni 1.305739962221151 8.913413890174393 6.418069531965547 -0.41966574239772886 -0.3566351483988051 0.1747450263567958
Ni 3.249955736339686 2.9678639216317086 11.552472986326052 0.511113711197081 0.622354032132012 -1.1212274925091592
Ni 7.439275803078996 3.4596388058201675 11.806025076325165 1.8018005561840649 -0.986097252330508 0.4501150600265216
Ni 0.338611883261285 6.838609994054338 5.0718008251956155 -0.23138231523486602 0.2101033512514317 0.01274881502523611
Ni 0.9971670197228605 8.492945940419878 9.404267773545676 3.163564776733848 -0.382381918345606 0.631299414250758
Ni 2.6942946604977838 5.807352760035271 4.890485145915263 -3.103880473499338 -1.7738606352406872 2.666842301261433
Ni 7.33370914499599 8.914704044693337 3.042749386848128 0.3020285167975185 -0.9996150843112849 -1.402060091955353
Ni 2.667210832786211 5.138337013065345 12.737880142393355 1.1808907126977468 -3.1059360704767864 -1.1740412938760814
Ni 8.19605030889598 3.1458958280598277 2.279832992146065 0.38337102173175264 0.0462384621422494 -2.390465680704064
Ni 3.748397988407071 6.286499197436101 3.17226865820804 0.6537423166353064 0.4667009894096607 -1.2334857131856434
Ni 5.11390883188182 9.109677469220594 0.4642060713839984 -0.8095750794686316 0.08069612959948683 0.852396545509532
Ni 1.2299033611914951 4.782414458003152 1.3590111015114223 0.3992486121939576 0.3124859646854166 0.15036659751243137
P 1.4500206730587712 7.006537259615101 3.2027841085962803 0.9336896852630694 0.00222374712419617 -0.01681501467480975
P 4.539799488137633 5.768714044770813 1.309843971997473 0.30847684352602356 -0.16987818518279774 -1.5408495261531463
P 0.07289184688312988 7.373656849151932 11.419976942386297 1.4424829758570898 3.076194063327663 -2.1921276975186763
P 1.7479710294448734 6.564522787675581 -0.05023598015555681 -1.2133092382377684 2.401687517561812 1.590403940042506
P 3.525935797158647 8.179579650110327 10.27207278891933 1.487455426802722 0.9237212611964478 -1.3581153109432869
P 3.8550193713522796 1.843301206052747 13.20025833792241 0.4775500163090227 -1.0959180672100932 1.3934168144580583
P 4.768872544147366 8.977535511484579 2.8183077030458192 0.6487284083604827 -0.28097478145101284 -2.1701578781158046
P 5.22906218558735 6.628201801231093 6.74166665343847 -0.4331180112478928 -2.001940111354565 -0.0916307742341196
Ni 5.661320452551491 3.5681907119506584 10.516142714063513 -1.3557175001350716 -0.8672940314466546 -1.6122709153189267
Ni 5.453115881315348 1.946249886352784 8.471640498203376 0.7336252063048785 -0.17484401382850534 -0.19844596951816143
Ni 4.242206984829779 0.7158888499085829 9.926767169657563 0.5322206683790254 -0.5833938488187308 1.2670360383372632
Ni 7.534474139079094 4.171257903474081 3.9288595288927652 -1.0824783967654197 1.9750497147216242 3.4752110191267898
Ni 5.469718380708777 4.734104292439742 8.114674518902504 0.22967870228019796 0.01860887335043892 -0.8390496918889807
Ni 5.493101254216369 8.644534387802763 11.433662939192008 0.6703269604668648 -0.8957193766668832 0.25000558676300816
Ni 3.638791357414377 7.802214161912094 5.528321530864936 0.3290317848592398 0.8126796865358842 0.8395451434681606
Ni 8.3749203449021 5.654728422162723 1.6941932455332935 -0.5860868222698616 -0.1559381780629379 0.14110265571200215
Ni 0.7001951089901771 8.489141397166932 1.7729764841467293 -0.5317020768713939 0.003941244035935147 -2.05979841712393
Ni 3.4348056856270466 2.679698021779794 9.197454120721565 -1.943037680591402 1.8984946038737047 -0.9186754712424243
Ni 4.126017740634585 0.8726972436407457 6.4421210256982855 1.1881044568373667 2.831656698768078 -2.4421697939465745
Ni 8.820871200702342 7.722949705080278 7.337988314436929 0.39657517912685253 -0.45798983478890803 -0.44954401801439997
Ni 3.781235716929412 1.8722873053907925 3.2445879401659736 0.5256209036743206 -0.2661947949283609 -0.7472898482761646
Ni 0.5684891669784476 9.262697328916468 13.064895702482167 0.5848997439402959 0.620888503330079 -0.3638697184740314
Ni 5.165204245492714 4.235191181058874 2.839229865781146 0.23777253503192597 -0.41038354576485453 -0.31008763965656916
Ni 8.770696432257537 5.472185683511431 11.548283280154676 0.1393152247942762 0.15008069084089634 -2.0808716928544615
Ni 3.2756081517382682 7.0758006646285265 8.373657500223336 0.43130486929855394 -2.2985073479271962 0.2078083845696679
Ni 3.3523393854635426 3.2205646979920446 5.059326820262811 -0.7853321477608668 -0.2903022294995258 -1.2526352895309008
Ni 4.14159376672462 5.297901817218641 10.046017941109026 -0.5389965536502782 0.6589266890497232 0.3158710791075657
Ni 2.712931272125461 0.9636606709753732 1.2228621310176626 0.39754962722497983 -0.20951482573781333 -0.959440054754296
Ni 3.09582464866399 7.725021486059605 1.3880452284994433 -0.6884074721176596 0.19367323071986645 -0.363437001811987
Ni 2.90125616314633 4.7576001721825705 7.640084116218939 -0.6965169885986713 0.6119495489692364 0.5490038013746351
Ni 7.520367194047128 6.140636399305175 5.830651820585063 -1.1435253846754112 -0.030598441612147302 -0.135951707638682
Ni 5.308816336105189 3.7287254862897297 12.917679654684289 0.2830329495316222 1.1289695983484236 -0.6470222243026534
P 7.432354171170787 0.1336939100332569 7.283090827077885 2.488077869332599 1.7748764780997108 -0.5372096369531845
P 0.24573865055116847 2.124827989584544 12.10955417385742 -0.26346891135676564 -0.38971419034096105 -0.11834530741082844
P 6.698567017038069 1.5384763036897853 10.750881149333077 -1.1765874573367028 0.6446742928957672 0.09093657638057243
P 2.1671017387490945 4.586800664809559 10.487266795804823 -0.05800897241461622 0.5204000215950134 -0.034580566188346894
P 1.9078371835587982 3.769181718504234 3.1893599095688647 0.7397945683403839 -0.4430573818487918 1.2443036297367538
P 1.3398584280761667 6.3015572782813045 6.935207723934109 0.21962826002273142 -0.0866384632258508 0.6025822488217236
P 7.091320187600943 4.243930329917128 0.312926507710759 1.1103404132830104 -0.5203902514030007 0.37952156607867543
P 7.502333282340709 6.611410958112269 3.6101687614663414 1.6510400656673245 -0.6586050440442464 -0.5469266071306322
Ni 8.744403648192618 5.184142207081022 8.106638833858593 -0.5647129845797757 0.4321535904520944 -1.1395995672584438
Ni 2.7377549751323125 9.023679724205964 3.370620027450227 0.12495895607260415 -0.657894391130467 -0.39972169517563416
Ni 6.084867822216188 5.874704476235954 11.556731437957197 0.19938133684823725 0.6441567298294003 0.41099366854502767
Ni 8.982536037393775 7.008081678163326 13.357591268929793 -0.06891636335573938 0.17133394379271782 2.6392924166676224
Ni 6.449237593362276 1.687522110779859 2.000106774629029 -1.1333682416367512 -0.8719770387446208 0.1107708374976802
Ni 1.7916291049910655 2.9172653798047694 13.430779757180417 -0.3074653715423737 -1.0679236388796964 0.591234170798756
Ni 6.11481447455374 1.5319407764186341 13.139916775180868 -1.4692031654607536 -0.9818587887691284 -1.4918653829449597
Ni 6.5263360973520665 2.4858640767911684 6.531118144539806 0.5380262193172088 0.33823016352905616 -1.639241273260183
Ni 0.503247842220798 9.153919410315506 3.9192248056202654 -1.0023399394416157 0.10029616321860146 1.5048538247848275
Ni 7.5335230032658576 9.177029185421276 0.4919509855717014 1.8427659428528327 1.969986441266104 2.1528769795481697
Ni 5.766557509115058 0.5691059926791111 4.336753651540016 -0.12147254018590047 1.0750257971421162 1.847033202769619
Ni 4.1220813567738634 7.001772163362648 13.223455692860487 1.0111822203235938 -0.39811038482445626 -0.666918191895632
Ni 0.5231472985272386 2.08521930413431 4.038861681708785 0.1161956080576773 0.6645851728870813 2.9267543485048755
Ni 0.9722491448533126 6.105585632009462 9.269098190423962 1.4124974852385932 -0.5314053715665816 0.5835933664240465
Ni 5.625987169667688 7.307039673480284 4.121518209034937 -0.46346525608118244 0.7257460606671178 0.896872773545036
Ni 0.8625398665302793 2.3350760902412055 1.9702665364963243 1.6401355029396787 0.007117070660755485 -4.084194543489166
Ni 1.3540030418532116 3.6345347892204862 6.100950492927531 -1.8396078568398255 0.5253568513796566 0.34502481785338646
Ni 2.3231633496100725 6.957643228502972 11.289865330010022 -1.3418888217820955 -0.9086821074751383 0.7598550865356849
Ni 5.703415275176918 8.599237721845649 6.999285084468828 -1.454377927522463 0.31747981835558226 -0.03410388366224449
Ni 7.573875646431395 3.264298111028394 8.633053896021408 -0.04971176540283051 -0.7037603004246461 0.376399475509926
Ni 8.952325703840671 1.2599818541368224 6.0934798390598015 0.015824368626766293 0.39035722324159866 0.7394140450725137
Ni 4.92450096443994 4.995111027089928 5.141818546829242 1.3273970559238237 0.5464992897852265 1.0919634534377194
Ni 0.6893794705594607 3.2724628115241985 9.557079513424991 0.19539432717603122 -0.5688995118572977 -0.058687229428563435
Ni 3.3674351350538245 9.313907987850936 12.225786737109454 0.7161496752279344 -0.9422751129392353 2.357626522686856
P 8.18916634573285 4.105365851145198 6.257180671422737 0.6139568092072524 -1.5365149033335346 0.12410843514685077
P 2.3664259033329382 0.7768500635066674 5.086273157054845 -0.4161361319779156 1.2569778827703126 -0.12254854685889861
P 4.177642755764918 3.2450305479206483 6.929777774331018 1.5583250572300904 -0.9179493917096772 1.8076747555766544
P 5.692613762525607 2.77667620598486 4.39300156341013 -0.055542256041678534 -0.018940545658244802 -0.5431524848001807
P 7.42970794182901 4.947591905173171 10.082529313995165 -1.2629850081963412 0.08242725335798062 -2.306175405995415
P 8.644713314341887 0.9392400235408639 2.1976171891373344 0.2586182681326837 -0.11477250245790556 0.25753197704704034
P 1.743554369084398 1.3454616539066206 8.429450561996626 -0.7345032380344576 -0.4884602354636233 0.7826815975118973
P 6.896619861475508 7.775365763857263 13.0502858797034 -2.731628701609199 -2.558537665916058 -1.9750594849136374
