# total energy = -340861.6956886019 ev
CRYSTAL
PRIMVEC
9.39854592999055 0.00000000000000 0.00000000000000

0.00000000000000 9.39854592999055 0.00000000000000

0.00000000000000 0.00000000000000 13.75572198812450

PRIMCOORD
 96 1
Ni 4.694959068637928 6.046639157626359 5.016010580519738 0.16792774632464627 0.2344442419896414 -0.2467407999688073
Ni 1.1981642385834947 5.338590295981554 2.7227803935818398 -2.993971984001954 -1.2685419334588282 0.6332943331935997
Ni 5.024744649319867 6.389498115797783 13.539069804782644 1.4253429737426935 -1.4846668083139916 -1.1125695597238452
Ni 1.7573119359105938 3.6747750957038923 12.083907025033618 -1.4639696849759563 -1.5177016272817732 -2.134443198323014
Ni 0.02413828569823656 4.875129195505972 0.31002231814786857 -1.0562210057307875 0.288021146774833 1.654836813705595
Ni 4.9311069354968975 5.230460024222721 9.195301505347361 0.7288339555638222 1.493189501073022 -0.2351664648676466
Ni 3.288560644822907 1.4671976179052335 4.561919830408653 -0.969283523207279 0.059834969879761474 -1.1724685500723226
Ni 6.785148706865285 4.059523373408487 8.255964764981483 -0.8912590269026844 0.539398159964071 0.09423170219207642
Ni 7.114304584965056 9.066147626035521 8.030878986767464 -1.1733553235526502 1.3706633228116265 0.4758363760520256
Ni 9.722513883212544 0.11091976021237715 7.968277151553971 -1.9832978136630297 2.096198553019519 0.7759509636562829
Ni 3.1484189253795374 6.056864775677085 11.454458203607775 0.8888306199668499 -1.371117893850542 -2.8536463156652916
Ni 3.849277899332424 9.33634642506157 -0.05437622775209962 -0.8447346580889 -0.645821776236649 -0.20051185090825469
Ni 5.040928945536183 7.872034160779107 9.383810022228827 -0.08024875764942307 0.17535772024013027 -0.23429408956502232
Ni 2.3686309620976043 5.152470889493926 4.723934785963654 -1.5716461998190288 -1.8090965756248456 5.076140798401284
Ni 1.165654667960826 0.22859143587295475 3.937946601883868 -0.019402572896327876 -0.26292023794214714 -2.652827989260212
Ni 5.313345801418823 5.310836389636154 2.162936263995955 0.014567356291213621 -0.23128949841074362 0.18412441068916677
Ni 1.349781582695924 6.7420281778057864 1.0978347600067415 -0.8853061517533591 2.37930863564598 -1.5688323845193175
Ni 3.6131018368354466 6.955544345890721 1.3634104142541583 -0.28291262190367406 1.2858660265595725 2.075527912044045
Ni 9.082472900441875 8.31400078654696 13.324453066960816 1.9115763767583274 0.8105284445208363 0.859474535402236
Ni 4.395051465697957 1.3910975909229413 2.431378474774136 1.4313164177173092 -2.371307105497742 -0.942966225468989
Ni 7.6103034517013155 1.0083136093328706 0.536234982027589 1.7768369442601915 -0.5955963044221936 -1.6476539228039104
Ni 7.7111686474002115 6.784293439179057 12.409216078254564 -1.0551617112283376 -1.3844554914997123 -0.19602167634738502
Ni 4.939734800727198 1.4990774859457345 12.281521793136914 0.006195844398066748 0.0979880839107151 0.20749496709430712
Ni 5.599418744643106 6.8548201283818635 7.312074429077391 -0.011780537574695838 -0.3634567993063289 -0.5480602065144432
P 2.720333952057387 2.2415438230517157 13.394098172548585 1.5899370277084166 -0.28126274500507686 0.5518914073350752
P 6.359479159865779 7.620463279930024 4.916157608225311 0.8505615491833223 -0.6596501974793092 1.2632799137289406
P 8.030991769319494 5.9033207296341415 8.060344368339921 0.021517305246485523 0.3771610362662988 -0.08381976283013305
P 4.528463826203531 -0.23092227528157627 7.682502142237968 1.067073632174575 0.19580467524057246 1.625805716580568
P 5.775491105454056 9.484448712969062 0.9388498956829477 -2.0865977967049614 1.0838104853132817 1.072923406087133
P 2.360999342743569 3.3187299774909516 6.087195763336373 -0.434803883590748 -1.1582614053340052 -0.5133112330690321
P 3.701438770713002 9.491121680630842 11.008525391426865 0.5169380311883419 -0.8625313199506888 0.7354961980753463
P 1.4171315633498833 3.262056745095839 9.813676020018454 -3.039898057110107 -1.7381292432773483 0.38086779569392465
Ni 7.918002449277364 5.7834516739181785 2.309489671522234 0.845108496488551 0.5814277262312953 0.006158563402228104
Ni 4.589178433379721 3.5963724249509856 0.46851187909733044 0.8958178499179604 -0.4490889327548524 -0.48002238910891526
Ni 6.825882005240146 2.9872432599825594 10.706986200900857 0.2045587672841187 0.2682228811019832 0.3074103499347222
Ni 6.021949177277775 1.1754761485334448 4.580311845080957 -0.9306478131129521 -0.9439679272606258 0.5650569981827559
Ni 0.639454513500113 1.4820849147732034 5.784006188132327 0.23554287437045884 2.464616552985865 0.65888837961262
Ni 5.812342804329883 1.9333561010835365 8.241823712666113 -0.0979052943889217 -0.7669665007694855 0.017927016792065896
Ni 3.3335044918068912 1.3589357665023651 9.326200694651865 -0.5867761350274023 -0.060353561387392826 -0.8404195756533139
Ni 2.436197109309621 0.1353954537121037 7.285896658896611 1.0531655067339152 -0.9143426481950253 -1.0392306418203778
Ni 0.964835935525277 1.2569991365591835 10.81320762796658 0.8560187156431517 0.3206253059630994 -0.635564360174699
Ni 7.149060408082323 5.375395002127369 10.425943359497115 -0.15702318359700054 0.2497037392518732 0.1042453776743366
Ni 1.5007316300421758 2.2171545961752126 7.855163770704608 -0.04761605921606638 1.993913641505663 0.8539168388088003
Ni 5.680180450442641 8.458954561543612 3.1001818278762747 -2.1854623696833584 -0.2604851461380933 -0.07781649405884664
Ni -0.02904808612994578 6.4963313882082705 10.236265663492938 1.1927242149975652 0.9708580667832505 0.11464137619668
Ni 6.213134400060755 0.48243770470924374 10.456783748349741 -0.618453154415709 0.5860143171607133 -0.485970379162234
Ni 8.297261976116495 9.48830211683009 5.024250285800134 -0.9514434097020645 -0.48103360398224904 1.161796157960141
Ni 8.155268743110632 1.1660682039849364 11.622855711753077 0.3035891764164191 -0.40144407718337954 0.9187978557529015
Ni 8.014055589422977 3.257789805210702 13.29608825512525 -0.8659082068427216 -0.6465943927366155 -0.4948689672034445
Ni 7.853923162632277 7.510622472798735 6.659777742319454 -0.3138908154527433 -0.7558958447776207 -1.622345525946109
Ni 1.1154382366694358 6.033556381590869 12.488338677631262 -2.110433208561662 2.6791203472978373 -1.5978531972317
Ni 1.6802532572360456 0.18459402247142268 1.2253128785663343 0.4056827978550755 -1.1239688026997223 1.9409877400409088
Ni 3.9512709205516208 4.49294672086006 6.940092196408001 -0.027199957453559607 0.374438238018497 0.15796009358897312
Ni 4.161713764093736 1.6703189941113965 6.551589199575405 0.34272496607561626 0.857741097650897 0.9956404159342531
Ni 0.7787823188596652 1.2578732013374165 13.287270539265698 -0.9771667826100977 1.161392494763819 -1.4417926346582846
Ni 7.676957939951089 9.545727232905403 2.8371860745065463 1.5949985013917238 0.7232772874116511 -0.565063168830343
P 5.457613482557292 2.9768860622877975 3.5394576499236092 0.10057898456634291 1.113830685824456 0.7764651842885403
P 9.03655160467363 1.9038070724516571 2.1683836612590075 0.6146232391466575 -0.18079791741909507 -0.04889441170785773
P 6.888739480904907 5.000618581731433 0.5622210218699183 0.011552737834605909 -0.07599409613812719 -0.3240924385760935
P 3.1737480068562918 8.994164162202326 3.194450184136012 0.13188756487163736 0.008526292303456284 -0.21646991689940787
P 2.8544981962431626 7.266297870917585 13.03031429155718 0.08793481343977114 1.7953087778121337 3.2910608974060094
P 4.854302017564418 2.5531714128568126 10.146248269590135 1.3564402372337092 -0.24818858815892744 0.3458673683593398
P 5.230948748614852 5.6864022878963 11.351634350921953 1.6103215049020394 0.06377672813632887 0.18897505391324873
P 9.279457026108402 7.7466481585596725 2.3556120961749327 -0.7529053946907291 0.3062618381525758 -0.17670549251727632
Ni 3.1327045564633473 6.91147456368497 6.802052931705393 -0.8811260522337405 -0.8604482121694149 1.7521828931569374
Ni 7.407896364991343 7.860304775367979 10.042392456553241 -0.06977871135603467 -0.7703485298678411 0.24129263237004253
Ni 4.197559818547295 3.7240610709410342 11.901766962923448 0.39937382491791223 1.017926738136279 0.4691736193198694
Ni 3.2884290651788715 3.2879591378787465 2.3106315948615386 0.11813421984128689 1.2361619744662258 1.013769521434796
Ni 8.04159332921032 1.605337447050069 9.137183716431664 1.2092168133359495 0.6251135971550201 -0.2839978845480528
Ni 1.0216501461104266 5.0654779476947285 7.045350272508469 0.9116234494916493 0.029686728431155326 0.2511106469017288
Ni 0.541995350872525 7.398103080056732 7.612637110673737 1.4660293957184625 -2.581703305399244 0.34044079802712984
Ni 1.7710526101662576 8.149986760257224 11.314164227719164 -1.8966174414556498 0.7143064513716085 2.93860739118872
Ni 1.35842824501823 3.0956648866674703 1.2017093701356403 -1.1877537583661673 -0.9243139004751242 -0.5943413489691699
Ni 3.276182759737606 3.8993345553417718 9.766480281412267 0.33967332373348597 1.330265378610554 -1.0443445660081756
Ni 8.628852077630915 3.6355267675974265 6.918261253753379 -0.07101669752819383 -0.7570785522318122 -1.2949649035370472
Ni 8.973111419156712 4.387401049251916 9.235866569748778 0.9912001207747123 -1.461744138079547 0.5482831211585267
Ni 5.364379906212432 8.001273566859568 11.76008294208107 -0.20333697906187562 0.24647469079161427 0.4263485537345432
Ni 2.436319290407653 4.875646115536108 -0.010222798486925947 3.0639854370766137 0.008615509583152905 2.9048002128312875
Ni 1.3000444772506616 2.8413026376556436 3.5334049862979957 -1.0624086225987381 -0.04501795947158699 1.3825734439856512
Ni 7.050338080871999 7.866658192465673 1.1620023929842522 1.0454180015780126 -1.7251004351178485 -0.5048497325652402
Ni 4.438886284253646 8.502206670247144 5.744857484613487 0.24899720010315185 0.6619479923745503 -2.36013463382069
Ni 5.84612117866289 3.630742907682151 5.829922784627571 -0.17468974763882816 -0.9589777704058967 0.16778839253330458
Ni 2.174588581329862 7.411402022650277 4.650878008176973 0.6360991496322465 1.1380047119674983 -0.5129417655447553
Ni 2.6541869852917483 8.23074846605676 9.432394865934183 0.9538029110731767 1.4721709898398256 -3.210111771255452
Ni 7.824054583436313 2.6500422265046435 4.579073116717827 1.1438215757595913 1.111435703229718 -1.3733989765752348
Ni 9.04821520026274 7.207321994751858 4.580394552285779 0.16520674784905742 -1.0699553245977445 -0.8914174068574197
Ni 6.914303526031725 2.641602332194393 1.878357689586071 -0.7122125449570573 1.8027372090657208 1.0389611902090752
Ni 6.7632218990414374 4.9896974712765205 4.149069900156564 -0.6454787910749336 -0.025628499201381667 0.11860833126422798
P 7.151325457668928 8.937378147255185 12.712542872230244 -0.23213847667460022 -0.39508651039646797 -1.1189844621112537
P 0.9263573483364166 8.785300274388632 5.864917330813301 -0.5839245245112201 -2.1484680518471966 0.4946869330996254
P 9.188056166234029 9.036636191587652 9.985333883772027 0.1375416778336212 -0.14335957006697891 0.23917352914451068
P 7.7663663080729295 1.6644261057678253 6.464130089894485 -0.7769040715981717 -0.41489377493038226 1.472771342427986
P 2.2937715431876424 6.236226627588913 9.251920226175658 -0.6514473499535425 -1.8191369905799832 -1.1680287691334141
P 9.092219192646473 4.6262181031755985 11.88117474863196 -1.969950702932162 -0.35009451906681 -1.730944295493135
P 8.814106817886314 4.752647344001311 4.529112325877705 1.6629602141436781 -0.11106368614775065 -0.045376885472902494
P 3.1999229574732713 5.304717936188522 3.015667282657939 3.851657802934883 1.4758697788476518 -3.3492639881093025
