# total energy = -381162.19825333694 ev
CRYSTAL
PRIMVEC
9.30478704038673 0.00000000000000 0.00000000000000

0.00000000000000 9.30478704038673 0.00000000000000

0.00000000000000 0.00000000000000 13.61849637589770

PRIMCOORD
 96 1
Ni 8.260854955675287 6.607943303501881 4.620619470600032 0.2467827089503363 -0.9661233803117426 0.20730984766669458
Ni 7.483868029216372 2.0536129958339076 8.3568812871055 -0.7000967355301297 -1.5149027243803974 -0.6814552091695425
Ni 3.9093224787959207 2.3799970064130336 11.787216597540759 1.3818784748011557 1.3345444656018823 2.55761772520495
Ni 3.9090433351885037 6.400818746798306 6.155696231774407 0.017076238755996398 1.1314522555609612 0.24100209771281722
Ni 4.114502335034491 6.0412166469365305 8.434724203948557 1.40500503351629 -1.1616182376213802 0.8291653428957332
Ni 1.4129970263852187 9.215339997303895 0.8965190105910411 -0.6724586620978871 -0.7330608491609762 -0.04605077161147553
Ni 7.421479432958623 4.229658377881007 5.0988873789322495 1.1788888517763696 -0.6939993643831402 -0.727409821522786
Ni 3.880840526052451 2.299510599607735 1.3636202441478782 -0.4253710203126223 0.13318417219587386 -0.4036320859736339
Ni 1.0728140168127682 6.494182978692451 5.85294358852053 0.23544388689874937 1.353582713180256 -0.36282276526675583
Ni 7.483895943577113 4.262541494834756 9.060699091188214 -2.3799889495424558 1.2312370263607828 0.9289531990193486
Ni 1.292751265096795 4.645554438571922 3.629901588728668 -2.2293642132726315 2.065208532395908 0.430463090123549
Ni 1.8852521814136691 3.3270940472320003 2.0944703151728743 -1.1734972484471533 -1.888589943165483 -3.515087543606753
Ni -0.20465878817139077 4.702350857894411 1.0386747536256427 0.4007362524830776 1.4161016576500838 3.470655538545623
Ni 7.667749228209008 9.606913345001855 10.446502877817538 -1.4158838852123228 -1.9293761239439096 -0.641462985047321
Ni 4.811468094033802 0.9827064603384902 5.663401357169474 0.24202282566784772 -0.8015730350997614 -0.14601012031594854
Ni 5.392514817659657 8.161907851632796 9.543882718447048 0.4319023936732368 -0.3245963747957055 0.5899414201292614
Ni 3.335942899587126 7.077639642129007 10.547266276265622 0.9579007352916341 0.093127156273988 -0.9939041499694368
Ni 2.049946909789828 2.714625058197881 10.654130823493157 -0.9816464156480061 0.31088879540162584 1.0675336025301294
Ni 7.594520555196557 1.5977063514131922 4.330001199960583 -1.3778102182690528 -0.6903064889125853 -1.1394753829757536
Ni 5.90983305571216 8.502630538846253 1.3388015860124136 0.2846064646663292 -0.43701066143407963 -0.8304496089247956
Ni 5.5499332026691395 5.67991177106951 4.624078990374623 0.18554443096514497 -0.38708060937285593 2.0271603193739343
Ni 4.648234217203127 8.226269062716293 4.279353383830803 -0.6834442145751133 -0.24066425475742426 1.5942629087772802
Ni 2.5906759917177222 7.042179099200107 4.032273141640218 -0.5812994281835472 0.03767180351916093 -0.6508850496921693
Ni 7.6937095836988085 0.7490130150809432 1.7044908774732663 -0.30681873909731033 0.5353386451827168 0.17094724987726043
P 6.952369295907074 7.121409359772027 6.242364739005304 -0.08430801532046125 -0.019209997269547564 -0.037672060629477054
Ni 2.3101087519026757 2.8196854072428086 8.21248402090334 -0.4467713403652692 0.11736031778973982 0.5454057996107317
P 5.7414164125704374 6.03130704887322 10.35214117276622 -0.18764836468202523 0.3694898928742863 -0.9563668151456111
Ni 3.5640311412077352 8.061862782734465 1.7792427441035235 0.0508034558051125 -0.6810284060447691 -0.37026508047741397
P 0.8723675056773034 6.6561327949290074 2.5660108625663365 -0.3885895898182146 0.20906025469889802 -0.4167089737622501
P 0.34584776384563715 4.608865663770384 10.620534029383112 -1.6502769622490547 -0.5215642171064437 1.9341264941447014
P 0.32030705424565303 4.106909628912742 5.46630084740825 -0.42447961884660446 -0.5070056025659785 0.7388980246680437
Ni 5.328600236348027 3.9520035363700137 -0.25709684530340665 -0.10393684529498229 -0.637278000431696 1.0050851062869206
Ni 5.377441062859127 0.7450473148982358 3.2244101407648853 -1.5685341365526082 -1.7644043749237934 0.7111707339561042
Ni 7.1574002755550215 8.456516014900927 3.7209684687337696 -0.3799103168766618 0.4351684660190183 -0.20202751622183268
Ni 3.3475738832295105 5.13919199392853 2.4107055946650013 -0.15901758831921 0.7065268074261897 0.8056906568125608
Ni 7.615651726278041 8.360090508112107 12.811396354111917 -0.8366696216925784 0.28311136817804144 0.7889468616953187
Ni 2.127427870421934 7.218011657512212 8.277744074402719 0.055316513184117636 0.9133476312716076 -0.2612737034776597
Ni 9.2503353008871 3.515599725320848 12.99440104217726 1.3570071654807727 -1.5300385515805714 -3.18521449379314
Ni 7.586229990056266 5.95998585717812 2.3549373542964984 0.2656342944392006 -0.972522598969867 1.1372549782856671
Ni 6.026431340530332 4.49569154053653 6.7803628659739665 -1.7944145481326388 -0.14816290499289322 1.8092356723058713
Ni 0.9889406675708081 7.560167281910411 10.85821736726934 -0.6969016256315999 0.277684026514883 -0.30928725524246087
Ni 4.539442648605722 3.342177106819444 9.264580929652292 -0.11135062126055016 0.04618395475523014 0.20025088393738416
Ni 6.099343650787709 2.4389986602341196 2.4140013501899076 2.0841526775985786 2.632629917045782 -1.0002383197175806
Ni 8.98002193625118 8.28815520048069 8.563623417066914 0.19030097181352387 0.6556076519788193 -0.32878161652164667
Ni 9.249711880163868 8.773920906108133 5.328672813685955 -0.2911049279064793 0.43523608603216013 2.0502675948153595
Ni 4.296141080380875 8.42494487290204 7.422094479373633 -0.27445626360620473 -1.7835925178164702 -0.8272280166637044
Ni 5.248839602922014 1.0014276916092717 8.14036075657626 1.9945939554021392 1.3872291975901077 0.6182322966541546
Ni 2.739636325422464 0.3768522443214676 4.97293033943607 -1.3490290323713026 -1.297251899799011 0.6825528131090955
Ni 1.8374255766761858 5.709649870046358 0.6320155549041644 -0.3049022388008878 0.7529105368970518 0.9224963876504112
Ni 8.922760277582995 0.9991107996677088 12.356702123426084 -0.0775329013801568 -0.7427012004642177 2.2497150090148414
Ni 6.7660223283822525 6.503524984754014 8.35264574810229 -0.2369338411807145 0.4991346844583339 0.18725318612613556
Ni 0.8532498904839896 1.1984379449374305 9.521248824278969 0.33506693530972614 -2.2304358490702554 -1.284519025613375
Ni 8.711429957194332 1.9101704007691127 6.196824320412567 1.595284150952943 1.237610276876978 1.1839603527620062
Ni 4.235110983012556 0.8439218416027975 10.261046378400378 -1.2304808649210486 -0.41332720177421073 -1.5179271130290182
Ni 1.941071598110199 0.8883745306052981 12.417671739679461 0.6588588119262653 -0.01997798578382366 -1.4462231596258126
Ni -0.0015278460112635765 3.271256020961643 8.555588733566756 2.903205614650658 0.4446383531826665 -0.7149345718739106
P 0.30777443675131133 1.6603182625568744 1.7123348128416902 0.5860467130605456 0.3132999759462798 0.8399151252130697
Ni 8.855384315539393 6.041933115528901 12.75282272048887 1.4759111736085484 0.7082617878394254 0.2646598463410732
P 6.303323189514385 2.2158977843993646 10.127625969320551 -0.610779182810219 -0.23352275861663652 0.8409389384918936
Ni 5.502032159636345 0.12178570352267551 12.003873908437633 0.24951502027983483 0.6998666217971946 0.13955999381523063
P 3.6512728233125302 4.135140352409537 7.146850508152032 1.584207324313491 0.605452371280667 -0.12440668311355993
P 7.130444307865432 3.986989535166305 0.8575077609757934 -0.38240685804627045 -0.1515819579767712 0.40887096577507004
P 3.6018457952258545 0.40014770883912587 0.11075860055100398 1.3730930152990417 -0.28578094459040454 0.7828376634737871
Ni 2.959229296590676 4.73437793445208 5.0241085284199425 1.4995239279314818 -0.43355407034404686 0.8254408428562945
Ni 2.81728477221902 7.800407575240584 12.717565021914693 -0.06595290985204125 0.5459475310468146 1.3488801654982638
Ni 7.182774429469245 2.8205135332781457 12.246650686680535 -2.967228397359522 -1.887334473491827 2.192775101294688
Ni 3.2438999474347554 2.707488286634914 3.819429862899354 0.3217378223009878 -1.0678693886029933 -1.83690588452763
Ni 8.412960307356927 7.83845484893155 1.4639202642076505 0.8142352039484624 -0.5354016372101683 -1.1370462047089709
Ni 2.095009992813881 5.702541012844133 11.96873810257203 -1.2637321707750107 -1.878932879691693 -0.42505606017536474
Ni 6.562982573133882 6.243074694246835 0.18582403850025964 0.554032107827162 -0.7474070905803192 0.5462190395406463
Ni 8.546884105408795 2.2516095565749406 10.675225705905675 1.4639851115949238 3.798773296231025 -2.229323332732367
Ni 5.278549787538119 7.208865051975842 12.181745145562576 0.13277999477891972 0.28587376141452703 -0.5628322226172953
Ni 2.108166961510146 2.4917847163967153 5.682916286764011 -0.8668196629133975 1.065295971448862 2.218669709673263
Ni 5.745966453371338 1.3758150978772452 0.33259216440808476 0.2333162990327853 0.04364190505966677 -0.5997018419501349
Ni 5.559712533715657 6.821944097734835 2.8688993557091553 -0.9305259428231071 1.0503277801748039 -2.744080811329623
Ni 0.7251899691452663 1.8680569351967684 3.9102380698282495 -0.009875607242499121 0.5795590484536728 0.3840798748733191
Ni 2.5729875917943845 0.6294539470667656 2.700588787138252 0.39420873577720494 0.8701883222753142 0.3260937852768384
Ni 8.40122697105849 5.329428362383365 7.194638032784478 0.6235447100060035 0.04746847789460857 -1.9797869722962935
Ni 5.509848180644028 4.5782343052498025 2.4617339765795605 0.6461197670930421 -0.1668306566057256 -0.4389243335170247
Ni 4.15857911064567 5.988523638643073 0.37510759677510996 0.22415648691038814 0.463230514362557 0.0651304139507459
Ni 0.3519256506578014 6.06331551585706 9.045010289972673 -2.4152210332718727 -0.2679071496337774 0.12456120641355323
Ni 0.1073642142848106 9.06827784012959 3.189179426072758 1.086614016200348 -0.6120773327963523 -1.6053389640857836
Ni 1.6200750591542252 4.814008300861298 7.21469822289217 -0.6400977292686781 -0.15068927095917273 -0.4585986720175005
Ni 2.0432102440641593 4.621994718105908 9.493018100782173 2.8550362540342826 2.178710652781822 0.5369350431355592
Ni 7.3672697443982 4.7719878831580935 11.337711646516812 0.06766397900587702 0.237858666987829 0.2532786010873251
Ni 7.209088366861776 0.1698598155920689 6.856313189158734 -0.20293177320365696 -2.0913571657668175 -0.5205334618490842
Ni 5.102847496242808 3.208616195457219 4.820061995227487 1.675160869974928 0.7930007200497182 0.18611701563916336
Ni 7.710086008667286 6.961134405179974 11.021558249149528 -0.6264865662431469 1.725006075631829 -2.2913632806832473
P 0.4942172435813458 8.273341979713749 12.801032682447207 -0.5344585565706086 -0.5487911711431968 0.5294526187155849
Ni 3.1281483982257487 1.0717625758914968 7.504254817344743 -1.3437410444994857 -2.4565234915650853 -1.1030803892864873
P 1.5582633596851394 8.704925911141512 6.824337288929092 -0.026358692499186865 0.20656988417687647 -0.7411171438065495
Ni 8.417929063568955 3.592224645556875 3.1034786166809063 -0.22274289439231318 -0.39583598696798283 -1.0823040759710845
P 2.095707851832424 2.9238524967440003 13.200081495951801 0.7003402189995035 0.6759669323614617 0.007257452893361695
P 2.371762269994225 8.921448302628134 9.862719616360303 0.5302440042686287 0.6749348915525215 -0.48232301221763385
P 6.379575918273855 2.1515644876766093 6.3920043221547616 1.1609358668423748 1.3912048944084041 -0.0179702113251755
Ni 4.322696942233166 5.111249718826066 11.70349026393204 -0.07613242148820437 -1.0569051762820056 -1.1292215664582295
