# total energy = -340870.28370638576 ev
CRYSTAL
PRIMVEC
9.21313637146060 0.00000000000000 0.00000000000000

0.00000000000000 9.21313637146060 0.00000000000000

0.00000000000000 0.00000000000000 13.48435635772885

PRIMCOORD
 96 1
Ni 5.5012741034215145 3.8259758672146367 6.490182646850778 -0.5326814100655277 0.6992768107319957 -1.1374295561903187
Ni 1.5944806066244654 8.06290366871148 3.018580845329019 0.747670371544035 0.2408169782852046 -0.4615353860483213
Ni 5.646887718965294 8.04059866629253 12.31202597710701 2.823534840991892 0.03155334932624888 1.4414164822657887
Ni 4.868451426366434 9.014998363043 6.2449289647390795 0.7656048445352686 1.238879116287073 1.4201300620831865
Ni 0.06828500059005554 1.0881266483653007 12.991381440497236 0.03609957393603461 0.5016829048014844 -0.735771820334236
Ni 8.88963522057516 9.026791177209152 4.1022778178731585 0.026709905191018516 -0.20373935670661686 0.10324650409617703
Ni 4.311102759974728 4.49799122510004 4.42389365696512 1.3554681031284268 -0.21660927069074953 0.9845391638147688
Ni 7.635856385719689 7.596801901930377 2.247612720826317 0.5179109366245725 -0.2502164172222336 -0.43238730372945533
Ni 2.0759498843658357 6.364443608431393 11.64444213766998 -0.9376167882316174 -0.07540711328640562 0.13155640678446376
Ni 3.977882054692386 2.9850376595351693 1.0605784502104474 -0.8016715083508387 0.29203078215485834 -0.16115108972244505
Ni 1.0534299779358245 1.8541159941372298 10.450672143275304 0.9198838897282285 -0.08687551893732134 0.40587203104774616
Ni 4.621788134436437 6.124809939320751 8.777142829193348 0.7714589893232005 0.2602108094307841 -0.4671185365630536
Ni 6.957023307144479 4.837707191309832 9.910853310878862 -1.571369034898242 -0.7080172759287872 2.414439932131474
Ni 0.11293646454025646 5.963487926782214 3.0214535011548045 0.10980333137808831 -0.39739099015992857 -0.29268692768161847
Ni 2.2452228333304576 1.9574781676763413 12.447489480645435 1.2113680553509976 -0.08483843390263454 0.4634845393548921
Ni 7.2081089043867825 5.124466051404746 1.4278177391077114 -0.5139362682475407 -0.4385052437017351 0.9042258714759975
Ni 1.7546141246103197 2.7621166192506212 8.174378008557854 0.3232174921703079 -1.5061679156105607 0.6090092353939899
Ni 2.6783876386709395 4.443458672717653 13.094820083065706 -1.2123360756912218 -0.14063137250253843 -0.6198811451114872
Ni 7.091231060236933 7.927617978699152 8.261621800547214 -0.3724854851675004 -0.9106361458777156 0.3960118504242148
Ni 3.418018202154305 1.3837853979012333 9.44529235518491 -1.6226699991650635 -1.5834717316990472 0.8750515639048866
Ni 2.395525935132496 6.107526096058484 1.2546651385451464 0.4247670681800362 2.020176174746618 -0.18604373919906667
Ni 4.327234961228581 0.3611263731166059 11.500052026595942 -1.752202690651279 4.68564704958182 0.6399442344099495
Ni 7.6864272895931345 2.3721614220658065 11.382077819254079 1.6047985182012814 0.28942599754215964 0.6296022290539931
Ni 6.631642980655416 6.047576219668521 3.7318093247843036 0.5908986418362081 -0.5259911425295458 -1.226138785902269
P 6.057415848988404 3.196322508966709 1.6754447250703484 -0.023418121813624185 1.4609969755008771 1.3722275819749528
P 4.321347767281573 0.5353357203860909 0.10476349153494886 -0.9358476121463367 -0.43828798548460646 2.20849945400848
P 9.058023708477322 3.6921919183812792 2.3153587529564352 -1.3050132889119848 0.8647764072311237 1.676169256634784
P 7.3484526061000635 8.87865316238293 6.307266885997688 -0.7998120865445968 -0.35476261396644065 -1.5786192887027521
P 4.135076582272769 2.235631958684392 5.753370381690402 0.16541320743290866 -0.45568818323892496 0.005097212017249286
P 4.912066412509063 8.384911987399908 8.433574850793814 -0.9026505565690778 -0.7540541635831917 -0.49196490618277205
P 0.6568496146050097 7.336051724953468 0.956990554837687 -0.2756489983627253 0.8862744292038994 0.8763530563251294
P 1.2787372204618048 0.6603865375412487 8.56175721289825 0.7830482368226965 -1.0143421061088145 -0.6167767951545506
Ni 4.030009978561206 0.5911295510960923 4.145050723379235 -2.25575864410576 -1.4581520498529146 -0.525685695473985
Ni 7.035804833656017 2.0298657777571685 6.48171393217771 -1.2314802527198405 -1.6950167283585904 0.07258172802246855
Ni 8.5604775082985 0.41922717309786084 10.06368449721777 -1.3458146391990629 -0.5864215799014609 0.0709408499849359
Ni 1.8132557356787253 4.273163065649559 10.516880502995788 -0.6570189305040491 -1.3234946355456239 0.10735564116854414
Ni 0.5823208717021405 2.0024843373651335 6.181053371070837 -0.5301169917724612 -0.2507074979260392 -0.3403232986126591
Ni 5.573173417290775 2.457032831517834 10.68876537603549 -2.7070630964546925 2.3525691627686065 1.6940391949366695
Ni 3.3573497011510915 7.740858497478781 13.002155281814343 -0.9248098662749363 1.2207109300184784 1.4594681975611767
Ni 7.093838377743981 0.2605484092970344 0.6757439140518419 -0.4574154503426768 -0.8748322488052289 -1.0325920534579378
Ni 5.146632856782686 1.2554556256197211 2.118392038287096 0.8351220746998005 -1.0906313648898571 0.5625794831765407
Ni 5.900138403183415 1.7598011202162134 4.593149100971215 0.3319931814804089 -0.7207015562646749 -0.933996674980527
Ni 0.34299860659057363 4.217377526762019 4.890505831484353 -0.4182266959583571 1.0518388175026918 0.3853535993794202
Ni 3.8157400730438593 7.687744768050759 10.716017832522583 -0.3980350515018306 -2.550403466844698 -3.2461696933202737
Ni 4.1319533291459525 4.820616823904978 10.802384533958337 -0.46181460785163686 0.10662107699536477 -1.0110204979347492
Ni 4.877876464563289 2.510174200354058 8.323987361214025 1.3960421678960475 0.33903569014948703 -0.9111331401187921
Ni 6.822318044704391 3.640699700901103 3.9482461599046816 0.40867401927291547 1.271930647425403 -0.670634978625587
Ni 5.8377931114159525 6.761069116128938 6.321196226417849 -1.2002848009536426 0.8624629286065986 0.09244298572276982
Ni 7.533083852888885 7.220740113935061 10.649270504342162 -2.148228939253197 0.3903968182302825 -0.46341383401795677
Ni 0.3681053236875906 8.439324769013421 6.35676814477372 2.5114232289267586 0.13149264342606387 1.1945108745843427
Ni 5.808274223456302 0.47450598950169975 9.818512812017069 1.6138716841471432 -1.998332339398649 -1.0609623770705148
Ni 0.04501261888403933 0.3515493181746408 1.6384567477009329 1.2746953546547337 -0.5140473399041082 0.8266155798906861
Ni 3.076984757486888 2.7090397423668686 3.589023220699581 -0.8972779794032547 -1.3180606090142462 -0.08759054272647497
Ni 3.21006850797913 7.643263747117803 5.458750873902861 -0.9929243025546706 1.9915489979282281 -0.7281359010555332
Ni 6.49456994224603 4.694221810197601 12.319253682351812 1.058347565155487 -1.19143017877649 -0.12485534061520434
Ni 2.705713800246571 8.093942724122236 8.074783086356664 0.6699739480028203 0.8562344311983834 -0.4268614888152197
P 2.7574363461284297 4.421623540238136 2.389252710784267 -0.9287899339686068 -1.7049224175080768 -0.17580020709418756
P 2.089880146099603 8.867339431292278 11.48493603425031 -0.7042449533705484 0.5387335297968786 0.04040000108360139
P 7.125116974692486 5.237870543257222 5.618661433995888 0.5728515545265102 -2.029809326961008 0.11519390626604033
P 7.5630910370601026 0.1709267068887037 11.982980665090372 -0.6573495743705904 -0.5341636510380091 0.06850781506341105
P 0.3979264025102482 3.457597834699454 12.178517501042064 0.4843557263769465 -0.581540854770392 0.4156805324977357
P 1.6610363015746876 0.9453783181384539 4.052911992197317 -0.1314047116979479 -0.4736573661228359 0.048813421958277224
P 4.790250327427136 6.740210576072555 4.26808202110844 -2.0988478177169076 0.5298804502816229 0.020232782107107092
P 6.980949821511274 2.178888253645851 9.124419094859972 1.210532961044212 0.3013381755987133 -0.743451705476997
Ni 8.100189230375868 6.72706343090451 13.416758381920022 -1.2914880007320402 0.9777918177886066 -0.12138203735462322
Ni 4.626754014776716 5.314873934507769 2.180514372161731 1.9852994174740906 0.879565135504524 -0.6456145453218494
Ni 2.4342026803430485 3.529248393894896 5.982779312393547 0.44737837782164885 0.4584824581546104 0.07527367303233488
Ni 2.4307477543178084 0.6950850505979383 6.391490611984184 1.2647217883817896 0.21469559860780443 -0.17304064207117942
Ni 3.1283479910621215 5.865211404352256 6.614535108292035 -0.3197035654797784 -2.098423071474664 1.8161246861162206
Ni 1.4129357604181911 2.738466498965846 1.311832647842783 0.06813706198755361 0.5516463812038047 -0.6156761058912043
Ni 8.21429392056946 7.104829649072277 5.247935894410754 -0.5935854446397519 -1.7418488582207807 -0.7874805615624374
Ni 8.418521507773443 0.6692781351598062 7.7951312394240695 0.4941403165675361 1.3082335956214954 1.0953961332683522
Ni 5.907628682806134 1.9962378311114999 13.331442899309552 -1.6268786379297722 0.35978834931580617 -2.4580550977182636
Ni 8.932319679974992 5.491416047829497 11.577371428413596 0.582818435931235 -1.1543055060100509 -0.721603499253654
Ni 4.736003382262836 5.8309108987736735 13.124983890550068 -1.6942911630464756 -0.37332700723218926 0.5947367846353757
Ni 0.7721096320614409 4.717429699951145 7.825727142989988 -0.2894617358761015 2.40524669566798 -1.6713065292258442
Ni 7.781350230494594 3.071208121172687 0.35615865014911424 2.895836318769781 0.29649704545632805 0.1786219928136988
Ni 8.843993344497724 3.4610343344525596 9.380284467093993 -0.794623857475438 -0.1866003830334851 0.3820733859662517
Ni 6.220737112053546 8.43942611351016 4.270764886331239 0.3164326080379905 0.7608678440709155 0.08417148974259699
Ni 0.053953967437360285 7.948458092483398 11.744860714235587 2.7405136628036546 1.3643245250777922 1.4168349362716823
Ni 3.93377877233819 8.179910496766272 1.828047425634786 1.2115652589634684 -1.5320622668788195 0.5236192998632595
Ni 2.2250737047512583 6.1004964732391285 9.149067919094444 0.6661933979144656 -0.9550961759633034 0.3031220069720134
Ni 0.41114448882601284 4.991492858545312 0.5416992334677795 -0.5251786739305794 -0.7944652204103866 -0.4144772562182539
Ni 0.6342590049679742 7.702430506942045 9.370372975312785 -0.22142520402215413 0.9538065106176026 -0.40416610410023296
Ni 6.808654963916576 5.249101356123269 7.822437132100354 1.1891475533899005 0.045424193771070154 -1.4683413316810905
Ni 8.755878911150004 2.1546945583331043 4.160678966090208 -0.4544635668032044 0.0625323142062665 -2.164132754967647
Ni 2.5759559918746264 0.7830824771176028 1.6445383388189618 0.11708032465547577 0.4053022745872052 0.0958556109487446
Ni 2.67421408803245 6.016951755380794 3.882523332454944 -1.6157087373558818 -0.0605682485013602 -0.13670401242367425
P 5.937589801297015 6.934874928038675 0.964847517275886 0.43186922644245623 0.5618721726968711 0.7420026317352962
P 4.217239329721009 3.328033502184923 12.236917727945507 0.7117363766515872 -1.4419001067704265 0.8762473839852006
P 5.567046681806016 6.32432961399434 11.124566980918436 0.8667615559819524 -0.5037202469464873 -1.5515134336248955
P 8.652304835481345 5.9332596273453815 9.308857787104987 0.8798885802822136 -0.6491516119408305 -0.9033583812693797
P 8.419912691319606 3.2953545085541864 7.1157619563297425 1.5326299664568315 2.270418303000464 0.8415845424956926
P 3.3901576786867706 4.094999440379986 8.418323425347996 0.24804332083031475 1.5435684677462063 0.17854871637360217
P 7.352580091058217 0.4857727335984089 2.746075628043834 -0.7975988809433618 1.2373819629162561 1.510622866058121
P 1.043102052404374 6.20259644713702 5.714561888634087 0.7349418682337729 0.45943839430997646 -0.31944465539143696
