# total energy = -340861.0785345518 ev
CRYSTAL
PRIMVEC
9.31311532973967 0.00000000000000 0.00000000000000

0.00000000000000 9.31311532973967 0.00000000000000

0.00000000000000 0.00000000000000 13.63068566920017

PRIMCOORD
 96 1
Ni 6.9153325505820495 3.352004327869376 7.791912746215323 0.1027155712933715 0.8856146841327135 -0.026757984820134563
Ni 3.442099403393331 6.734574299512746 8.820416857241892 -0.5501623404591106 -2.243810727715265 -1.2686550619979247
Ni 7.326711470991821 5.324345157881641 3.9522308711284904 -0.5310009370393114 -0.12426835776348276 0.8855897444320491
Ni 3.4648047780188636 3.1821610477029134 12.060648902869351 1.3216334139671693 2.098607162461011 -0.44668417996810167
Ni 3.7388990686685957 5.808589890871464 4.25738067540673 -0.3199074539604684 0.004777881004617578 0.7444282104576534
Ni 5.957925691577131 8.690114269875929 9.787241138240796 -0.7298233160602849 -0.4354620860000371 -1.4689481120271541
Ni 5.4456857345822405 7.340187548548484 11.912168977441818 -0.056459625649625346 -1.9007499755667845 -1.1028993836239327
Ni 8.491716978798113 1.159128932175155 13.290354483931797 0.43520986077991497 0.7542873626399204 0.2108489711682046
Ni 3.853729777910932 9.132775943922766 7.876014832169332 0.9280916223500016 -0.8892898189914555 1.7790277812639232
Ni 2.226244287114764 0.7099778795232858 3.6506247071476317 0.17057983923551268 0.25529897395146356 -0.46116386164151546
Ni 5.899234440186603 6.761563707086492 5.351720128420727 -0.3704563705526136 1.7498413895079539 0.02482965744917014
Ni 5.317099554330097 9.043668058599922 13.249012634670022 0.8017674104987547 0.25362878533789224 2.204894767376358
Ni 6.69717282925182 2.64531584060111 4.822931697196096 0.05784596447419069 1.4258942182604732 1.668197294172901
Ni 4.2525173666989975 3.2406194712158207 1.9257845676033079 1.2538743041443243 -0.4238206451063668 0.11650799709177355
Ni 0.2288372077978967 4.331129371298718 4.514428240168614 -0.6574997267952096 -2.2787229662114172 2.704455997849149
Ni 4.895848731909225 8.298004184618016 2.202964293287265 -3.710017786662172 1.6132127104069056 -0.234335484325919
Ni 7.126181476555002 5.8281101801311515 13.076462031942592 1.6269472863841787 0.8615057068996518 -0.13322273874329316
Ni 7.5988779468148575 3.2995994291745974 0.746869922387979 0.8803848031923418 1.5134809043322064 -0.9599545324968695
Ni 3.8971847729899864 1.357060567497732 9.460567793643825 -0.7879778129138301 0.20236098830185148 0.9272053630903063
Ni 1.14001841998008 3.396101927890663 11.163176596121453 1.8885151240634896 0.5878416001774392 0.4869574256658517
Ni 0.7548717508860338 5.8860191298528735 3.278425130672296 1.10787652512355 3.825931344703056 -2.3084014671124566
Ni 0.2142025787221946 7.439539860486622 7.673898814230162 -0.4316157156707534 -0.6721596428002296 -1.5787123626371908
Ni 5.221723942541714 0.900426426859146 11.261263255716846 -0.8029138653983721 0.28187158223366937 2.371215060004568
Ni 2.394774418051448 3.959740967149011 0.7264183216178111 1.5912449478865627 0.7115463721279681 -0.34651914301072584
P 5.769446868085938 1.1827190527356446 8.081483571546233 0.5286041546723605 0.03411005430983158 -0.009878949676608793
P 1.2485441502964583 5.577429060854917 9.02156431121016 -0.27000954068876076 0.8414547017860476 0.3493031335137662
P 0.8601025010783295 2.412050246570875 3.7711336226693724 -0.16963084505868206 -1.1573869731488517 -0.01174582768201848
P 4.007861832895577 5.5486608482961515 12.08702364484618 1.8185248109172811 0.9809766432744912 2.193741578973015
P 2.7846679819144176 1.2659969280028767 11.61304382732488 -0.43758453165967864 -0.7153222942306325 -2.4595123989900802
P 2.7107032217519977 5.597806156704246 2.197784338665968 0.3525491512548896 -0.46171613460055966 -0.47437624656673144
P 1.767210156713668 9.090838986605796 7.286296276682977 -0.7068921611854084 -0.9413389742782111 1.0665365287241826
P 7.9126367946959855 8.190577401884005 5.1949263851391265 0.7805144146572494 -1.5188550241599261 1.055534521186724
Ni 5.99914553903103 4.681255933664138 6.17887189694672 -0.885921673850171 -0.4532456352357033 -0.38673685288019205
Ni 0.11521999745371747 7.907272440395613 0.9695520924131051 0.7701487551522092 0.28257272206575207 -2.6596599245803807
Ni 7.6639486820521805 3.0651790088713655 2.9671957248536347 0.8531858741800469 -0.493206491899357 0.0785032357132261
Ni 9.218018886477113 0.8223042921139381 4.938601518109376 0.13454531420945862 0.5833421696451889 -1.4384789969040195
Ni 0.7162511938578874 1.618125810115832 6.897944964681366 0.3285918691083438 0.8190614216925121 0.053132875269237524
Ni 7.136714609738544 0.3007931290322084 3.945156628894875 -1.2573856597316926 2.832461968278193 -0.941108860545276
Ni 9.127961063413577 1.1971636942632087 2.0706919820766356 0.7404100904371957 0.1610716426347613 0.1258315884855446
Ni 5.90534384369536 2.600957473356889 9.905514906137382 0.7534957199765604 0.8207159265767995 -1.1038800023696473
Ni 9.133819012814504 8.25909398971011 3.035199160037464 -0.23558966844799425 0.22525460507057335 2.8376679379591643
Ni 7.656479563738122 8.413663761104681 12.623364081109301 -0.06455628661483075 -0.5555187196750174 0.20703962472444343
Ni 2.6137350672806914 7.685871755008909 2.9973739430392685 -0.6631561537500386 0.3544144865984025 -0.7305357687462772
Ni 0.48907823972922065 3.777520557008253 2.1131784131847895 1.2930782280372957 0.01573103758201162 1.5326325375599927
Ni 5.858992469818709 4.949818233941612 10.617635733446285 -0.25973875489037207 0.6264598267702696 0.017807203384749976
Ni 7.342506514209583 1.225140292038065 6.428953251610204 0.09349868068079381 -0.31628296983400367 -0.29385729384063586
Ni 8.265659735859002 3.3404746913696184 11.962153397520856 -1.393266662033439 1.0698892472464994 1.645432746782876
Ni 8.145790631344964 1.5621353621057 8.521086818592648 0.5445005141876429 0.18968493549607976 0.5696191636321416
Ni 7.043872165258669 6.703990029508543 8.94134765687788 -0.5395794227369417 -0.36849153351675895 1.0183941646910009
Ni 5.963830206553581 1.9842895566917391 13.588606995163412 -1.2895244492477664 -1.4666220349971388 0.7560812213155494
Ni 8.34668383727087 4.962912473778979 9.280316176036225 1.2335553900813143 -1.3080960416023666 0.4574786994804444
Ni 5.286329022023796 5.665186544487564 2.515911037531253 -0.11562430893523958 -0.1816029298188937 -0.7337272791003815
Ni 1.5042729779595008 0.9508411128560267 9.238551511348692 0.013715549813879605 0.6279122429460798 0.22564978362646299
Ni 3.1706966030088894 7.5162147371445425 6.370886910243209 0.7198885734450763 -0.6114175877251663 -1.0643004403048122
Ni 0.9036180314055652 5.3564288394177195 13.327239076304403 -0.8949560161382973 0.5147551646044102 0.16980156630859145
Ni 3.250388928960769 3.5326042559818975 9.158088990777646 2.1626461431197916 0.2391426759065752 -0.4929748355045252
P 5.204913769777528 7.235554700345918 7.938197570412653 0.5159790097091823 1.0905966549971797 -1.2557208704347598
P 6.00609312289922 1.8183112192937734 2.179723414543205 0.7904643267811097 -0.3181323643379166 -0.4828500883656975
P 6.26988710824303 7.37888354180898 0.9443461463819307 -0.3137733160382725 -4.44284337988389 -2.506875975875708
P 8.902592990992224 2.3529212787704212 10.308246599172334 0.6853769128214519 -0.7282138054813201 -1.751894158271925
P 8.695748704514342 3.31783450854982 6.216478255739952 -1.4938047660595175 -0.6793569318796171 0.8607346330615822
P 6.0064377081580975 3.246011764861507 11.98971463036204 0.08381539195475887 0.8174426551421664 -0.3448404697567222
P 1.7389541654856673 5.991955814170114 5.322741439460593 -0.34981272616033304 0.3673697612074899 0.4564266040668462
P 0.5098390359208684 3.0037217622947088 0.2767857809150231 -0.4306559228606454 -2.002232188673687 -3.5698402138676
Ni 8.281035688897047 8.667120188682148 9.01962904589138 1.4904073103421944 0.025550080554962443 2.443291566255844
Ni 7.590868667824719 0.7849242420177528 10.764438366843441 -0.0794512014487922 0.03760624038854814 1.6227949547787017
Ni 2.833049614883918 3.4662948764356334 3.7567122639295705 -0.9217368837765674 0.07837776587895534 0.030571702139269935
Ni 3.5806506168076244 8.111089964464432 10.504759847064449 0.6553739387014584 1.6288961825804333 1.958521120938982
Ni 5.332112295879054 9.152380051218396 6.009524074503833 -0.8422558575311043 1.3356017032218033 -1.6342764730557402
Ni 5.2860589416857575 4.834447364023197 0.1891735818780114 -1.491322365957296 -1.0560417998404459 -0.6264873375740952
Ni 4.723807556578026 2.662135326480401 6.585543037671008 -0.2207793429080391 -0.4744266401886926 0.08677396036245057
Ni 4.8334229213616675 1.6316018876724951 3.9497228492307648 -1.4221933723701186 -1.0662845606143765 0.38063459663719607
Ni 3.1094349318494334 0.8925661577106844 6.003608383789256 -0.5801383179959105 1.1697336676396628 -1.5646270881887183
Ni 3.4141414318486842 6.863886902743067 0.30010023326841034 0.140312555710539 -1.2607412064674868 0.3958087332744732
Ni 3.3813592666797447 5.099852518280139 6.788803637456558 0.11316607720273414 0.04270756617085548 -0.4686964225731348
Ni 7.013511410016982 9.097898327855244 1.406332534271252 2.5195620559838092 4.519391291642958 0.2021658415719099
Ni 6.983132028545083 8.35535434743345 7.242337442076752 0.9389928426435377 -0.9700106311812909 -0.39319880645545185
Ni 2.820421030801792 1.724621281339361 0.08882290400063733 -0.43010056457780765 0.8310821003024718 1.873004172912084
Ni 1.6236019217974613 8.005590996557117 9.302138667349821 -0.3773584969890856 -0.7920239579587456 0.29483662703476965
Ni 1.1126844271474559 3.1611692862566665 8.633539889548727 -2.2192068131236553 1.2992445047490075 0.28625916977840377
Ni 1.0768196208788234 8.216728629098318 5.425312363978954 -0.392397393600079 -0.9943319815354745 -0.9803387525801762
Ni 0.5565294071873347 9.155527884123822 11.05567158322056 -0.1422989900129485 -0.5885507104293218 1.8800004017242589
Ni 3.1614859321702298 8.966872111445639 12.93197650158351 -1.7735235636162427 -1.7045244107387099 -0.6662126811881751
Ni 2.7614596990732254 5.276447806897591 10.561368685917541 -0.2507866879034068 -0.22388394997529187 -0.6941891117964432
Ni 0.572439933032396 5.140224872259501 7.092794890215759 1.3506925361166546 -1.3703319076141367 -1.3125630762347846
Ni 0.6736427609418605 6.048188403172971 11.119408680374875 -0.8432161645618446 0.2845298457921229 -0.335118614483268
Ni 6.682970328716982 7.584936213502954 3.177108682758553 1.9316412658290023 -2.4875088842030064 1.2972377587316242
Ni 7.863547364978519 5.94677789279667 6.736815966318475 -1.1347900616849425 0.553074371899583 -0.6930354578079742
P 2.2946956831351346 9.363964713284629 1.4089355499430474 -0.7941176072629808 -0.846587909247555 0.503011908025553
P 2.6080820064120704 3.1609364583790462 7.0469687760310205 -0.626260823385586 -1.8999979278921084 -0.074350132776801
P 4.235381234906143 8.290572318764376 4.377208802214309 -0.04185755946573437 -0.09111269694712051 -0.0982415946824179
P 8.083877042128169 7.03342285011107 11.050382665152538 -1.3365442696407304 -0.13036495757952388 -1.0556329944378011
P 8.21371117980436 5.125482211048583 2.0562566536641764 -1.1684334607710005 1.30778699500238 -0.62486522858964
P 4.890698579256263 3.8441931480436042 4.445348208878668 0.23187288171803935 0.5341744496712865 -0.0970905117971102
P 1.3377637930005606 7.511092523836895 12.631787793721605 0.15354833767452267 0.2845193042691616 0.770264454794467
P 5.048900465541712 4.854098036894351 8.345141585409513 0.9187220082096437 -0.807506626975377 0.5412884350082484
