# total energy = -340855.19200581417 ev
CRYSTAL
PRIMVEC
9.39125989391242 0.00000000000000 0.00000000000000
0.00000000000000 9.39125989391242 0.00000000000000
0.00000000000000 0.00000000000000 13.74505813783459
PRIMCOORD
 96 1
Ni 8.109559411791018 2.9330312924204733 3.7326632525791292 1.5616286676820266 0.19673798568811923 -4.2091707259529505
Ni 6.393278516593161 4.959975060529555 3.796687226877345 1.8777254896471531 -1.6485466098215091 -0.09777596789990903
Ni 1.6958830789958261 2.2264516904829055 10.706657829533956 0.49296506531251233 3.5292489227087995 -0.7227926344657488
Ni 6.2186856063666625 8.6126679797354 0.7431031502761124 -1.1833707988071231 1.542868356355388 -0.6467332323073249
Ni 8.769605321610234 0.4701339766697175 0.23631320850521303 -0.446484919473102 -0.42888417567220327 -0.852552354361106
Ni 4.260523424750984 2.51252824533846 9.833187089500317 0.7525518680060523 0.5431118613702324 0.7473042464538678
Ni 0.7857807911363835 8.5669513272163 1.7685357427629307 -0.33774756746568285 -1.1351818978067223 -0.10729059225856362
Ni 3.3804684724985385 3.8565302123297305 5.129435647296381 -0.6513879574705169 0.6187323762190248 0.010583174832485
Ni 9.052657890822577 0.6479631150100378 7.613579749131609 0.30008193459410903 -0.33456248486948187 0.26845042373175704
Ni 0.32243387789631967 4.99937139522915 3.3798824578894195 -0.19775434276777556 -1.6156506304244367 -0.21708518188590353
Ni 2.3275673843352376 1.6238145515858886 6.1128808565154005 -0.6280168868447443 1.042233947423076 0.17435884666197068
Ni 1.3304034228565838 7.548854247729208 7.474040655090977 0.5821432642410812 0.9984817420377902 0.5366164834538758
Ni 9.344406766574092 1.8328358200981356 5.340683583498087 0.13208271160157897 -0.948200991505367 1.519994794191324
Ni 3.354839724609339 8.433802046317407 2.1327795091175568 -0.32915416936971703 0.7359790512490357 2.5090961234554787
Ni 0.9127543796160972 3.4754610649863573 1.4880535613473165 0.488207753133185 1.3704072409367625 0.8848148139392373
Ni 1.806962899455136 6.220836204852051 5.562350183279226 0.16010722183896295 -1.1368173765276164 -0.249421432124764
Ni 1.213435282526798 3.4534385608455826 7.49876784204307 0.3861372716229801 -0.1621263091515208 0.2044646649084156
Ni 5.018454435064568 3.0602171233707973 12.802160611280094 0.9435390672533235 0.18841043965903037 -0.23470649451209258
Ni 5.014388019587828 0.6975123406378163 8.558291646590197 0.5887972792224891 -0.20137059936412416 -0.7451568610935618
Ni 5.449616561975911 8.546478380936177 5.567930469829523 1.9207960955843824 -0.7440661991325443 -0.08023821612646181
Ni 5.534814070532461 2.726940096953822 3.7483457172548986 1.6548740947014338 -1.1984708876733552 2.9906118092804688
Ni 6.872204590651618 4.0273572273918585 9.473589179349716 0.5720727673789567 0.03141245287301042 0.7526598543388264
Ni 5.377980032515004 0.09751038922988334 3.0115835455697675 0.4522932986247629 -0.398161806887682 0.8837838015715619
Ni 0.8256579583357682 7.210740722535047 3.6737237063158026 1.9962775137521493 -0.7570957786229928 -0.030244657817154363
P 0.806902673466028 0.03911084040284425 9.744201146755968 -2.026115165938872 -0.22031654433900769 -2.1732987377376314
P 3.3204771051419213 6.848998787780891 3.894277441815201 -1.999770357396756 0.9258699321083345 -1.4983677028398517
P 1.2278602575204993 9.133713853824293 5.460031469051442 -1.5983748740631247 -0.3212698815256338 1.45973430673837
P -0.25596348043022654 5.452856546593638 5.382097160794455 -0.007809468742089775 0.6254853786721422 0.5691995595962197
P 7.1564780236329595 3.0441674604383526 5.414109147943564 -1.8302912074245898 -0.6190625058649338 1.8536121415387175
P 4.487885823577488 0.6766318136840431 0.4283644706283857 1.2657255470559556 -0.7057521340436942 1.0297964929906716
P 6.379022584275168 5.386770251651791 11.169000817105514 -2.8252937326645275 1.6493624208545854 -0.8768791040319285
P 3.0992941552385003 2.0053250881380533 8.06807446092046 0.15391831941943168 -0.20066328888445442 0.8550252413816306
Ni 9.034485803184028 9.041576204303977 3.808232841628163 -1.5226031783484486 3.2729616167021374 -1.0206721620919004
Ni 1.782780405569211 5.4285519663308115 13.041764517205747 1.9615678781851054 -1.3230454638233473 0.19245041405635888
Ni 8.104225176246473 2.803873296920229 0.8901599477558457 -0.6488675050415084 0.24379303019439305 -0.17033481310424214
Ni 5.0456796971132265 6.2598756716807085 4.728534037588621 -0.26134800835902083 1.9485007605885023 0.5924042798474571
Ni 3.6306422412857855 1.9308336157096422 2.252690870256604 -1.2403117349685413 -1.0227622118517097 -0.7942932136088966
Ni 4.522558354617036 5.068678892269199 8.695013362702374 1.7865474866797362 0.6195990950946941 0.03488961278833346
Ni 7.992591271461233 1.3208806854583979 9.89094333703369 -0.00275236593415655 -0.9461934741570349 -1.0457105931177668
Ni 3.67552307168611 7.76135967361298 0.1765425357529914 -0.6881735017299826 0.17415572951222913 -0.12767686922439947
Ni 7.607296057225174 5.221136603237786 1.8725580315114552 1.027579687845011 -0.8499977062600523 0.2076011536548683
Ni 1.330534900493245 8.821445075493846 13.272764150937888 1.9969907377690896 -0.553034519800583 1.4546687192900045
Ni 2.4754327692804385 6.167522023185878 1.649805802101883 0.2642281581202934 -0.407063480252686 0.5804723042965616
Ni 7.198860778936719 0.7089865818144467 5.3948936913455094 0.366772236832807 0.6182762625182127 -0.48019336746914076
Ni 7.606873450535906 4.294050222099626 12.310870943745591 -1.9090808640299828 0.9576281983565378 0.769400821242591
Ni 1.2083921760348595 7.124087568715463 11.864720366254856 -1.38808974581819 0.3924968952924208 -2.8829399224230863
Ni 3.122687783304457 3.901720954302186 0.4747112766774845 -0.4668688824460927 -0.6671688744538574 1.082136954265601
Ni 7.698043800300783 7.591058569097498 2.0119881869388547 1.6981460180161914 0.1482228116965512 -0.005165346251023362
Ni 0.2188032046798509 4.415037821607344 10.72228582490311 0.5613196426275108 -2.1161611121843746 0.4302126646756397
Ni 2.882412402305857 7.032945392729869 9.738676268638264 -2.206023481664162 0.43111692165746396 -1.1397492054624307
Ni 4.464529760550577 4.094993080194357 2.512802470123496 -1.350775068528132 2.843815445617799 -1.1246902542467794
Ni 2.689722534518901 4.171663324887441 9.704450761563363 -2.8238595713211625 0.40489501184645754 -1.4306877829943747
Ni 4.1702734184427355 0.5755067285719491 11.867483274876696 2.8501804686038783 -1.9811946512770975 -0.9325015784922392
Ni 3.7499488052961905 6.856709012045102 6.725717842639409 -0.1609394879322712 1.2869713438086092 0.18072232698615326
Ni 6.799741630331695 1.1707050506118624 13.009230376013898 -2.6772172167378536 -0.48111587928341004 0.8318557452437029
Ni 6.574905480381042 9.093002742758085 11.113567028111165 0.8148918636958546 1.0564986848722062 0.7346598182169799
P 3.559362579695816 8.529649243443526 8.273769345225176 -0.0023456174140411216 -0.9750170832569466 -0.7640817230225228
P 6.966934227866114 5.358840645121017 7.459855157221194 -1.3309881157091916 -0.7224576197238332 0.8013310942922844
P 6.818505367335222 7.7081957521029905 3.910881189073576 -0.9567856478505846 0.24199171531959615 0.9203153208386924
P 5.899777207384819 4.343983550251651 0.9179439897603155 -0.16053325363278803 -0.2518089585203341 -0.6983247312313715
P 2.973751794746443 4.947625553943151 7.190974938114967 -0.8159177338572078 -1.1457830703613363 -0.18167517781772582
P 0.5653153334787427 6.071665434799998 9.566298756589507 0.942346589607119 1.334044128926696 -1.016658412946817
P 8.457270804461457 1.0604140959725206 2.2345338086336732 0.12397139534835423 0.3359030580577763 0.41060363219546053
P 8.671278831907074 2.72871504504875 8.460522997716874 0.18642040581219507 0.8217191710303332 -0.7556521041979308
Ni 6.798558331601744 6.309029525272527 13.61443884183362 0.7335570720711044 -0.048522630190735785 -0.5889870266357922
Ni 1.515411240158613 1.2852690284426977 1.3332874787293476 -0.1776660566583327 -0.03010016181949009 -0.3972112700489547
Ni 5.148739381736194 1.7977970299278883 6.124206715787799 -1.3902260754349025 -0.6274257902279646 -0.7268912300151545
Ni 5.096082588253328 7.867152214826552 9.742937083192066 -0.4303569035629879 -0.2188229905126167 2.1136869396122697
Ni 8.701481123300136 7.708139404544422 5.511411051206742 0.2214300891181606 -1.350861971814983 1.0176750271367894
Ni 5.1011163034855045 4.674292938583985 6.352801247895015 1.0824066629872198 0.2540180503565109 0.5782177039344301
Ni 3.017890715625607 1.7956182576632147 13.158019860919632 -3.4522004171642284 0.85713123198104 0.9938792102687722
Ni 5.342546809434772 6.668273384930116 1.9391664804960427 -0.29360121196577177 -0.5353620422214844 0.6243687485691957
Ni 4.452743729549864 5.47954650683589 13.329943775121906 0.7306303853426127 0.7848755198394224 0.8360435580728053
Ni 7.439211290013411 8.036964973834435 9.283151335653574 -0.11419708957040976 1.6820539975503355 1.0434475081152028
Ni 0.6734021594520548 0.7160694699265884 11.67062650513355 -2.9222554321932575 -1.3478129005760144 2.0242295188803845
Ni 2.795655944628895 0.45728391593802376 10.058798018381296 1.558484208515774 -1.492837517050242 -1.9966816911691034
Ni 5.334752063832707 7.716957797460494 12.491893110404831 1.1974954111339633 -0.41775566985920953 -1.9653463713909312
Ni 3.4142300513412187 9.135244629165422 5.38073636725501 -0.4077939306608073 -0.9215515072386387 0.04149066304461887
Ni 2.103595230282644 0.38290419950077487 3.5994735892632623 -0.6220933222714577 1.123054775525885 -0.8915194796529227
Ni 5.750794262527997 7.414756449594401 7.706551342518748 0.8937321710335252 -0.8243334687247288 -1.202858732328406
Ni 9.088241374058992 4.9980472276027745 13.655852419129989 0.9113961639721917 0.7409147979877562 1.2954678113153948
Ni 8.138691099571266 2.4031294603764626 11.82410316778626 2.771266113495163 -1.6419674139420948 -0.24275379029660127
Ni 8.370373477888073 6.301009389436184 11.14795688223189 -1.1620172728320115 -1.1265198512563501 -1.3891570107404396
Ni 3.863451570773974 5.514773122201367 11.079066357125253 2.471276481504544 -0.5063486857082699 0.8449182348546157
Ni 8.495746795704422 6.821360310302725 7.899917381008534 1.2145863051779793 -1.520790550619742 -1.3863997597102768
Ni 1.4675627716736466 2.8770312104625035 4.065046231066808 0.3366967576036653 0.27454548088590136 -1.6061871710186917
Ni 6.464098006454816 3.0866723021190112 7.404916287616277 1.5119071320871833 0.018978083764399575 1.2167465460540914
Ni 5.858934618681949 2.1124793620170457 1.6461216108974372 1.1773880988611272 -0.31126340513222517 -2.590734562363577
P 3.040007132363997 3.597528659366651 11.819361520732668 0.05596211718791652 0.7774414321588805 0.4039748140250333
P 6.09107716872707 2.139845492962128 10.957724707124525 0.22757039768794357 -1.198277797825943 0.24326492560506494
P 0.6111352898552201 2.6464663920573197 13.219983392826169 -0.31545713149859866 -0.39020269994160534 -0.04409081967162729
P 7.406886573914244 8.646720687630687 6.933653481523224 -0.4966042047269964 0.0527109572404705 1.5954728699249814
P 3.2889506461224842 7.4195741658520635 11.908635775151696 0.01888423849901264 0.5376397825120676 -1.05169946371135
P 3.698296876607807 1.8911273694379171 4.362008195111945 -0.9015128434202088 -1.2909979484694991 0.5928490806943596
P 8.566716545722262 7.971320068101379 12.145147139237876 -0.31019819709250446 3.8453969096268357 2.056909011391277
P 0.28520786332761333 6.348500990050213 1.6466850864831288 -0.3063250872903434 -0.05893482666299527 -0.603235051914374
