# total energy = -381169.7644553569 ev
CRYSTAL
PRIMVEC
9.27680256445864 0.00000000000000 0.00000000000000
0.00000000000000 9.27680256445864 0.00000000000000
0.00000000000000 0.00000000000000 13.57753826665646
PRIMCOORD
 96 1
Ni 1.3177790627791208 4.233209041016916 11.594850865634905 -0.47332183716028803 0.404418072210039 -0.03334386556776838
Ni 3.9184471343770784 3.0784883346483 2.6197448881265215 0.5202550113767169 0.7632062623961049 -0.5805535511564582
Ni 4.939053107934256 0.653354063376239 8.223140431921982 0.6019926948668407 0.5635289915740036 0.9323357423383362
Ni 5.709992497542185 6.671245489116406 11.108259385881704 0.9583771607074205 1.1667213631759004 -0.3147076549270838
Ni 7.478985953986353 1.266431961298086 10.880740240067203 0.004066970980522028 2.394704915596392 1.4439094238909715
Ni 5.11972811216996 7.513801793527152 1.8774337108348464 -0.3517729352104974 0.5313917447198268 -1.1318518049922248
Ni 4.941205326099314 4.957755141644421 9.518953881894092 1.414032433825881 1.4008154209149746 -0.15504857636913297
Ni 6.698741931535518 1.5048365070905172 0.6672655563086617 -0.6344950383699202 -0.44349986870284913 -1.143946788483546
Ni 3.5896308720473096 5.969121419975742 11.243437240252263 -0.7354247214074625 0.7281762673751653 0.796927308797634
Ni 7.70692626663143 8.243570733925898 11.457690558583858 0.704006097886865 -0.7052389418527016 -1.6601967924659278
Ni 1.472812985082833 2.816567094681628 2.3116576408390963 0.20927519892318155 -0.3626142488003755 1.3273294359106818
Ni 7.431674261564804 4.528257742481108 7.130135509116667 0.48311079822625186 1.2930630585286442 0.49325894240384727
Ni 8.125263672464719 0.3250452421396979 8.98432526376888 0.9412788104642369 0.6303283085867402 -0.9901801641506303
Ni 1.1077986396493615 1.357409562783995 5.241866493037042 -1.193273916853448 -0.34537860164837936 0.7978127967263807
Ni 2.7049764381838206 2.155177465035674 6.874769257750989 0.8262044604951965 -1.0238780706237076 -0.10593279267908852
Ni 3.360799986368416 0.9706411156390464 1.5951702984873957 -0.11470025445907342 0.21755183710967696 -0.6864891720490242
Ni 1.3324549642322367 7.657146944762012 6.3192984475937175 -1.5793181145419897 0.07750307658348589 0.5107013062500108
Ni 8.587072174511219 4.823714623252466 3.215473310133313 1.0297916078946652 0.06758633169040618 -0.7423119354455989
Ni 7.311595330838425 8.20877344798997 0.005706161178136283 -0.6171742877032854 -1.071377915976884 1.2031538949713214
Ni 2.499560201852376 8.193049267861632 2.4484375989902825 0.6697677455292852 -0.5977017808009707 0.5479889869568756
Ni 7.802764912593592 4.149151934147963 12.652364597682107 1.3420263758012243 -0.6009102604359393 0.5100726715270764
Ni 1.04710979811568 8.400729043987363 0.6420938805799103 -1.0058821482669194 -0.025737513975420193 -0.10120067731074184
Ni 7.093367830343418 3.6148823282770075 4.593063628935708 -0.6749595741428699 1.4321581968923143 0.6425330781830482
Ni 3.749822696505215 8.945119641315555 10.222609551116875 0.3668516839204908 -0.5569611085484988 1.5514617544513538
P 6.512055559321547 -0.19769329830380955 2.2541832113493494 -0.8262921351129962 1.07308564269661 0.481169615339481
Ni 4.811812485727594 1.8913359269648335 10.664735461435766 0.8185001498724034 -1.8389167443100716 -0.4488392786378915
P 2.9232224922836973 2.9866294369310094 0.5127641224647526 -0.38059011655250585 -0.7885267434387646 0.694748583844339
Ni 6.815304954138806 1.1295991253730169 4.962902839315934 0.131394941505935 -0.6918383521760795 -0.95660464218803
P 7.59616124555039 5.113187966452863 1.214074616031815 0.03819887966722454 0.094354858033502 -0.5331951164771528
P 4.2212976266896085 3.3039702946479435 8.615884995195941 -0.4812346642494615 -2.795663568502921 -0.5233879005787437
P 9.336545043283175 7.149761512349419 12.654862840578014 -0.03660685258975631 0.7756504016967287 0.44914626835534904
Ni 2.463380672353544 4.222318074957524 6.5038715642128615 -1.5418951938088412 0.41952381750322587 -0.52987865050941
Ni 5.667829430472392 3.6855622860338277 1.1343052472485957 0.5281554971707163 -1.1586123609155208 -2.3404027026094014
Ni 8.419421800895092 0.16958365924370428 1.5394213542506698 0.9853287495955999 1.0974640715409745 0.5843197030671099
Ni 0.06856206376077358 3.5849553636197684 5.634270597661617 0.0500596356605525 0.5270167555805826 -0.07522893583732851
Ni 2.732992381539326 1.6711324675510455 9.157533369724172 0.9844550887413949 1.4727803412890506 -0.3328874111599041
Ni 5.348670319478081 9.214230403169816 12.408634239611398 0.11914723448683352 -0.02166102991320141 0.537498628948513
Ni 0.660978667298057 0.2912442847853533 11.921635508231276 -1.1208703662800568 -0.3030320183613684 -0.2726462069806595
Ni 1.0596427582061727 4.185600490917427 0.5675788926962135 0.16363169005245368 1.188106770830212 -0.8260597073872161
Ni 1.7609040847203266 7.5190802941130075 11.304400675138039 0.5399504329231152 0.3471297800115312 -1.0700075179919184
Ni 3.7538117215525215 6.4857187172068835 3.516989798255604 1.0815386585599696 -0.13298825413498386 2.204198512640281
Ni 6.492416568565385 2.793699776677879 9.1061556547951 0.10292383064943565 0.5605660522909378 -0.5690566062604523
Ni 4.7202133384785006 2.257695408751467 13.089778820043959 -0.3447306836517353 -1.4023485697300493 -0.47369130468456494
Ni 4.691501634940324 0.15278337003283643 3.5101463010988634 0.7290306449556606 -0.6510259461454078 -0.16596882282606254
Ni 2.214010946082236 3.7621051829299463 4.332348373285663 -0.7096568684147391 -0.40064420698990355 -0.840297962473785
Ni 0.27222034603067263 7.206776740118603 3.396869121918264 0.506471070218747 0.5519759966290816 -0.9825892391772497
Ni 6.025079092267268 6.579535020238086 7.041053158368352 2.5637516060168295 -1.7063041283469516 0.9249638753542972
Ni 0.6030348316050688 2.271295201122053 10.248692208844801 -0.6368162303039291 -0.4871908818328964 0.31883298994936704
Ni 8.353491565985298 3.1406985717814195 1.5625846022521144 -0.30938315739037686 -1.0040389244105934 -1.3471138176264605
Ni 6.428295310130532 7.537763774218302 4.0903416451074905 -0.9191123016695267 0.6604832349035658 2.51846548048552
Ni 7.326206294674491 5.434851814104786 9.519293412863236 -2.381802091491795 -0.18578714310357036 -1.491226206699064
Ni 9.025475304012705 6.263131119567147 10.692134497429306 0.8819220657724747 0.07479493362370346 1.474812541227731
Ni 1.6455748768409733 3.940182682483684 8.718870489754488 1.2524951644086106 -0.17340805271292714 1.2561384175881527
Ni 7.479616776551973 7.097700097080843 2.305329933897775 1.7416174589362652 -1.0633167362353044 -2.1856606017370934
Ni 9.110283831878942 2.813385151446218 8.051221801505237 -1.6548985201814659 -0.12806099203669558 -0.7882446934219715
Ni 6.571742506192183 2.6089244257656397 6.586151235735154 -0.8341100884955184 -1.4537670334113415 1.482776276159498
P 5.524141037547416 5.671336061793048 4.9888491280480585 -0.0024394626794280567 -0.7663859456756672 -0.2542553631782976
Ni 2.959466959399579 8.566004556179974 7.982967727585325 -0.6368553110719807 0.051556789031369274 -1.1057633354352892
P 1.645649091260458 9.296098184663968 9.720267916188517 -1.7997848113056165 -1.4332581148247123 1.3058756369122801
Ni 2.940199040740841 1.5552466515255563 4.0517278826495575 -0.019658140550559693 -1.2749488654264365 -0.5302229212227062
P 8.159726993512965 7.324239612558143 7.102966537823532 0.7207164686630104 -0.640479023867497 0.22835869791719385
P 4.290391251229941 7.041612549555217 13.296279514580126 0.4099215185267715 -0.5430005326033487 -0.4464458387050505
P 6.002332372695182 9.144858474556415 10.401833663451653 -1.3856577393379297 0.010375686807369229 -1.06241247925348
Ni 4.4470486139598835 7.0821985602109585 8.776738255667505 1.4142378649684677 0.41666577922914044 0.5591684006124629
Ni 0.4884941519327412 5.484148742247553 7.438386028126959 -0.5411020300290553 0.28300878116190614 -0.7221506300063757
Ni 1.655732975507953 5.932923336872038 4.744901692800357 0.006231325621692494 -0.4836196195418703 0.41747824782810683
Ni 0.4212456833968483 7.53494362627788 8.919343118068003 -0.0973224253022582 1.0787269001427873 -1.1077682816804597
Ni 4.38082152137215 0.8258821797130022 5.884056852362282 0.7812047558560545 0.006644244789395008 -0.0432356707601836
Ni 3.092802440806427 8.715676486675912 13.124740305382996 -0.3315221553812613 1.3809806455772347 -0.35652099141844407
Ni 1.0215336538007367 0.6370936840671231 7.621153878992135 0.06377261437127082 -0.23077090690311225 0.48030006825033417
Ni 4.723024209616486 4.5780463411529615 6.969975225787044 1.9461160624064096 -0.8676730120526283 -0.3138748746131433
Ni 6.080990380546617 5.841045885549876 13.2888933244809 0.15065456106649538 -0.1453881704612335 0.7967997820808342
Ni 0.9211410255229394 0.5138782664372679 2.8479430958793075 0.7325101188638287 -0.08742393524162363 0.664784690492397
Ni 8.714238582298394 8.905247944447357 4.844926959701705 -0.39532099500477724 0.0010824344309013616 0.5887062621705796
Ni 2.546092642869335 1.6878585423424286 11.582251112566874 0.27685407441442 -0.1443065073612805 1.23698189926436
Ni 4.3695316528080275 3.18151650249805 4.9799693727567025 1.4616454077181535 0.35176882144543936 0.35901573281583976
Ni 6.535191904595927 8.959285318634715 6.737826027876936 0.8435275251546762 -0.4647634060673157 0.2943038944597512
Ni 3.9675214192613915 4.42480284171932 12.93536087742197 -0.20008350512158443 0.7268796600509287 -0.34319007863749285
Ni 6.406411333184956 2.1077822813922045 2.9805958046268963 -1.0013858030584626 -0.11023270560602307 -1.2461949332221958
Ni 6.762547778687561 7.7656577028512 9.030977375537258 0.29983459446999333 -1.1885780540396755 -0.4581716117824109
Ni 8.743469786772964 2.1920527547171758 3.606166772388763 0.00956218976713837 -0.1853819372453517 0.9326406751732648
Ni 3.4353298171360094 3.702882076181089 10.69351952403294 -1.0779499127674468 -0.08780034474443588 -0.23377961182244897
Ni 1.2082385796195805 1.4978881820662544 0.36782799961218837 -0.6424741999206548 0.3260086817621998 -0.6447015465892768
Ni 2.138126702159045 6.437599942973437 13.470194512881012 -0.35215654380216127 -1.0814499555009054 0.15178558934714503
Ni 8.382129055103988 5.923201247919532 5.179070889670236 -0.554726048570393 0.8917490791652255 1.486231838808266
Ni 3.152934674193973 6.130092495838237 7.0877052701367305 -0.8872028545554398 2.5949349735981695 -0.10383040162410506
Ni 5.905992779401498 3.7462232971602027 11.427168023210253 -0.03191124688629987 0.9697180396415364 0.004921091450701202
Ni 3.9006542273056017 5.547778330153319 1.4195047675669132 -0.5415157205277061 -0.7596468271796207 -0.33187825316909936
P 1.925771417605773 5.96341618647785 2.444893860459884 -0.7005338230675484 -0.10412787825986583 -0.4251969566286033
Ni 5.948712454617426 5.100710667176984 2.6836685506694957 0.04550389796907002 1.6180096175749166 3.0956310890063525
P 8.773526626664301 4.202651253794056 10.145448819178545 1.7809411962365522 -2.298380078320713 0.48462055000255894
Ni 2.4531669128719504 6.100165531180998 9.271720603223704 -1.491790049622334 0.06018849656443828 0.22592283478219155
P 2.802011791660175 8.711158683889776 5.323209207513339 0.2310269887779763 1.0443599926271432 -0.9061246311606072
P 8.36943838937209 1.7241772238777946 12.793557530751908 0.8237446861007943 0.4515340518612352 1.2846141564303426
P 8.364178442391106 0.9958554646590015 6.90560349368643 -1.211454701527533 0.8842969937625544 -1.4661286403004878
Ni 4.585579104730668 7.608814804072546 5.911062551932552 -1.82644457998499 1.3554691315696914 -1.7820987068797631
