# total energy = -340856.22301276727 ev
CRYSTAL
PRIMVEC
9.42305226111575 0.00000000000000 0.00000000000000
0.00000000000000 9.42305226111575 0.00000000000000
0.00000000000000 0.00000000000000 13.79158948085667
PRIMCOORD
 96 1
Ni 1.241816934048511 4.782971681285512 1.0217292999724232 0.18870997317732013 1.9138042376475815 0.8530717171996857
Ni 8.267022732196422 6.964596726403784 13.1326826388336 0.876041952842614 -0.481585619830977 0.4810611147860747
Ni 8.442772078760438 4.6709881289523 1.759558998682181 -1.2531135147188999 -0.2685499254240988 -0.08105351293890557
Ni 3.627931634937823 6.231992110138385 1.1698370652158185 -0.10241243823065589 0.3857107256085228 -0.7979740048945935
Ni 1.4334535466200826 6.840118206854663 6.893919123384996 -0.6344991521349782 2.0072311845501756 -0.36222266978891166
Ni 7.815781031541712 7.024169262406019 9.985013820713046 0.5058162102435676 0.34951010731824966 -0.27481518960752027
Ni 3.2621475946760703 8.493713098948367 6.874086425421708 1.608668542679649 -0.3098881220512534 -1.4179366539762934
Ni 8.107462189310333 4.931233984584972 8.784276682726183 -0.8835020086650849 -1.125676015198816 -0.6046730699124813
Ni 6.679474012965684 9.211127755068938 2.193552744591796 2.2627507591528775 -0.10842393453205844 -2.243186720978021
Ni 8.575448653722711 8.603265503814232 11.452811565682913 0.5034965609714555 1.656540426660263 0.9542603103255693
Ni 6.426700637726839 5.906208926461493 1.1094230506522096 -0.5132441272765226 -0.4819517449211442 -0.39957925606049893
Ni 6.032204557414656 7.448592956502305 12.449281431930629 0.6260587346771089 0.019511587670366395 -0.8863708455724476
Ni 8.301708987341033 9.101292658637101 0.3300433455760709 0.7038348624163234 0.23377189851296512 -0.5996923288684382
Ni 4.292266238021285 9.10284746224994 13.035975738725446 0.007779129724786603 0.715889222477696 0.361541584561487
Ni 2.661060517952464 6.1357639010819405 3.259325390542462 0.12752928790294166 -0.5378182170714609 0.9717978049887005
Ni 2.0814203080338385 0.07750743125264041 10.593030610023813 1.1122998510022264 -1.3315231622770554 0.8477248510654756
Ni 7.449751991922784 6.203704107436911 3.738900324549201 -0.3920091570227249 -0.08488162843574415 -0.5582656862925354
Ni 6.0793952028273734 4.479021709553762 7.84141456043872 -2.7897420608121632 0.27183913769833185 0.968155323140107
Ni 2.750513552477808 6.970787671698543 8.939776832419714 1.2911321600545183 1.3006534692813922 0.5486659584192423
Ni 2.524699529580373 8.349154055163124 1.959840319341138 -0.2981057847043447 -0.27150823672147434 0.18737454219534827
Ni 0.017664453652292283 3.5848400172316817 13.12871082233171 -1.4362040848269135 -1.0236502708836177 -0.19462119645543258
Ni 7.608916766616516 2.525820872792057 11.563930081824257 0.32560424723492953 -0.23082592851076375 0.26313209684263716
Ni 1.3117265583130775 1.9914113134287514 4.546314552222659 -0.7847909305454162 2.2147480060213534 -0.6822329678758315
Ni 4.674455812161541 0.006308733447247244 2.986472433372714 -3.372870828894965 1.7294170602153311 0.7345058091376189
P 6.965963068972641 3.9640895990858414 3.440781337518207 -0.8343903387400986 -0.1358591479248757 0.17231996185507098
P 1.5886229471814273 6.933133155111238 0.17523579021916857 0.8517679107865975 0.1779074832451775 0.8756552589271566
P 1.4880601341134325 7.316462918567575 11.045049712484943 0.5150716674035646 0.28940491449623706 -0.1994813527612113
P 0.7050572654667687 3.9428877316380353 8.925061794105718 1.393746172773019 -2.3305929156078316 -4.123135443528738
P 1.9458320099420676 2.9288259692399587 0.29155300425871344 0.8271387993840077 -2.1575946967388133 2.314348942945143
P 8.247356822257057 7.091101202175693 1.5037655352135475 -2.070895555478356 1.0853158662142146 -0.2955529363755039
P 4.177088270992603 4.956205072912389 8.847994419390771 -0.6023369655801368 0.2397247736622904 0.7881593327970168
P 7.612177142677379 2.121986547750641 9.278305636501006 2.8595940486082947 -0.6618688023971827 -0.37402351907858167
Ni 2.6237923465053203 2.259110803350853 9.453417042431148 -0.23924372026081378 0.10004496643974382 -0.04524498788072853
Ni 3.784090455980065 3.49274852809061 11.050359602399096 1.4960539671050106 0.6370165192401932 0.30841565127078496
Ni 0.051721248910008476 4.680929449022271 6.414233939667528 0.7855622614938019 -0.6453654054255208 -0.0248769657473378
Ni 3.547769729880717 2.305001067560105 4.256277717062769 3.088739504092842 -3.488234942190283 -0.6573189782429711
Ni 3.45235190331339 6.849588374314683 12.431338998238466 -0.7733240675563973 -0.2545163301491681 -0.1436192514862688
Ni 2.6894427511759273 3.5665027576523793 2.5017119937408516 -2.146457449175071 -0.710226367764964 -1.1029646896442296
Ni 6.113082614438888 0.7631362476954594 10.05950210604112 1.2305366578596484 0.2959864243684967 -2.262080729669046
Ni 1.5122019938473348 0.64879599000727 6.173763301379729 1.3948239792182302 -2.3245881041746483 1.6823779565486574
Ni 2.8153441516071003 4.143561051268471 4.904951207391451 -1.4540133450941926 2.855158895655076 1.4236591582823674
Ni 6.557982600963655 1.6262963098731293 3.8551355580346147 -0.03341354246343923 0.12293986876004634 0.2244331376105425
Ni 3.9251252782428727 6.356074861495146 6.565086640016499 -2.5579164873922915 -1.3661628638381116 3.8652823356968535
Ni 2.1127048413346015 4.948591246735576 7.719580149336646 1.857436914601446 -0.29929054904106517 0.7293633457047309
Ni 9.39598919310941 6.713472385299766 5.165667273328856 -0.3182778887768454 -1.1065819746818426 -1.532790660404412
Ni 4.560408611396741 4.489509566651277 2.8226554978083236 3.080252292557437 1.2703208797361218 0.6933717581014704
Ni 5.690892183713772 0.039763395669445735 6.393877320001974 -0.10073916429329101 0.40126204307956054 -0.6317881809617184
Ni 5.8326054657349085 6.061661018588808 10.23352514944227 -1.8907704957565694 -0.6220169605075675 -0.5201714505239752
Ni 2.2464462211953635 5.242618744501754 10.559957581415675 1.7461073763868185 -0.39348522734761915 0.14376451881488142
Ni 8.642295786022594 8.52809781642261 3.7438926576042446 -0.648558972662154 0.5139668643751599 -0.4448895499615242
Ni 8.954057468027337 2.810378203098214 3.255711650024136 -0.4455428672748069 -0.4198236081318318 -0.744873268414872
Ni 5.2006013547463015 2.1723904539632257 1.8969781958162224 0.14881622230617597 0.7683775221843993 -0.2682449925891703
Ni 2.2826024724830223 2.01278279581614 12.134874699173622 -0.40664747576119 -0.48336996542490945 -0.11321929903817275
Ni 6.029405910911546 3.3304929922755986 9.885728773523237 -1.0520820438617493 1.472027522283426 0.5366779328194305
Ni 1.6955745896403611 1.3173050052149002 2.349880238268401 -0.5677420012140867 -0.09441167941336644 -0.3559736035554063
Ni 0.07664333736598981 4.250427886257614 10.69850848711882 -1.472875214995702 -0.8927001302245853 4.7921259445723665
P 9.089363074553136 0.8043649279818536 2.0458718436130163 -1.6719202515504432 -0.24335260022286476 0.37783646506676866
P 6.43373023466731 3.7727451011324393 0.3248013016377533 -0.7822475952982721 0.02820551589993852 0.05172133963369156
P 4.142166439543016 1.181565938287945 10.837499449359658 -2.08781058606614 4.6732769580522415 1.042121847325244
P 4.477909789394277 2.215463225564969 6.304576938922255 0.0013079201781461345 -0.04603714476472071 0.00212167432869312
P 6.5503216595258476 0.5172812773811376 12.008254319859663 0.5498183268561304 -1.2145155998410437 3.5004718505761065
P 7.942766082975773 5.393764501774116 11.805683197516341 -0.75631827702702 -0.5255540549921272 -1.2724312412109053
P 6.2880875398791805 8.645311162726282 4.2040485656392335 0.6505050406449313 -0.4318090626284821 2.1404246127174296
P 2.1907465596469264 9.300071944775535 8.351703933088181 -2.561684953295788 1.1127395096428063 0.39693204824563894
Ni 3.3396145068042546 1.0167473322747986 0.9119629918216405 0.9556533340183543 1.2869692869260803 -0.7311595183732053
Ni 0.56867554637984 6.112300501106368 9.364958139912801 -0.6246266302162726 1.9298484355946375 -0.8632764256468293
Ni 9.01211289262553 8.680591070159432 6.363274073375201 -0.3174317387264662 0.257361255797131 -0.17872663671236316
Ni 0.35976082529613607 1.8942690683090027 7.722890467574164 -1.2482361320219404 0.7017910925134171 0.6259196379960833
Ni 7.473450968203332 1.9138219016219795 0.602558957477094 0.5658689525610899 0.31376457428752413 0.02893776608027274
Ni 0.3579110801494675 8.561200998797784 9.23933095030062 1.0708593244692524 -0.5560889903561906 -0.06917835876787441
Ni 5.117612534029488 6.2376365184056 4.981108315263971 2.3652971518582357 1.4519078687154157 -3.957994515920609
Ni 7.831442144296492 9.147851959552485 8.395078242360293 -2.3308644241016636 0.5905746828378862 0.13850172775404535
Ni 5.314884131816076 4.172697128667857 5.48177015548169 -0.2814067267821089 -3.0321261264741715 -0.3371986369407483
Ni 5.0962316285899005 2.158171068194897 13.035948411874068 0.2849322234368641 -0.4164099544645926 -0.619478767466746
Ni 2.4650987244215394 2.8600659573436733 7.250845494579665 1.0091934720283395 -1.5883848527299484 -1.8808267542802963
Ni 0.44536642760861855 1.5908467875003973 10.003191830710184 -2.424105480245696 0.7904339877638065 1.6563000285146832
Ni 2.172456415328619 4.432198563176807 12.735512296307336 0.4038485728598141 1.9955180098783052 -2.4186094901281314
Ni 5.975213937714953 4.408339395008875 11.932731383400137 0.08199736490941362 0.1294766414372996 1.4341106926329947
Ni 6.136103130961106 7.088651208603947 6.953208967821261 0.15415820334437966 1.8218528468492494 1.5653146011740462
Ni 7.746389675148092 3.2484464767786876 5.392180486699459 -0.03878637673957836 -0.8924612747409016 0.18731566393295482
Ni 0.433029767669655 6.539739571906343 2.49089904134247 1.9964670040551358 -0.20737541079730737 1.9484812202044766
Ni 4.470427885948251 8.693868150707857 10.769893761357755 0.2841470085314074 -4.938269505142386 -0.19490813156823206
Ni 5.98848159521118 2.1594149110851686 7.908193846762771 -0.45569486810714427 -1.3053146222024874 -1.7502774486041084
Ni 5.254143137341161 7.154414689900943 2.873642690952028 -0.5606457564889377 -0.24448465694477897 -0.9619047142447048
Ni 1.819440610796545 9.309919034323515 13.30864965790341 -1.235228406908363 -1.0826066948131676 -0.18808699488134062
Ni 4.13130166035754 0.49273139948701783 8.696549009058481 1.3517963107037945 0.09522851888770698 -1.0405035949955306
Ni 7.19465112279078 5.235664531978873 6.244142193643808 2.4081425291585363 1.9464641897744477 -1.9331242781324318
Ni 4.203482240202072 4.430059530327628 13.650197607909272 1.4094687257145984 -0.6519651701302256 0.8808774265580442
P 5.19645521177873 7.699283837205166 0.5689591802510306 -0.7534183297714057 -0.09392882623967694 1.4384494292176646
P 2.5013774753877858 0.11343470237186307 4.094433026323635 1.0194583442894571 0.6340872614085402 -0.6868378136376946
P 8.922584473682592 1.4465704352811255 5.762291592531003 -0.6659473433419305 -0.37558726402127574 -0.4996769301150491
P 8.629499281136317 6.8222144076765145 7.7057197818571 -0.3120517053614755 0.5636673169240808 -0.8454229424051763
P 5.8697417144512665 8.038306409221688 9.086630389415419 0.42521392590946777 0.12479080592585602 -0.6267683591496238
P 0.718614210665506 4.547461337675281 3.9598548794275996 0.7201909351768436 0.7289074891142349 0.2939781356892163
P 9.41908509404922 1.3818529127782215 12.334811136122093 0.4767825420153789 -0.682231939434567 -0.039086167368184294
P 2.757910648454043 7.4860495889934295 4.945401543566206 -0.41632999315627656 -1.0334718849597297 0.6072889102687734
