# total energy = -381174.8083412794 ev
CRYSTAL
PRIMVEC
9.20584258090253 0.00000000000000 0.00000000000000
0.00000000000000 9.20584258090253 0.00000000000000
0.00000000000000 0.00000000000000 13.47368115797951
PRIMCOORD
 96 1
Ni 2.904406459460034 2.4267613256102103 13.58483887462552 -0.27808074773266944 1.3025378307882989 -0.7640801803606261
Ni 6.294200166243298 2.5499815263730494 11.153365078281615 -0.31375120455108546 0.16811877928952984 -0.07678959545622904
Ni 3.607429027383508 3.798882932147405 11.524079749526974 -0.7046745847087993 -0.4148343824473566 -1.6023767961336661
Ni 2.133131775850666 0.021352951488188592 8.60740466387668 0.10082478202856184 -0.7573246068043473 -1.2791119956651908
Ni 4.579446310756377 1.1131336417959956 12.490627841919402 0.5963930892918762 0.5697870566685735 -0.2140816191728894
Ni 6.934926798525224 7.082137424628963 2.3344902464719204 0.2568501204886673 0.38700450471928194 -0.2391766144683042
Ni 0.38208941013684694 8.037234369637835 10.003763412331573 0.06385566100338035 -0.166985437016035 -0.42898856246055145
Ni 1.452672727693327 8.109472615090654 5.076357431618264 -0.2615148729541883 0.20356477880196555 0.10161102537528309
Ni 6.863572313944516 8.388704227308692 9.337288038806939 -0.020682982270648253 0.9226766219820174 0.9068692226361156
Ni 5.456459300377098 0.8313750258342607 7.9379650090934994 0.3753000717981601 1.0526890813181289 0.9519609727684314
Ni 7.265241630319875 3.6379187774714064 8.966478547384675 0.6457528706719265 0.5681011843257183 0.714255543529015
Ni 5.066665520720757 3.222541961735878 9.31944895736964 -1.7566630404154782 -1.025332286571731 0.26909911305934947
Ni 2.978559520135765 9.083533595480285 10.808964387003419 0.6332058872448515 -0.07437430114651707 -0.09293226665436254
Ni 2.5278782987278063 4.49062834310902 7.136631408821389 -1.198480400755052 1.497586601699453 0.28674279428304167
Ni 4.551801165975592 4.796289928908687 5.783389143914709 -1.005453545369933 -1.9226763433262306 -0.9893568969183865
Ni 2.8365594008405255 0.2800076647338611 3.6831793017187353 -0.02468978943719619 0.5277135245372913 -1.020245873187759
Ni 3.849542682972799 3.3548759464923825 1.976104039392538 0.430419124259491 -1.5201426326230982 -0.3764755801635
Ni 8.197977584095804 2.2484625696614127 7.282147239336004 1.1523054448608863 -0.2680614158234545 -0.45076452068506245
Ni 1.6449367465899938 1.0801859317825329 12.384253412196976 -0.2980937005194866 -1.373807524867563 0.7863515901643167
Ni 5.085537497677338 6.655446628561904 6.630613868639771 0.03905145747550693 1.6975207257273668 1.5206877064932907
Ni 3.307585533991919 6.264548147815423 10.891517778885433 0.4134914952662169 1.1535755698225618 1.5189897499655776
Ni 8.656207596286395 2.4364919010458714 11.509231646291234 0.587663422728362 0.9631943795904057 1.8045287537485049
Ni 8.449646904114816 5.254243765826742 1.77297436469009 -0.7226483955784007 -0.41780349237800946 1.6257175277421356
Ni 5.28268981889788 1.5578586831596095 3.377676976992898 -0.10112868642222583 0.06697826579276206 0.10826246925352968
P 5.600954202967573 2.0887596153966594 1.0683619477810544 0.8118060256816794 0.8280715956109223 -0.4362071916961778
Ni 0.29282956205343386 5.836688209761299 5.48614630100616 1.6297217638055226 -0.12322346143873618 0.4669308460322798
P 6.030830220511206 5.417914438173586 8.280142489427785 0.8750878164594608 -0.40602706856837173 -1.2111443693759658
Ni 7.851773468287954 3.765879987079435 5.456719825717523 0.01702327403087391 1.2033593261139082 -0.9388010383477058
P 4.878065427106392 6.668500513110407 12.748716395856377 -1.0074482072024584 -1.4382267716838972 0.8767117252161288
P 0.6897808841896477 0.41963451785378086 6.683497750993316 -1.8775403702195406 -0.16960667668896595 0.7322774340277324
P 2.547698477453424 7.583432367650227 2.7268570590840486 -0.2613125271353951 -0.4840366524746309 -0.9669355918003928
Ni 3.0570025033782118 2.725647411390344 4.29484401007177 0.5107205895237203 1.9670800662525867 -0.7856517358838147
Ni 0.14872038426026588 7.74795918334193 7.555433718520597 0.4172337359174685 -1.1634563192713834 0.47616136349161226
Ni 5.017819320851679 7.982873870160467 11.20455140329331 0.7155938027244643 0.5123339567574273 0.13320654079337704
Ni 6.056532932541825 6.356818306369471 4.345639086780706 -1.1925928316260235 -0.13463658837168424 0.8551291139493467
Ni 1.5981710671073477 9.25978865441232 1.2735647781960007 -0.25831693484218093 -0.34964406179295265 0.6843718685957052
Ni 1.1700993946776128 5.6506749578663475 10.897661758115103 -1.548286699157482 0.8866811777240149 -0.1285001364566432
Ni 2.4391892128743 6.918485163966954 6.82634572837524 0.3507961731195249 -0.6206733019954795 1.2005501387998874
Ni 0.09013256194462466 7.7762671487768 2.993623040084083 0.22544820913861816 -0.2790739648838742 0.5701518962071601
Ni 5.823560678473453 3.603249574925807 4.063607977883403 0.45805154126477887 1.412539137109806 0.26764669688353904
Ni 3.930001745704753 0.7861458014511525 1.5381821155757105 0.014374780664433309 1.0273405752510112 0.24461681164726903
Ni 3.7459309265599674 2.611623847202931 7.317516085905359 0.41292019614377923 -1.214323795545212 -0.4826564842976527
Ni 1.7703939670603686 6.5244566967984055 0.8568623211523029 1.5656012791765295 1.9015611586141703 1.3392385286434418
Ni 9.271203899010448 5.729430939751 13.24229776351573 -0.5412017888317131 -1.5338157592348165 -2.8867194440701773
Ni 1.1948446990967767 5.659015451096915 3.1214074975176884 0.7383143842504317 0.4537976510844313 0.6298413416479928
Ni 0.3233091857146727 2.1256198084377056 0.6669319833085595 0.6770262268639113 0.14920805842795593 0.8409067997023775
Ni 4.053488915897709 5.021888303200365 3.274360728121679 -0.24520250894740994 1.8139544179377793 1.1031454381964678
Ni 0.45603533935817686 3.3119767208252306 3.330572522509275 0.4007452513441421 0.4106977345711637 -0.27772644971704424
Ni 4.097796635454792 5.339812071100599 8.998316953386789 -2.4563735962507827 0.12351656719912277 -1.855293128785566
Ni 7.418666200055659 0.20062108264358544 3.642906502893394 -1.105460973703522 -0.9469946299020916 -0.9608721592151324
Ni 8.32799169656301 8.031453100599428 5.38373222469189 0.547377835735438 0.6193700098030236 -1.1785111567219768
Ni 8.103498023361475 1.2223977854533832 9.444363033137362 0.2105872328663857 0.16367925546093745 0.030815185608643703
Ni 5.618077069864762 5.530050804665341 10.627069829006214 0.925107085800381 0.08495670464805369 1.441483330947982
Ni 1.490849356200125 4.22007784029101 1.232572082493584 -0.2728464959169236 -0.8307920798658789 -0.7945341259751091
Ni 6.049389198825578 3.1064747005317046 7.082454105608137 -0.5880550017398259 0.8710830661754417 -0.7602523219741035
Ni 4.010184633164172 8.764532744017162 6.82634572837524 -1.301031164335785 0.031818944282809715 -1.1647069038490327
P 1.3424419705820658 3.9423467803870818 12.167676763474784 -0.00020543114258674298 -0.9749209239987147 1.0741292534697757
Ni 2.3185190304612036 1.1753927540678728 5.708043926645866 -1.3613253332401523 -0.2346941532169184 1.82866009957907
P 4.341622577733801 1.3036669623181079 5.444592969500497 2.8037337471055648 -0.2708209808464626 0.33702791569083895
Ni 9.031170763807589 4.717543152866451 7.620322939971252 0.4781781368113248 0.2190353636337389 0.008664103432901207
P 2.357671478264293 4.908619618091215 4.81465834628501 0.42011028613431517 -0.28810136519346513 0.8202356445062713
P 2.6528291978651994 3.5524333247793094 9.177543658251304 0.47757341334779047 -0.787363833478915 0.5813012279557602
P 8.740348995985487 0.3701991440699599 2.013358242489068 0.1312527595011159 0.8938941505326863 -0.24029041635777323
Ni 5.794994949450884 8.701095283915802 0.7742527736315402 0.10234507532783019 -0.410122578793984 -0.9064784149556002
Ni 7.501647663610103 0.928759029851421 0.4085101778760585 -0.4409907291277502 1.1508301458669408 -1.4729497769873794
Ni 7.563317601967238 6.366953938871517 9.372831796382233 1.8010850181742788 -1.693478694447509 0.0027965889085306674
Ni 1.414836715355989 1.6319749204656697 10.25445507188581 0.18657878576693027 0.5091576159119747 -1.3252339868342338
Ni 7.693037127477075 4.572192106931116 11.362826531399055 0.49618871445613255 1.2066930184728313 0.17841450478858306
Ni 7.481302751866668 6.435611111623795 6.6789574295128356 -1.1696938155406629 -0.9267788170758491 0.937715775703327
Ni 6.782487253928148 0.2887274386720427 11.49470666812436 0.5005313076955444 0.7520700432736274 0.49756965396405917
Ni 1.2963114942262506 7.768248860030858 12.246242184421387 -0.32375896649607466 0.2515279369448055 0.1761881865612256
Ni 4.699343202406373 7.810522088413597 8.937604422641108 -1.2554935849153024 -0.26542474953155576 -0.7335053928975626
Ni 0.07232938329275661 1.30118138486529 4.459007194987969 0.4070336554560151 -0.4324832058773713 0.8336745436199965
Ni 0.26204798676088964 3.768908709234905 9.755982640149858 1.139960293031972 0.03335980640736835 -0.265191293364511
Ni 5.93983046821082 4.388259375422598 1.6771765273215242 0.5087513816124916 0.31864324253606413 0.43458302582919345
Ni 4.626819575838601 6.837878807756314 1.473225691475405 -1.1591363517397908 -1.3897972154276002 0.5474485410723733
Ni 8.703498008786859 7.857932176865492 0.5745393870503542 -0.6105827505286968 0.20233733415276767 -0.1757513561341231
Ni 1.3714311683558558 2.2099361191427365 7.936348463164927 -0.4164099544645926 0.31656090608573867 -0.255017952375935
Ni 3.569758720209691 7.0536637540305716 4.5537804220954285 0.36439499484988214 -0.17995176736871588 0.632437384509943
Ni 6.109733495874544 8.633653282362678 5.483505144816481 -1.8031835525745203 -0.8097691977573085 -0.25854473458227084
Ni 7.713897566395908 3.538689002049469 0.11440560664775327 0.5947637812185693 0.2811712137325351 0.4253962171236028
Ni 7.482692834071762 9.16228037152252 7.3114521975047255 1.0058746920677515 0.3854366460115297 -0.5711772521478808
Ni 6.785129330702069 6.114308799556213 13.526093632404534 0.556113672946539 -0.0923923349904925 -0.002846468309859614
Ni 7.539980791438004 2.450760956793529 2.491189334355732 -0.365096648902597 -0.1468732396471922 -0.12001703868629653
Ni 7.801058482408053 7.458776055470204 11.708979094489365 0.5103758045897919 -0.8016488826430194 -0.030330018442109058
Ni 6.72424188895045 1.674036414472798 5.300950527917914 -0.238016532721932 0.45987059675138864 0.5268429490068798
Ni 3.3863323100341547 8.499017837001713 13.430767134167763 -0.038146686273050436 -1.744628477848447 -1.9001447378826177
Ni 4.981041980392393 8.557631435676125 3.085338086340335 0.8492338315108343 -1.8376203940961513 0.7129501944540302
P 2.108202354583145 2.0954890862041027 2.289354001097233 -0.776924640423462 -0.10077541684786516 0.05168405863785292
Ni 5.664566574074874 4.039348741943901 12.816313055562121 -1.1970714362226675 0.09026988933085099 -0.18598254694382807
P 1.2584478643616592 6.14791933022376 8.730662608593432 -0.26293412189921817 0.1296807870283057 -0.629452076629374
Ni 0.9642015231601193 3.2640787227251895 5.8015651591844986 0.12176770282881609 0.1062194706815719 -0.6915367617752606
P 9.029200713530171 9.61918474240494 11.41172244281719 -0.19859612194278056 -2.166145928742934 -0.08754220598704279
P 7.996121077399745 5.708570500832167 4.064753184680183 0.48863944135396487 -0.496495447063274 -1.3701760987625626
P 5.020396956728675 0.8862805111827645 10.104505707662764 -0.24264811795667243 -0.18739768212379984 0.3975185168767283
Ni 3.5109610046869233 4.920614830761667 0.09735362473718129 0.4586079279888811 1.0247021091868997 0.09156084022813264
