# total energy = -381161.8974840063 ev
CRYSTAL
PRIMVEC
9.34752102289957 0.00000000000000 0.00000000000000
0.00000000000000 9.34752102289957 0.00000000000000
0.00000000000000 0.00000000000000 13.68104187892247
PRIMCOORD
 96 1
Ni 4.069415289455657 0.6450462614018804 5.344745272109519 0.45142555130782896 1.3404392338197624 -0.4397771684356232
Ni 0.2949189659971717 1.9131851960361679 1.1054144822240703 -0.15990667579238269 1.2463366010063825 0.4862228614926723
Ni 7.793252722049602 0.6511090636188267 11.892451083388753 -1.1040766917614857 0.5288805482621989 0.32483651583096956
Ni 1.3200662841186854 7.763443477106891 0.8683370423419807 1.2876493437122405 0.11976172814238084 1.359813267471
Ni 5.775908097855196 2.6364776874682896 1.9781962708721843 -0.34720459911352464 -0.2197485876506796 -0.43620410637238427
Ni 6.6695778572618485 6.997666502054633 5.197113327345744 -1.360675101250663 0.23279127976725073 0.296086954502103
Ni 6.8850475672569615 4.38915659786279 2.859516085337379 0.8555479466543202 0.5603863321799639 -0.03299650953067866
Ni 8.016677172542126 4.846614935351437 12.373927876468588 -0.6188866424087018 1.529555698406882 -2.255735761287625
Ni 5.005522794876704 5.8725053814042605 3.020117715694762 -0.4153524597343557 -0.16105518757452908 -0.5826549137701772
Ni 7.26784725333218 3.590214617775493 6.160094021316743 0.5069032726601593 0.04921837070617975 0.27368776087129637
Ni 2.0798795406781725 8.100945075696261 11.847536244269993 -1.710245372382887 -0.06890967848752003 1.0360905535294995
Ni 1.3653924141679805 4.303561346705563 8.063961608272042 0.24233367204004713 -0.7208653355360488 1.8864919229858734
Ni 6.003305244835852 5.939022341897307 7.356611314158764 0.1320737127405145 0.07222948688937238 -0.6476724562921427
Ni 8.972180784346405 8.15504852810404 4.38957630156236 -0.7207570920929587 0.7320511769495393 0.7998375404658935
Ni 7.158967326993927 0.9326657481341531 0.5426778182957037 0.2735502068521676 -0.4665878608705642 0.23707653740616588
Ni 7.493085122927522 0.6746909899723762 3.0973198276127105 -0.7822391106578399 0.2285798127890644 0.042162235190346745
Ni 6.144013480684901 5.1176650060958 0.4935612684206736 -0.8141210469681012 0.36585872387960217 2.272277724806706
Ni 7.541813750674888 3.3759974756142856 0.31904585283368136 0.9602620364349591 -1.3443066871949685 1.73384552830033
Ni 3.300534937382081 5.995013993577093 11.190832689243763 -0.4652282615188762 -1.1447728839292672 -0.09127493355659765
Ni 7.814864190945038 0.9482966729987502 8.486501345758183 0.023331218526772723 -2.58956085377045 0.47682779343101755
Ni 5.743715235019606 9.185911855407888 9.688312139826627 0.3122108566471591 0.5229274160025575 0.4724247792673154
Ni 7.531381917073111 6.750349787506426 9.12624008465192 0.09038224653899918 -0.2590065047100378 0.03069665775290843
Ni 0.5449922645320835 3.8337175436950925 13.198566192193235 -1.0685674431112824 -0.596742759321811 -1.5436720832036062
Ni 8.097879088759537 3.1420383687873503 8.464009340370556 -1.0456501721934766 1.2922364488622906 -1.2060566704404132
P -0.2010053557698541 2.2645024308830863 11.899907601008946 -0.1364625858368295 0.49193533849641724 0.05032137396237141
Ni 3.3977117672423556 8.218826664900563 13.778040527490186 1.039208530333191 1.5270738125252925 -0.7567131984725936
P 7.769192202613247 7.849945437815528 0.6002239627424918 0.4871152913999547 1.263978482457862 0.7610012843249863
Ni 6.573765765489261 2.73786090184541 11.944602773380716 0.8698785043443793 1.044515544368401 0.6967373321395937
P 8.267246824450027 5.83582570841737 6.979397706721916 -0.7217788484892538 0.32630024486068965 -0.17828312141704136
P 7.492430796447124 1.377170290815147 6.467137656995693 1.2611086171092345 2.8423365470794275 0.6466224177610734
P 0.4379930594489176 8.727116822394999 8.548161334262447 -0.17412641893619044 0.03283015915614346 -0.3566582883272567
Ni 8.413946821355292 7.602946538986372 12.256941779790317 0.7370450306197048 -0.7705416197152536 2.1137082797685083
Ni 3.6556846558999028 8.50429061325598 7.139109453065957 -0.06989389677766028 -0.4620508922321591 2.3468857392305837
Ni 0.10078123401515368 3.80963832921644 10.033799325733197 0.707741139449265 0.714981365951446 2.911640632791889
Ni 1.051371788703757 1.0295640218642013 3.560846575830994 -0.13865008040645152 -1.3212202376891504 -0.15609527246609245
Ni 5.342996350902627 1.4586900227516089 7.654406512413343 0.36975343094831803 -2.0379998331916 -0.16639768283336506
Ni 4.7254430187028476 2.3251584956159954 13.174980526831225 0.9440108646834194 0.21519542106235842 1.487250766991084
Ni 5.85342709074008 8.535548723976715 7.429859424630878 0.9804886478944791 -1.5579216511440848 0.4791646690943102
Ni 3.2545357858100905 4.459730382534305 3.5637340251137797 0.34725319296327295 -0.6319707292861697 0.4416533024124136
Ni 2.943553104719144 4.325901922250585 6.4738416991634296 0.8281980938864576 1.9198941525954034 -0.2508478801586454
Ni 1.8625216314110538 2.097826781283379 11.213652792623707 -0.5669393028071333 0.871611427875086 -0.7214075811927639
Ni 4.835697030649937 4.619759944597398 9.560777365532221 -0.17812576990357065 -0.860804052846937 0.24597255434421508
Ni 3.134569699389663 2.168409913476043 2.7533506791406634 0.4115683101015751 0.3010730948627847 -0.2711194859234879
Ni 2.8736336465280266 0.26545370983272787 9.484902601617366 0.48331674358947085 1.7651867616157726 -0.39481423057168774
Ni 2.6009103694980755 6.770446957975798 3.4496746373071177 0.9611107575884996 1.6832999541422944 0.32752768950988753
Ni 2.1433865993613876 7.5436271697777055 9.760315160481754 -0.40745994436015637 -1.4815182353826808 -2.148086757248378
Ni 3.490112013795724 6.295218982783767 1.226451794568121 0.2186898073688621 -0.8225614644259704 0.11809822439702886
Ni 5.59522051405382 9.557279523118437 12.386008612800966 -0.18542358911656454 0.05334704816257264 0.1998852730678493
Ni 0.0934864285108291 6.312343641527901 10.613355919216255 0.5006233531887184 -0.3702709940146849 0.2824372249291523
Ni 8.261638311760898 8.10583382925695 6.8003122880454 0.11767990591268766 -1.0874082299668693 1.2166706985108338
Ni 5.73880778641662 7.587859639852621 0.3778913027201173 -0.9567362826698877 -0.17189058762713622 -0.31581451483801737
Ni 0.7385943835522899 1.7534921447344238 8.996064635633052 0.6456633962819138 -1.0736847097331896 -0.4367982883129574
Ni 8.920806808114001 8.796849330163145 10.50792990194239 1.4967360807736996 -0.2655499622555104 -2.4264436414605695
Ni 5.524983240143652 5.4607938124165925 12.167644910258264 0.09570648696539001 0.01566676000297947 -2.5894022167053987
Ni 1.125217205777263 6.685580813468158 5.895694711869572 -0.7826479160604843 -1.5962567992788574 -0.5477701860778501
Ni 4.085941706846285 6.697096959523165 5.786807307514399 0.213391020863768 -0.6505171248297893 -0.9548640053478392
P 4.015022063892273 3.9488229191182764 1.5301153665997569 0.11768633367059086 -0.05574974406679431 0.5649230437080529
Ni 3.131232634339632 9.150550182902942 2.804805044054945 0.4632068602134733 -1.465711350257411 2.170886785862029
P 7.040552929084157 4.4763409276152695 10.05842537019904 0.43798279553936176 0.07622909496706871 0.5668079194355916
Ni 1.0553444851918885 6.33426357862124 13.074342309889646 -0.2663038097023994 -2.326753487257083 -2.62699894401225
P 2.497666998412395 3.943046151048476 10.021035285604858 0.24533877741495808 0.11314370860523096 0.708045043842929
P 3.73119393173785 2.9329156256521 5.241028916453723 1.3461923342534556 -1.6514671259024136 -1.8328854505143273
P 2.3366279040652604 0.8105562751143641 7.219430832791176 0.3113137987541864 0.12141649013698445 0.4392606338105209
Ni 5.035528337763534 6.89675066373494 9.340718022653174 -0.5575699457770914 0.6619747318474277 -0.4913930928397021
Ni 9.276928668831271 9.12910696938818 1.8840985144782403 -1.890391772260912 0.7050718201472179 -0.07210787370984355
Ni 6.839235366107942 7.211593871060235 2.6936190842493453 1.2422431476632994 0.8948881390148394 -0.2443738423985275
Ni 6.388983967424822 7.397908662593036 11.399864761423874 -0.2926943838807863 0.5542318825427938 -0.7990975769760753
Ni 8.551439509929242 2.498657835654141 4.190694702597455 -0.6692591813239829 0.30773199494019904 -0.06186562715654506
Ni 0.5974169021415837 0.2965846942658424 12.844199795947661 0.4532746887014258 0.6752807049277145 0.5903970196094412
Ni 1.0443424528000511 5.223226562426319 3.5729544199747045 -1.1480194158910229 -0.44766402738286776 0.1258920094098348
Ni 4.934098385780671 0.5935030950366879 1.4390536850748603 -0.30824004492486917 -0.9981094463000358 -0.5637493351149259
Ni 6.161250309682819 2.2485368647613715 4.584572135985814 -1.1255898832429132 -0.1416724121725431 -0.27127915142980374
Ni 0.3405077613907409 0.43435406946578903 6.117409500744027 -0.05045121467201634 0.836212993771134 0.08029298062379721
Ni 6.289273959333292 2.160352350245997 9.867862130304225 0.9180200970466126 0.4835594557278962 -2.2170350022833176
Ni 4.162095961643481 8.194551152477791 11.105831940431582 0.38688906218734015 0.08667343022884429 0.25617649146041044
Ni 2.275448378148033 8.466881833619503 5.39630900302124 -0.7044902366121352 1.105037255902542 -1.745412150092007
Ni 4.308356625054766 2.399218905675918 10.7659130728732 -1.4623534895287718 0.06366488514881294 0.5397714841430896
Ni 6.594087276466198 9.366403141265144 5.428008316740185 -1.1571946546323877 -1.8390725531616456 -2.8979266256399057
Ni 8.524873854825078 5.826440797184231 0.9937377775581724 0.48334708260677406 -0.31942614344867565 0.4502860383867471
Ni 5.34451999684984 3.5811662173037013 7.394657594737572 -0.7123814664347538 1.6333112809289936 -0.3553349415301429
Ni 3.772369762397191 4.484351753239573 13.187799717334341 -0.9040425518205979 0.6115538561927145 -0.3315306400216935
Ni 3.378745646831957 2.680130611231995 8.470507737073023 -0.7449375459939042 -0.5914830535847684 -0.09937159452180305
Ni 5.656484167661384 4.626929493318331 4.864089191386528 -1.0665424422614536 -0.008914528880810454 0.9655281699299049
Ni 8.290120208700516 5.573524917468046 4.5155509745770726 -0.9056736596661177 0.6297390117421735 -1.1024741231610562
Ni 1.399454781233279 3.014201669559848 4.459445283139274 1.9250816103336135 1.100540396473453 -0.4543139285992176
Ni 1.631721986732327 4.748793126531914 1.1201994564247242 0.9518141627779221 0.2709179114356431 2.1903338388430473
Ni 2.435038606717143 2.622241412759055 13.727557370023238 0.23062178291975766 -1.3340893803423348 0.7927898895904927
Ni 3.3238570026477006 0.7748150932507872 12.305413350706097 -0.748710382772775 -0.6359703373638661 0.2557859408902111
P 3.487616225649062 6.017719122446909 7.884808887443256 0.19670070469228057 0.6844006649511115 0.006524945602711343
Ni 1.3081294996119934 2.603630498152302 6.664145077970314 0.46647576077273206 -1.9735443338206915 0.6255617404360324
P 2.2835433314626727 0.600318372706092 1.1565800087348614 -1.125697612465371 0.9765913697226021 -1.9520643095700447
Ni 0.050749561819680974 4.2901476538574 5.904902020200889 1.4202619596753605 0.4540218512800955 0.9356637782703047
P 4.835977456284393 7.920014456345021 3.5717093301577183 0.29436174428088013 0.36686505365692945 0.5615235311082007
P 0.3033046272195315 7.22518516681022 2.7310502979365796 0.91714695041304 -2.283029564006571 -0.23966820939274205
P 8.977434091231888 3.959703433735183 2.4946010114756727 0.32113309883745345 -0.8341537972492602 -0.6021382193057695
Ni 0.7292309716177922 6.310436747213598 8.229502468804315 -1.209349739369388 2.3369972764722786 -0.011826303210966728
