# total energy = -340892.88756989007 ev
CRYSTAL
PRIMVEC
9.01184279746609 0.00000000000000 0.00000000000000
0.00000000000000 9.01184279746609 0.00000000000000
0.00000000000000 0.00000000000000 13.18974286512457
PRIMCOORD
 96 1
Ni 6.28257922700717 1.8874944434670788 11.381798946729543 0.3971770743769095 0.13760801229518235 0.7910844768636118
Ni 4.564489405964459 0.3284735622517303 5.823825057002481 -0.13450494788982642 -0.6017885492758346 -0.2474589090817545
Ni 2.3646084409675208 1.410371434123759 4.801118771523034 1.2008522434213382 0.02561461524431072 0.28161858568259884
Ni 3.2537258711734234 4.180017153251893 4.848588653883942 0.7731116944352749 1.2477679341362704 0.17418581141921616
Ni 5.010737841607072 4.739850856531316 2.2827088128904567 0.40624766921961 -0.045237531681560805 1.1192050627624917
Ni 7.493626720350943 6.175897031015061 2.707907385938175 -1.181826851358771 -0.7023811606889323 -0.17712432522224977
Ni 5.106416577444901 4.433114760486087 11.417793148369354 -0.7861068211433623 0.16422587199302685 -0.1978337898554593
Ni 5.568624986824804 7.909631411294323 12.297113804182366 -0.3838381911761583 0.27324116025218104 -0.05202113026229751
Ni 1.9928158511845802 6.329972508703613 0.4041676353228674 -1.1845162252654762 0.706877248787073 -0.989627891191586
Ni 2.591058028810883 1.560175298288046 0.3926586107831207 1.1942385947595626 0.297536542464436 0.6167384857174476
Ni 0.506946802164429 8.805435628915848 4.448834118018528 -0.3641509971598761 0.5017461539392519 0.212989157439659
Ni 8.44714277976445 2.3026790567085436 1.3905282572902544 1.4883997929938626 0.8632509717255327 -1.0532531813517152
Ni 6.702125572201682 0.8721499324348312 4.6875028636204386 1.243010621956943 -0.278853621342952 0.7616962535094818
Ni 0.7352528296406996 7.1865301505905865 2.471150953395018 0.42270015834867847 0.6729893377903764 0.022804142378709116
Ni 7.691625920227834 3.8331603327129264 3.6872450787505824 0.40322379479162174 0.25822771756248436 0.4336875105981176
Ni 7.4553804591758706 4.024770135989175 12.436041275176958 1.1997731514245464 -1.135462662271935 0.5239723123273041
Ni 7.790702120830744 9.087272003088616 6.789169160193623 0.17694331955969528 -1.0164583811208685 -0.2713298021620811
Ni 6.7789064735239295 0.4949691617950159 0.38027183274703735 -0.2589165160993928 0.36797525600197273 0.7606634413695932
Ni 2.1742783193799773 6.3085333344963805 9.33749393126038 -1.7406769493998664 0.5123833219381241 -0.03895478399664258
Ni 0.06006483396747815 5.009665432304566 1.1764789652472931 -0.08387658420999748 -0.9610865892187835 0.0038240017317805104
Ni 6.2975659217136135 2.2124614976549024 7.063028251050609 0.6875942321877448 0.06312521059525902 -0.6338579190065535
Ni 3.314519763229748 4.320448700822854 0.5065142337062755 1.3209574709460667 -0.33150467187976457 -1.4308543904792261
Ni 5.857905143214963 5.659239066965086 4.786517783691776 -0.05564921393318803 -0.15762225063358018 -0.35478986765995024
Ni 5.244414927438749 2.5766210565200094 9.333127693385892 -0.046686605423261536 1.0005288543748059 -0.30559592243380274
P 0.01891856175420127 5.962631769302503 12.049951396667755 2.3658836204893254 -1.5010221097435632 1.0043456570177347
P 4.022526187112503 6.180087537953423 12.429829411881014 -0.9843563583800015 -0.716090796965541 0.6286174965432205
P 2.321639974124272 8.325527960123166 1.4724233794458796 -0.011701604707644362 0.7789169882631425 0.18245216519306642
P 6.243539923658815 7.636410358913114 5.758773970370496 0.40937721598752724 0.5530162649681378 0.35349403166666216
P 4.782927465489103 1.0190772163523973 12.672084870948447 -0.8359597401097474 -1.2888446495719221 0.9708166720223538
P 4.07590333248007 6.061870183077221 8.283606669422364 0.07662067397853256 0.5991493118807746 -0.19343231835365396
P 4.843144599601223 1.1029504380197872 3.766845785709418 -1.5300241534028682 0.39080973739798497 -1.2096572433074781
P 0.28412898700098094 5.48217437809425 3.700078844193424 0.5598695404445454 -1.1709780815697253 -0.1713434568744146
Ni 1.5289222271864549 1.3067532647102371 2.5638224372643923 -0.37859468338903185 -1.0391388534375199 -0.2960820694060965
Ni 1.8767883741277795 6.411637828865845 4.889860190713225 -0.1656060401700051 -0.3724847138365521 -0.8947685827178397
Ni 6.053011541527951 5.570166011956976 9.173598248387453 -0.8931955818037649 -0.23401461065139054 0.5734747899328059
Ni 8.377481234315978 1.9032922040325602 10.33467777652448 1.106794347802965 2.3078965024515803 -1.3270113904496308
Ni 2.314691843265182 5.394975786404805 7.086360813446551 -0.0138333063386665 -0.8207650346471801 -0.3203874789206805
Ni 0.6318671657734354 -0.011642399814344123 9.170459423512975 0.22071043734331666 0.31868746551043825 -0.37038926476010403
Ni 1.2468515450988544 1.08188074937056 11.626204631507713 1.6785691243255283 0.5031342925360301 -1.5523683254260232
Ni 4.061493395717831 6.850000901990035 1.481748834456239 0.5872589882010918 -0.5696993820507736 0.14445845955811248
Ni 5.804338749146953 8.043844787279328 7.902529177922016 -1.5439855006789667 -1.013695216553435 -0.49523174985950186
Ni 5.415378598681045 3.1604172500125607 4.707194641493589 0.34396860867473017 -0.49487822317482516 -0.012362892440727096
Ni 0.75024493145287 7.553726700505646 6.940126540246319 -1.2996437970699553 -0.7997457520830356 1.257916335424182
Ni 5.037701275498641 4.635088183072263 6.919656139148492 -0.6181821601425096 -0.2324693776514577 0.3322598048782342
Ni 8.00052485856383 7.132080595920514 9.031926671236452 0.6862798842516955 0.8727828224753679 0.37560269064024343
Ni 4.701712737470782 0.3745430042293668 10.206407710917647 -0.7753292709118841 0.01296915856615831 0.12892848224331344
Ni 8.210951389769756 6.863338429449769 5.005164917971194 -0.5746230446046362 1.317184634167196 0.010493186221839992
Ni 7.070827099877401 6.023921312717127 7.096767689602294 0.814196637401043 0.48608247926006615 -0.8141321027116946
Ni 2.464378553472052 5.054102829536962 2.611582500965979 -0.888880756478495 1.4614044953519414 0.7399202952849708
Ni 2.1757382379262453 5.060140764265354 11.375375305125964 0.2822351362206752 0.36772843009848927 0.6915097651920672
Ni 1.2380830219783676 3.3149523316879015 3.8693960517418735 -1.6038865479099733 0.6728183594301509 0.0856493598397041
Ni 3.7073189587617685 2.794166943599712 2.8551969459394444 -0.17854151728475054 -0.9505586931042662 -0.4373104520626856
Ni 1.3411694926620759 3.3232342152929655 8.271221693754857 -1.4670722351606797 1.0602756354161353 -0.2730125891811427
Ni 3.887844195297833 2.5920943907418756 6.604830111751505 -1.0493636164893219 -0.25674419103842233 0.5112229830814357
Ni 3.9033986361056026 7.016053118863714 6.122454099194483 1.339306919987532 -0.9804171712265954 -0.48316787671643247
Ni 0.9312838430329915 7.76396398301113 11.168138065114631 -0.21206253186033158 -2.4509470259185724 1.3880023283107064
P 0.3508824107526577 5.7168788140140405 8.161918853853768 0.03406557422514133 -1.2883949636290135 -0.051210975656176314
P 8.593666333121073 1.658260196174354 8.018796369999377 -0.1641453964640786 0.19814232223481357 0.3805150403401963
P 1.9381950714998217 3.0613500612525284 10.505062887453997 -1.4360577890570365 0.20817630943204793 0.13449826302160708
P 3.970735126091499 6.198696993496902 3.7484724404493477 0.19733062496679563 -0.906256271642465 0.3867077994144695
P 6.883849383840547 3.805611129034275 10.321976485171948 -0.07213358474145641 -0.1617630122748311 -0.9885099755370589
P 6.258959186823413 7.7647660370272895 10.149599756966351 -0.2871901662331054 -0.23060661341110605 0.024195366299280912
P 2.2239155499530923 8.382491818956256 5.790957063657117 1.3805106479193514 1.3363848612447307 -0.5360719238043156
P 6.86048167525738 4.148682975564399 1.412226071388092 1.5625876891611863 -0.25667245726022253 0.8973561409393577
Ni 5.390451841279949 2.876390998020391 0.45392111866911133 -0.8915112521228066 0.18319598533762643 -0.6136513621516916
Ni 1.4736075356000748 1.035307545376032 7.031095686996001 -0.0411240237338195 0.16090374959832932 -0.016684402634216427
Ni 6.856020813032671 0.6662653700395175 9.095594439986634 0.3506221094355058 0.3980044553742113 -0.29949572307333583
Ni 2.6869530488777884 1.6620361583403191 8.962602168711625 1.6410158486621027 -1.627336037182165 1.2348129166374993
Ni 6.4895271868621105 2.117683946104893 2.466680178143144 -2.1148616766466612 -0.5661625725421089 1.049196237673522
Ni 4.092818561562448 7.063401341345767 10.461022912492531 0.8526042906449639 -1.0184810679778524 -0.48561762380850565
Ni 8.249269745687855 7.280550707338827 0.42884566586052514 -0.9682741081061582 -0.9948613716763833 -0.5506217965940323
Ni 7.87879288496513 3.8344850736160216 8.112179789456128 -0.23476717254669893 -0.028505306528544456 0.3283617553754087
Ni 3.0919632915097677 8.388151256283765 12.475570822777886 0.393261027151955 -0.08305100298490858 0.34451651075840023
Ni -0.004666332242330976 4.422868295133576 10.250764902748426 0.3592610160574265 0.8282860256145735 0.33414236661292773
Ni 8.682342867042541 2.2184183257973915 5.795612581687994 -0.17085469016345414 0.9700188587114068 -0.4870852094929675
Ni 3.7243873891730757 2.4482203191914427 11.523561543493614 -0.23639056708273481 0.572065311179789 -0.5871808266649887
Ni 0.9342577511827969 3.2019167864666627 12.684866367702597 -0.24488472059667502 0.6781873370515482 -0.19580364679930795
Ni 3.155848245673314 8.259272891282654 8.090258481654912 0.08297926920670871 0.25707123536053794 0.18981400487477632
Ni 5.676830184263328 7.821666812960233 3.6306083498139703 -0.8601332520321574 0.4266776549391878 -0.04260960714041049
Ni 3.0936304824422343 8.194243433073577 3.652002464806813 0.05732891562845611 0.7899843018208975 -0.07861199337694849
Ni 3.4447499046625887 4.148511750549713 9.265741638264165 0.6567430511348431 0.24826803524661117 -0.09890956728371997
Ni 7.0821189390037835 6.112381562409521 11.425100851759284 0.07781752250011113 0.9594243710250123 -2.341452484030155
Ni 0.5179061042886056 0.0670363956180522 0.44534364661764236 0.8779671948897847 0.2780879468215211 0.8629344689263784
Ni 4.399671811565094 0.10538539180193639 1.683406842541678 0.934424506546565 1.9475090860991944 -0.19602784699497208
Ni 5.984981139640435 5.757630367509253 0.12494649795335319 -0.5188054234143838 0.13589977135482403 2.5220035755457664
Ni 7.941929856169786 8.78297811646338 11.163851131457472 -1.2196809460920672 -1.2496859770945896 0.5752786759107641
Ni 0.10850619299065639 4.916095467700235 5.948574195596802 0.3537357153638231 -1.3226623694523154 0.3207960272130088
Ni 7.806797272211205 8.827631797924852 2.5765768984899062 1.1601938464700279 0.058077877979338687 0.21684966883632978
P 8.442204289867197 1.6471485939055357 3.568221163936781 0.976957237702453 0.5383977437240147 0.42126496856404866
P 1.7909505707129427 3.3319937265705737 1.6045982765718356 -1.1605350318595302 -1.663743886387238 -0.6744805776239222
P 4.6309877945626825 0.9979264211172665 7.899746320841229 0.19000272384681471 0.19240953351609444 1.0549449672318412
P 8.307278978294816 1.451780852149079 12.45465253308901 0.056296874819515945 1.8384786283313888 0.776764460696514
P 6.397281963160876 7.622559156409324 1.54999281701997 -1.9262450345140953 -0.18804919966486966 -1.6217186909953878
P 1.8235464064033853 3.2173991325314066 6.1407220058928775 -0.316861468045293 -0.15045864300560538 -0.4362527002221326
P 6.992369995779808 4.1314433201384055 6.012623165300732 0.1804006819806764 -1.0073818727408974 -0.5922767531306574
P 2.5725116561675514 8.648728693106863 10.323097558425996 0.34864133156005117 0.8673562521431578 -1.6389540810370677
