# total energy = -340855.98989311385 ev
CRYSTAL
PRIMVEC
9.34338768412366 0.00000000000000 0.00000000000000

0.00000000000000 9.34338768412366 0.00000000000000

0.00000000000000 0.00000000000000 13.67499231981093

PRIMCOORD
 96 1
Ni 6.887945445887231 4.693734924376646 6.1282429973601165 0.15492927718244928 0.011319795888193407 0.845164546537467
Ni 3.1366032962841577 1.361322251112756 1.5980323079478485 -2.444093750442165 0.11087316740349937 -1.229929620403269
Ni 9.182728193088987 5.024173175379424 2.104362636273552 -1.0920171894937902 1.7493467092597228 0.3416589867049471
Ni 2.3382855605442003 7.057826921873561 7.738322669466846 -1.0198368106747984 -1.1741631641659263 -1.6426626402369062
Ni 0.9459619488923046 2.9355709655547635 9.69764789776901 0.8294409651546232 -0.8710573551438288 -0.915409656006959
Ni 3.6908437139517987 0.46624439188174005 10.74936484953484 -0.3855798564576134 -1.0126251234177077 -0.10239444050852688
Ni 7.713947639516723 3.510712541608798 9.609553766411782 -0.5044339851840604 -0.16450895045108443 3.1006113158297635
Ni 3.512441068341692 6.072501280410009 11.01430408376502 2.21343725762973 -1.9764255120232286 -4.071600508874239
Ni 6.528159613976245 7.487632101548355 12.89149719643028 1.0922321337180738 -0.7957962805169844 0.43755702085585285
Ni -0.00904907103139146 9.046894022046787 1.5990993228283699 -0.32241530798398665 -0.08418305970682276 -0.8976549031266993
Ni 5.4469521274697 4.652222252623965 10.52134788065804 0.3020316021213121 0.10616599173581716 -0.33377778418465737
Ni 5.839944359427735 9.45093013831985 9.885501380083557 -3.400383175382621 -1.7414151131174718 -2.9397759575755242
Ni 2.3757992623418636 5.242855165559824 12.675924685691538 -0.34787128616324603 -2.648261710045768 3.344873058130459
Ni 9.17182445959014 9.041624351358399 7.846409781921617 -0.18394109103376707 -2.128802197987153 -2.400347715704466
Ni 2.2840471946823238 8.851346259923925 0.3583217230512874 -0.8707202835193844 0.10047536910894309 0.22733308486615686
Ni 1.8850658511795069 7.8999184292005795 2.778922529632203 -0.6029900257831035 0.2791721810246353 -1.4570860704822453
Ni 3.313520343242751 5.003599035564118 8.570158874404546 0.6365544920021102 -0.6175018462460333 0.5764631831371684
Ni 3.8887833833374756 2.512371561015946 4.129711045400828 -2.4632764940182033 1.2687879880313633 0.4643309465155874
Ni 7.947990159150512 5.7156399288633235 4.326015621931066 0.20116593955248582 -1.461905860468392 -0.26513935708065306
Ni 6.940380537914252 0.032054360338043035 6.535866974527401 0.46356372933225964 1.531617466031917 -0.7776728314433963
Ni 7.816136271287841 0.2836372217862163 13.347531134183876 0.418314370576157 -0.235623092789091 -0.7967589015405697
Ni 4.5739807236442305 6.917349087121913 1.3929757801165226 -0.8806807371662058 1.4282370074610369 2.2682369790784294
Ni 4.3366399881363265 6.529832080382667 13.030490366869188 1.4176818576530101 -1.5941613502024092 -0.1602344914454466
Ni 0.7204957248699911 6.781542946242951 13.854408050692685 -0.21035017715491516 0.4126522871943732 1.2884109044686134
P 2.319140959053936 5.833366614454993 1.3170495426200917 -0.33148358883384205 0.4676330143056269 -1.6161311696052811
P 5.46572299345015 2.5690485510793644 5.337226184804391 0.8633689853606357 -0.40745505926414993 2.400259526866034
P 6.059317760301292 8.210389860591501 7.9021486958553995 -1.4556992174370478 -0.5150886366844291 0.8207622064337026
P 5.977086604754285 5.121662083114622 13.111473245813412 0.38511397256478835 -1.4352301509494185 -0.1417199775810269
P 8.830678686231167 6.308132175960512 7.441739249620644 -0.6806640807268148 -1.0275532054824497 1.2019177085713753
P 7.9078696521718905 6.594656504560048 10.963474185752656 -1.6091164288503446 -1.2914046969896145 1.5730757331767038
P 2.2147472877749097 1.6862479033457651 7.665366694934668 -0.3293207768545683 -0.873805093092295 -0.6463701925409514
P 4.485648335899497 9.310106598221624 2.407509786010877 -0.2546505417341872 -2.6562601548702123 0.214020941138283
Ni 5.827769925195516 1.4343127961795916 13.262596002223361 -0.0020710235964157882 2.619325229517076 1.2775662484446255
Ni 4.249867946145069 7.20790975922745 9.043408938417764 1.5799292657634274 1.611372314764057 0.6101531191904459
Ni 6.4333148849729875 3.628794275934792 3.7372794167075165 0.8799968237253039 -0.2501588245114208 1.276177081406583
Ni 6.297957226705803 6.506492297794731 2.8761245953636174 1.0792953710517477 1.9058908963377756 0.6289890209500264
Ni 0.3826182685443492 5.123297175970062 9.161028175050363 0.25339378650895067 1.5304643262640805 -0.0011071170212497063
Ni 4.777330214534478 4.954340695370525 5.21489040603793 0.18207035637361546 -0.3443193071459296 -1.2562520603478817
Ni 0.854286497012277 6.308945050694359 11.58586340495748 -1.1450937576037958 -2.4357736606122438 -1.7948446936915219
Ni 2.750403707217008 7.671893051274809 12.0847956388664 -2.976405178762784 3.9343257115487593 -0.018918177060741614
Ni 7.322198078128822 3.2693354625948934 12.240307918839122 -1.5311068449440857 -1.3772039521436217 -0.7338383507569491
Ni 0.6034184047266244 7.1194745942175155 5.835707133085209 -1.075910513739915 0.8026721817012112 2.7922396304230364
Ni 7.258653698072557 0.5609573791177876 3.2333839752282563 0.14869563756791165 -0.3605370545563726 1.5741545680631794
Ni 5.160838907930961 4.699873530125355 2.5812229853115825 -2.987632414937171 0.8922645853490634 -2.027847061028314
Ni 7.495742162111338 2.1315631066778753 5.177666349260373 1.4655977074976825 -1.292179113261794 0.934013130040759
Ni 7.806092129461567 1.9555990852693097 1.5131653827178724 0.8966565437691718 0.10504601919876101 -0.13044491888783985
Ni 7.491668445054356 8.850963181026366 11.024451002856493 2.264409377802223 -2.9362301492057945 0.7916408635877141
Ni 6.466726839550433 6.210353623205208 8.67891590776066 1.2815074924805605 -0.4216346931986416 -0.0189765411025028
Ni 4.536681919764711 9.0485851752287 12.933848904402495 -0.9746185622669471 -1.1805814089874442 0.6499553387890484
Ni 1.6268146138974626 1.2146123767349464 11.518487301586838 2.71862303337815 -0.05675504540285709 1.1310979575453357
Ni 6.698928711798383 3.9467123873587733 1.19304970649618 0.6951213938027255 0.33043329319245673 -1.3829279991115926
Ni 0.670196531281563 1.830668647725959 6.098882335709063 0.06577704639580931 -0.4608848969485159 0.1145300474297963
Ni 4.458346956907524 7.591558603440112 6.400553230182619 -0.1738345987273845 -0.1780794900466675 1.308821092693849
Ni 2.017442968755918 4.061178230627309 4.756682261955984 0.5431298590923613 0.5946293125232339 -1.1249728184842045
Ni 2.6814962225949 7.311191567364776 4.8063629232756675 1.0632910252036913 -0.24951219206635739 0.9274048806956222
Ni 2.2218202322981555 8.889065516251987 6.5771105567130155 -1.47097131310477 2.631668324463461 -0.5345009797727698
P 5.128763057801104 7.675097833271472 11.240036594338077 -0.8838462793783811 0.874324713041191 -0.9954951486056404
P 5.721703787510069 4.2628365683356435 7.9069904393850505 0.006112283545324957 -1.1689492240651547 1.5304116186492738
P 8.382719304167116 3.1410787790141903 3.4113773804551157 2.43197177036765 -0.19659554657298398 -1.7234487584470382
P 2.942195427466231 4.064541850215643 10.753357279118436 0.341422959434741 -1.1671175701730545 -0.38232046898005123
P 0.7384621251655644 6.274234365220307 4.052693500215739 0.880493046635432 -1.7725375455538892 -3.0663873616498867
P 2.063188195157253 6.994048957123661 9.739329684839882 -0.8525171302477963 0.5102559911824761 1.2650429191666341
P 3.469087749203172 1.7082796116493493 12.776695925541684 -1.346538661849281 -1.2490776540866295 2.0746786766698717
P -0.026979966453532244 3.889315956438962 11.316384218621826 -0.7899981857779684 0.40889770524794733 0.7233212532757091
Ni 8.41871937715003 7.656401714392985 3.4118968728137586 0.0540985816166165 0.5535546539701112 -2.0433942647342938
Ni 3.216629412323258 5.637575924250752 3.1790390947460825 -1.065450237638539 0.007517905643599956 0.7386668824938439
Ni 8.190338950489936 5.1506172417375256 12.880024450617737 1.2981201613365774 2.8193665685468154 0.5076992861988934
Ni 4.210579000675786 0.572424518897681 7.434997995362359 0.8921612270019798 -0.0333448940090329 1.8645868953826663
Ni 1.0935874752691606 3.2508075246958237 2.040008184499763 1.3513430252164598 -1.1926424539170364 1.1555445206234745
Ni 8.885842047479835 1.4449175412705872 11.175477522372665 -2.115099760799396 0.6548766873500657 -0.5522001968247457
Ni 0.3344400239741201 1.2043439936027842 3.4967637980437343 -1.3340675259654637 1.7686801194810122 -1.3831743107944436
Ni 8.756295976390271 9.039559462666672 5.052212682003282 0.24099232752080432 1.1976995567249695 1.6320606963513442
Ni 1.6539104383590375 4.021291308342322 7.01658427402672 -1.307925320352457 -0.5831048568234021 1.363478375027413
Ni 1.4692103494085507 0.2004932172564867 9.447382453992933 0.8146216407536035 0.06853275476407551 -0.5977372620245963
Ni 6.011479615044994 2.073148246493818 8.920949826933064 -0.599338287963129 1.714146507209506 -0.8147537954560937
Ni 8.433724857869095 3.749389381564291 7.692279388996433 1.1968063554867387 -0.4190569051691363 -2.7235847482587996
Ni 9.255550557176406 7.547943669444722 9.856906876227628 1.0399718908617768 1.1453768360618533 -3.7510834463542304
Ni 3.976863499613085 0.5837290837308049 5.184763586591757 0.201894075967762 -1.2982309758828285 -0.348369051735271
Ni 3.3849505425561097 2.485144929125936 9.19341048829827 0.28939385875264356 -0.06528056637536499 1.2646279431164027
Ni 1.4709855930801712 2.679879816514951 13.548402758644052 1.0703371334171954 0.9127519066691377 -0.3970863144353161
Ni 6.319970248233896 9.113213388263429 1.3114220201810551 -0.582324784124268 -1.3536619031576234 -0.48497279113565506
Ni 4.559068676802619 2.548922893875836 11.339426881479458 1.8911242795515624 1.5748634212047459 -1.1587874530408042
Ni 6.6285730020757425 7.274397306423506 5.419604965877776 0.21010052303795426 0.30021897439260553 -0.23135017644534994
Ni 3.9137021984543794 3.05156912441354 6.954458220230202 1.244363536440412 0.4335759247209178 -1.2313612106434728
Ni 0.2166778335090177 8.330041284058717 11.944695276979667 0.4962784459564614 2.83342844595652 1.9489705011360692
Ni 4.1789890067086874 3.829424840991136 0.2632172478687088 0.1698840987200687 -0.2568066688452416 -0.7679867145038838
Ni 9.087556445514641 4.020693331526618 5.313158552311091 0.6678715569478368 -0.39015564875375386 0.3134997506619117
Ni 5.202192742091971 1.8691353750736501 2.3747855047714905 3.5295350864906507 1.1343146647104208 -0.6214993974412005
P 1.8141682249676347 0.3097678742936944 4.479463013212062 1.401038335559058 -1.258304057780904 1.3499042358874043
P 4.848396021725767 7.983495032582921 4.329789416241421 -0.018719430786374214 -0.6128561199439058 -0.7700531101146092
P 6.667899321096008 1.3560619238121123 11.320008518728255 -0.47312309088592075 2.8103651363791537 0.4948661389899671
P 3.560400677638679 3.332823782324687 2.277461040660612 -2.070495234716144 1.4826127539984402 -0.883954265711155
P 7.702586080018352 7.264549375739885 1.2165604730798563 0.8448932951539514 0.37574487264506257 0.20549490594514286
P 0.4458748722580575 0.9060133602481978 13.327743707616731 0.40548379447039196 -1.5803123601344589 0.9617350214360598
P 8.817046683510672 1.395332182505905 8.782066908469552 -0.8596920507296807 2.3660880231906476 1.0195599028643278
P 3.1018178637081433 5.46269573582065 6.277573692000502 -1.0393360570499908 0.48354531466050926 0.8127293088268972
