# total energy = -340895.16477318865 ev
CRYSTAL
PRIMVEC
9.07339356070560 0.00000000000000 0.00000000000000

0.00000000000000 9.07339356070560 0.00000000000000

0.00000000000000 0.00000000000000 13.27982862877572

PRIMCOORD
 96 1
Ni 6.123814805819428 2.0309430555630175 11.303484938254947 0.2493152455642029 -0.1392296070590054 0.8860265748591514
Ni 4.7292251367190135 0.21106528183039702 5.935259706161374 -0.5418671903298539 -0.177120725677824 0.4571547404821223
Ni 2.874668852662441 1.7447228545768652 4.980108099006143 -0.04376917466615043 -1.0623559149839317 -0.5033762333435073
Ni 3.5011866804669682 4.297748977654329 4.985778970003651 -0.932879273546632 0.2497096527891441 0.0352217993167716
Ni 5.066546690437898 4.439366504900861 2.6703877472237814 -0.06299357011340118 0.3495075362150884 0.47509127035588494
Ni 7.317828036086435 5.888251361279804 2.370197242117851 -0.6466453005792089 0.5874929585887688 1.1483397753449192
Ni 5.020354043640609 4.527169734729456 11.489296243689568 -0.007476253772387123 -0.20665730168436022 -0.2828830542173193
Ni 5.626874111959528 7.782285980872619 12.313309185862298 -0.2868924324870285 0.41140350238893664 0.3949348153099521
Ni 1.859809778948663 6.443007719133484 0.3789530055554587 0.9751212129349787 0.5988824313726331 -0.1691734458062893
Ni 2.751397727267042 1.4537844889207876 0.37626637371168 0.5602058407380417 -0.12949052539437053 0.6074429193481345
Ni 0.6200158339536261 0.052086723277258065 4.8670436340668966 -0.09694858690260723 0.20325701775355962 -0.37088677322181285
Ni 8.55935862861575 2.4521935000449986 1.5098635053802902 0.58548389857854 -0.5928051148303016 -0.42721835793400614
Ni 7.024104138596382 0.6788513473875969 4.817098231678297 -0.04425408472236894 0.002204463850486526 -0.5542609360085164
Ni 0.8639331519770985 7.490730624452012 2.4617214706601693 -0.3495512449688303 0.05594283391420688 0.6431570849202922
Ni 7.611261584981416 3.855194205008915 3.5755141061267675 0.4926375067697645 -0.5879143623969036 1.1983017090853427
Ni 7.723463170189682 3.779240827216711 12.661015238551817 0.25189509047623715 -0.01829622720602655 -0.020563425973648457
Ni 7.918123756398492 8.988539219100643 7.042532200989879 0.2796537486467442 -0.22400222072071097 -0.10933281949957299
Ni 6.752755229714091 0.8070157539493243 0.35727122421843194 0.13149341475701226 -0.7808784828648875 -0.27549318951115137
Ni 1.7397052679182714 6.518380399735543 9.256213403576549 0.48517230874097084 0.6917691895010409 -0.24011840955628322
Ni 9.32236751628506 4.734024961931303 1.464207096144525 -0.0743853568901106 0.4195086479945743 -0.17203276963195532
Ni 6.433752857665553 1.9034618755390695 6.858952043040517 0.46381724010396247 0.9947068483763901 0.17858779714165374
Ni 3.5241151460840867 4.3110142790916965 0.6809355058966005 -0.590654387035886 0.418316427458686 -0.4615940072003986
Ni 6.100396376948126 5.602838692323696 4.795863768645554 -0.4835923658483607 0.44512120635635594 -0.5005091962083573
Ni 5.252805314176801 3.2513144942264343 9.267102383231121 -0.12331910647633598 -0.8123009630402268 -0.4118752998190326
P 0.335435195190273 5.679073345317376 12.407834893006177 -1.168528334477652 -0.679104706659495 -0.1921791626728432
P 3.864567020593594 6.065155316221221 12.620352825151295 0.409788592493333 0.47587622815102565 0.3270273528347013
P 2.514500493868803 8.47260791244429 1.4724139806521166 0.05859904059013133 0.3511514995764146 -0.337044113640755
P 6.5257933623034825 7.794389887929696 5.781625376436286 -1.2027998540660123 -0.2609420311698538 0.667923750342011
P 4.759729885988801 0.8189155096504923 12.72214269120814 -0.6149068318253474 0.737339421931672 -1.1578549139242058
P 4.031118233441963 6.149274748249835 8.174571430978055 -0.32597705719331604 0.007962192269870159 -0.09737333314485165
P 4.905003990854525 0.910542267540445 3.8627305657297617 -0.07294733889200339 0.34072901869150996 0.05441585574671918
P 0.20667920336608553 5.664519621989375 3.552792513883638 -0.3535423684060944 -0.16021520817173696 -0.18070664325686944
Ni 1.651457441803473 1.1959640098901485 2.6718086406609163 -1.1467981418894122 -0.9880127241856663 0.50366162579441
Ni 1.7802451905052465 6.570942568837232 4.84784161119966 0.5157234420549505 0.23202149148076168 -0.30271474423126576
Ni 6.102201982273732 5.706892370082745 9.074492383975011 -0.10660282216291964 -0.07411616238912397 1.2277153863607695
Ni 8.454742400453746 2.226084531632416 10.406764171179304 0.5745083734036428 0.21528746655553246 -0.35489322600703394
Ni 2.130532623672829 5.401345840737091 7.0359721374199635 0.7231006526244708 -0.6406116927906194 0.22665097119746772
Ni 0.9333709258280075 0.044511346963948865 9.250928151806873 -0.8260864468600935 -0.019934534140397926 -0.26742995288704263
Ni 1.5415242049942093 1.0455452908554856 11.516891155633115 -0.8492741978304663 0.43235953581531344 -0.36320303142430993
Ni 4.28648889620168 6.664906632917517 1.7616891932620453 0.027499490971849415 1.1790001805432533 -0.4317075040536113
Ni 5.565220402474637 7.720995207131566 7.866850916526795 0.48233689617470477 0.8454388832447763 0.19555630667519225
Ni 5.263511918620094 2.8332034439286726 4.824242621795795 0.7032869603326534 -0.25818015215400053 -0.25444665325349725
Ni 0.6885762106438009 7.534945271445371 7.087006347040084 0.360971828100946 -0.42696227605914205 -0.32062967683847365
Ni 5.048753765596121 4.491320756631618 6.993211048080686 0.397044148343471 0.13315434739920293 0.15776160442492185
Ni 8.336479788323345 7.260166619783788 9.136203255839558 -0.19350482346280223 0.2983587812554152 -0.03308366992784625
Ni 4.779083434529092 0.2883270429791459 10.35000646487882 -0.8231451048435824 -0.7819184940936276 0.4304219524729683
Ni 8.084529794949324 7.339150511037059 4.453377639291821 0.6739748416320973 -0.37600481117466855 -0.5827963244440478
Ni 7.282187746041306 6.139584363889295 6.956425695763739 0.07880662588625782 -0.10463438558263916 -0.17299950442059883
Ni 2.4023170554477287 5.430671048839397 2.520232156603403 -0.6123105318530809 -0.793944057799594 1.2133418912479168
Ni 2.264002243470144 5.077861212252123 11.272821404597229 -0.363619035915806 0.33973682998156973 1.0451580630484065
Ni 1.06125133517018 3.600994010023084 3.765920178078408 0.1430093858164118 -0.5923621137556121 0.6048211654545713
Ni 3.7647687644310746 2.4482102802563497 2.8158278951923124 0.06665996322139488 0.60929745605837 -0.7795685058042122
Ni 0.9754896189006883 3.4559376666036634 8.291805120274669 0.3258901539064646 -0.3964736205519817 -0.3988511196452228
Ni 3.3859999487656145 2.8265617198163935 7.276934251149216 0.3448934344818447 0.6402152286831491 -0.4596296843851762
Ni 4.084614962084041 6.763570714880536 6.035057962323894 0.042158378535604814 0.6805206131704151 -0.04046016489757548
Ni 0.6624139875490641 7.582607808005214 11.229622070347265 0.9726033316091315 -0.6560051445275541 0.8721058510130013
P 0.04296070399839067 5.516323884385736 8.008812325390616 1.0973038918140263 1.006873308535595 0.2466019603980979
P 8.758891627185616 1.6055188500268718 8.111611152815337 -1.0235805939879468 -0.07457998939941994 0.920904360572943
P 1.4823203117802406 3.042553854369424 10.42617941879605 1.4695505214978433 0.24179039794206747 0.45567661327469905
P 3.902248824197826 6.118552237533743 3.9421699413415534 0.6406787985831289 0.19575248184639835 -0.8030601611682492
P 6.9355841106737035 3.9150786027425846 10.528699693037371 -0.21625574400607273 1.188793255374275 -0.7300927676715878
P 6.460555662348168 7.725649858046321 10.109893620790155 -1.2907665491849833 -0.29424810152115133 0.2951215052650401
P 2.39344327651083 8.422241504592836 5.954702173958905 0.718204243764118 0.0599097889817549 -0.3133462558031829
P 6.767853356657853 3.899826228107691 1.4775404480338623 0.7930863377849889 -0.12420536573603126 -0.38683764012411437
Ni 5.184881889717067 2.8246563071612307 0.32874991878873244 0.5447475972014425 -0.6057909855670083 0.12436323147013421
Ni 1.5986684378618836 1.024286329660033 7.080910841222284 -0.6907062954541653 1.165937176711708 -0.22025869451787874
Ni 6.745378560720534 0.588782491178079 9.119949178551662 0.917025337233511 0.933576813834289 -0.5466167891996973
Ni 3.013346600383866 1.6646410826984763 9.262973081805576 -0.7146612636078659 0.05260631334180618 0.8308789831527302
Ni 6.506730162358266 1.8386234049019785 2.6115449750749336 -0.713981463932022 0.8187896560883641 0.35790141670573844
Ni 4.123730361876443 6.668808192163802 10.452022258436205 0.19322457321822206 0.7490309993369875 -0.29113963779915664
Ni 8.253585264430193 6.992937031594085 0.593626776018989 0.06729039771654217 0.453940861530515 -1.195015582134903
Ni 7.575875349956974 3.9863864030136313 8.188793975439802 -0.17388190702555217 -1.397181166596497 0.011428553551915802
Ni 3.047008890625065 8.36996968408622 12.462534753639087 0.6101490054253879 -0.7013956568472115 -0.013816337057802011
Ni 8.977669293572623 4.948356665456265 10.225016838736337 0.07158928220221218 -0.9237757685834671 0.22345431863704093
Ni 8.562452655831988 2.541022023349942 6.102121229070727 1.370366617506814 -0.185520519705745 -1.0358115888365
Ni 3.4667894453444923 2.652996773718308 11.518525273819757 0.38945785135578087 0.14853622917191192 0.2167249703330074
Ni 1.3732127537882142 3.4652469684331706 12.88305388259723 -0.8651345619014906 -0.4139344963409065 -0.25663646181596445
Ni 3.290992444421788 8.605496835051461 8.066659746261983 0.21226410634817633 -0.5962645341338118 -0.22632932619199084
Ni 5.477108677263778 7.838477507412711 3.795122895367168 1.0926509664230473 -0.4584477482619331 -0.3042687189819469
Ni 3.195749031844466 8.433419925503122 3.6801720718993107 -0.922229764252586 0.1576520754302511 0.24528247025572597
Ni 3.1698081995534717 4.522832652590562 9.212190205188065 0.36624233247126603 -1.2289572291876705 -0.10222731880304331
Ni 7.3044357071387225 6.221235832859794 11.502270289192502 0.4649557245837799 -0.6518024193001162 -0.07777638484953056
Ni 0.5009856127250024 -0.02569131396710382 0.3659898481248385 0.7270526952936833 -0.0072970478820454975 -0.08087867792393813
Ni 4.814006926480136 0.2869351844015179 1.7083839132248433 -1.3121732969955335 -0.6879927531777441 -0.18950392983352526
Ni 5.9580076112459315 5.614071553595557 0.2567788534458173 -0.1216669155848937 -0.03957441985851248 0.36325239660500663
Ni 7.862385899538198 8.948462039587064 11.273764130191855 0.04701467818664161 0.4111978141360338 0.5273671969414659
Ni 0.11142490271644775 5.003051082053016 5.798995481136488 -0.7080147048256258 -0.8268832317297758 -0.7896724270074336
Ni 8.025661617298407 9.028924893996484 2.3042890183757905 0.24666006732954293 -0.2954863448036266 0.8847322815277602
P 8.6524879404852 1.719417159837592 3.740370409051402 -0.010269243136491992 -0.18818572524273397 -0.5066803580160758
P 1.9184511217596791 3.1015762797114728 1.7720873023230737 -0.1248180596193657 1.0212223781684153 -1.2031256128365473
P 4.875461021305916 1.3532422144833949 8.033220661503245 -1.175708654276175 -1.3553436617354206 1.4581258246006696
P 8.472045362041339 1.5636179184004952 12.639024054493166 0.8561184744458095 0.6598090916546766 -0.6608462746699393
P 6.324255143748898 7.732708958264016 1.5661566539286589 0.3796105262480559 -0.36353007574642554 -0.6730361318679118
P 1.7308133421941814 3.225500689445784 5.995908990975188 -0.837386702364261 0.9993134939104661 0.05912097453187237
P 6.869856447464203 3.9403480039074745 5.872738580248704 0.6082808418683976 0.10864684917614191 0.5310613579636015
P 2.7510257181296054 8.478487471494507 10.227659010951495 -1.4126679493781864 0.041219411661103204 0.5310477311168468
