# total energy = -340864.9207454904 ev
CRYSTAL
PRIMVEC
9.31908434192252 0.00000000000000 0.00000000000000

0.00000000000000 9.31908434192252 0.00000000000000

0.00000000000000 0.00000000000000 13.63942192188480

PRIMCOORD
 96 1
Ni 1.4274600450529302 3.5993192188125964 13.390665741832345 1.640280256047659 2.5560385536432886 1.6086705995621782
Ni 1.424151770153509 4.6322744714226785 7.253813007680165 -1.0793293096134766 0.11839518681215738 -0.6342536117830755
Ni 8.685302624751433 1.3963715800825918 10.225856280218192 -0.3756340580988111 0.676287548925674 -0.6406075790255613
Ni 5.6058857956960955 8.843466122196453 2.1794980270978517 0.46039921556134905 -0.05842729089895744 1.5203835449893106
Ni 3.466410439613865 0.45206318424224823 5.637854914125576 -0.8988126708802263 0.20574301740020692 -0.15860724025466877
Ni 3.6191409109564545 4.344780723120837 5.9758534393778815 -0.2342969177784997 -2.442632078294974 -0.6061468262445302
Ni 8.338809754229203 6.379230000001714 6.234402112080841 1.2128071017903694 -1.0377283462432385 -2.5809201473763164
Ni 8.445587821264617 0.10289853227307763 13.250493668389645 -0.2227164120297519 0.4833098016109354 0.3032078818176004
Ni 3.153261252444115 7.476002341375848 4.046011814816714 -1.4176512615253907 1.5862441522378616 0.4660607847225006
Ni 6.851875313660476 7.726657749741315 4.570310948510725 -1.445804326920839 -0.38917862955246524 0.2564906802667195
Ni 6.254438143161845 1.2085267993850155 0.5778736169877702 1.8425157745152396 0.02530068354831772 -0.32318406782921116
Ni 7.217202053398848 8.401275575780817 6.709053824572971 0.5975858240483967 0.7499715088733858 1.4521775774370345
Ni 1.8073059180118627 3.8889004419805517 11.017025096918525 0.302365331311647 -0.15318298391530394 -0.3833052014908237
Ni 1.46065462305783 8.193264296823104 0.03261399905776192 0.657536493570416 -1.037555053890168 0.20808554949045455
Ni 6.587968167528876 2.5103003555125993 8.619759641589148 1.9368726894312709 0.2513636434527993 -0.42883841003593237
Ni 0.3422629381930816 2.2419014107851654 12.192688145788583 0.9002247207364045 -2.9006093146783916 -3.943966062852001
Ni 7.937762964661302 4.600738690409601 7.818512235300859 0.1406082325740869 -0.46621967889786803 -2.4403895621177005
Ni 3.625915885187101 3.6632108602504387 0.5298915161366673 1.8756223272612216 1.167222471182035 0.6016494525948091
Ni 4.001428383982002 5.89912009987975 2.0238040869721186 1.5182140481418176 -0.8463698796994777 1.0334693138565685
Ni 4.403304572045815 6.675893727179699 6.298057980687823 1.405405354278502 0.18718248078920022 -0.6135138081325627
Ni 5.020339776666934 7.2790155390548 9.288691894343755 -0.93422293205872 0.3323148264858858 -0.7195571582475866
Ni 6.668084334600219 7.820938924832715 12.01127073748011 0.19953534592759828 0.22588581089666904 0.14396737885430688
Ni 4.715475255372073 8.214120407315797 13.816461223373187 -1.572598279319653 0.1900523461378275 -2.3692052286633905
Ni 7.9532140063042345 4.412688889859104 2.728675388035513 -1.4483895711495118 -0.42214582850710525 0.8044760676791693
P 1.8118070356919207 1.92295575322826 9.948389866541078 -0.5630499950550562 -0.8791681571764214 0.0579835184933195
P 5.130509990359783 8.993932056072678 10.988217943766156 -0.723472948362225 -0.716011092767541 -0.7345487465604122
P 6.682035003683131 7.640232562650511 0.6805568784152799 1.4522932770792925 -0.6136354213120916 -0.7072397743328143
P 4.933122467417115 6.563999482905461 4.001110603209973 2.0654175630829203 -1.2918214728120592 0.45833899059821065
P 7.980295265058372 0.935337845366588 7.803931596124422 0.5260592767633199 0.02694953200565036 0.06507436390182986
P 3.367479041494826 7.95032509019488 1.8355250369497171 0.04202416695058569 1.869368633042026 -0.22873253631684476
P 8.89870965347468 1.136285258482718 1.6670509047195707 -2.625907510720284 0.33140517018742277 0.46885840207229573
P 4.119687562781042 3.6945229832421465 8.35012219056838 0.4413596824313947 -1.5887890301469023 0.3785134365291352
Ni 3.2540191910710035 9.23338592520123 9.56647236115921 -0.046855784011274146 0.8750574774421576 -0.11564333509863307
Ni 7.909377034115843 9.103254233101167 3.1057917012253173 1.4290962701375387 0.6565265642486628 -0.9950053534534155
Ni -0.028678549790083874 2.255283615730431 3.578288841444922 0.11011829151534584 -0.09483745409687537 0.06474217737339172
Ni 0.44587531231769645 9.155469062006684 8.938677341893381 -0.907494000704308 1.4118901906718972 -0.5493483291982475
Ni 7.905994206542632 5.283687777745111 0.3851251341716713 -0.7329495203940926 -0.5208638486053093 1.0040828902746515
Ni 6.50699464470895 5.29532731394054 4.880035372228257 0.8032774193853778 0.29133992673542086 1.217266937333936
Ni 6.925346973680305 5.919491617992808 9.560497896263383 -0.8077012594846863 0.7409073417885885 -0.4020045776725399
Ni 6.156168400022691 3.4737072825610396 13.278877735118257 -0.24080103744560463 -0.3422428842328751 -1.3879467924824225
Ni 0.7581941690831127 4.168994837408758 2.1782427464529164 1.3521894323771553 -1.039278721449494 -2.845420842431706
Ni 1.084182258587885 7.339869159035709 7.017045830533313 -0.2632411116166757 -1.4158576599600778 -1.2514227572800383
Ni 3.4998566328928056 0.4503876128988229 3.1724343363260017 -0.04280809630446176 0.9405745853083609 -0.5491650095428477
Ni 4.07585059059265 1.294038716221894 0.5271162928548427 -1.9602373322991402 -0.2770209390095874 0.8012213081872975
Ni 3.0119652974440334 6.209473561782383 13.662335685122306 -0.6506114843158085 -0.6180839440017485 -1.4485950022920988
Ni 4.924753929784212 1.4693866049754583 9.73986976558475 -0.2050159094261953 0.593103619907327 0.02731385732360457
Ni 5.87052914948137 3.521327802944262 10.76117616291518 -0.003515726462742332 0.6512010382706914 -0.0358306365453641
Ni 7.039794647031842 2.791923080753496 5.62159683978887 1.0975995686775741 -0.23719866480632698 -0.5981792346580214
Ni 3.2187371381999896 7.584793330603586 11.489876362338633 -0.6135919696686658 2.4677784956536146 0.3338536317279153
Ni 2.770573058796947 1.8065976676108597 7.917220907306951 -0.026854658298998912 0.6123771234249583 0.8186649575850418
Ni 1.86550359898901 7.538179271316525 9.276879955090187 0.524042246333291 -2.8493713424390217 0.48375408823720567
Ni 5.495501243066101 5.813421801358397 13.390924812373765 0.7964100028415833 -0.059489670725200776 1.7544408359531785
Ni 8.4311246025494 0.7755845121530014 5.382238957227822 -1.0547390218686221 -0.5645643748170536 -0.11139561556587266
Ni 1.7786310958554683 2.6650903444686316 5.457555795923948 -0.21667200560788488 1.207422440439688 0.15621662853530516
Ni 5.161290925550738 4.141205328253617 3.491024004865561 -0.8930420869450362 0.06289792507580136 0.17847672548508617
Ni 2.6899443420932996 4.467140298978315 3.4695276732867004 0.970733111169612 -0.8631414427308619 0.3418284224032758
P 1.2292151663616797 0.7067686666113444 4.852483499720821 0.5372698007671586 -0.40879768933497335 -2.1207844698889993
P 2.656861593099084 8.522992134826856 7.373758008815276 2.256514034214546 1.9623926880792462 1.154788102073424
P 8.957596946684383 3.9954828082472673 5.923219251682297 0.48375871622289596 0.15442405541125662 -0.5504456760274843
P 5.937990000176898 3.6141552008967626 1.6708158147459546 1.119721083166962 -0.48141515569138377 -0.28976744004197835
P 1.3967163861988696 5.429838975625752 9.436392855930801 -0.1147683886928475 -0.934158911590004 -0.5713063215265773
P 6.541782786116107 6.207097195305334 7.374208120583282 -1.4494558076304973 0.6866436953490175 0.21498690459597813
P 2.3861142391472723 2.4165503682219502 1.8040181450977335 0.0937233950970902 0.28704849844891855 1.032162422119687
P 0.8155363581285224 5.735486299995405 0.249913609261258 0.3936081260787286 -0.49033302700630393 0.8067113847675914
Ni 3.3327654527614596 5.628102492485451 8.13133245879751 -0.11087111052097036 0.7011038366384055 1.2337009145202429
Ni 6.8319697497586045 1.8684763868563778 2.999881240931132 -0.7780091317368923 1.1481497708213 0.13680479966759665
Ni 6.474936994979345 6.32494633439853 2.5585238206450964 0.8724130978407749 0.13917021457597967 -1.4220961846706217
Ni 8.825032973601928 7.058367581889721 12.89329037436909 -1.076930470363997 1.3849751114486082 -0.06072122913945671
Ni 6.931190039488579 8.716521556900902 9.560852953372306 0.7319365057485459 0.7336234065326656 -0.15472667425333997
Ni 0.41970452809221626 2.8328804559167566 8.428180703843125 0.5285038816490705 -0.8401154141493338 -0.4868214143086197
Ni 7.658032013517821 5.274433927110954 11.562233459885304 -0.5913737817004138 1.6775473679292334 2.0979854697166127
Ni 8.423371124475262 4.072635506535466 9.80158819658162 0.9699229565634908 -0.8289676250626304 1.7795697698103226
Ni 1.2404726201039367 6.218447839889828 11.580127965411695 0.0661565412224151 -0.26866382529414373 -0.39042664302695335
Ni 4.929189813874705 6.281053447704797 11.337660304445192 0.8457499867272918 -1.917591986824788 -1.0790829979306253
Ni 0.6720942180317173 5.261349932860848 4.099274108788977 -1.7661578672797906 1.3514502402182853 2.400974807765504
Ni 5.022082445416771 8.721982540256004 7.316199617015876 -2.0688175899034045 0.5784694149339199 2.372899389685526
Ni 8.538135646690407 7.271084998380413 8.341516016287773 0.02737633513042382 -0.8666715673713073 2.020514274812327
Ni 8.540036739872045 2.9633662732173205 0.2661511816126722 -1.6820005186045806 -0.17953293466374243 2.579182852970235
Ni 1.7314112960938661 6.685464426677462 2.1915140542959195 -2.2562091013796173 -0.8405918395651201 -0.11986508648946453
Ni 1.2027862435032024 9.237775213870602 2.3568103788057764 0.2425607004491887 -0.5508873915505932 1.4992097391251729
Ni 3.9508909902367546 2.2980022978119754 11.97336629430854 -0.2891832854037342 0.27976996250963426 -0.19233522863473326
Ni 5.629668098635036 4.106100337982855 6.8242796414571885 1.103153408616268 1.7702369224451706 1.3566484965897732
Ni 6.71312346865347 1.1447283487894109 11.513868344672606 -0.5183871049300427 0.49552819805399817 0.9123621274298868
Ni 1.2288796793296257 1.2156186224792684 0.34778635941248204 0.8230222061124729 0.8509287027147537 0.42078468649352047
Ni 0.7389847407727532 7.868820379574203 4.68998290047808 -0.19666856590276452 0.13733650380135057 -0.2159019602110798
Ni 4.8679168351037285 1.9108036674005258 7.102088065525315 0.8403303583736174 -0.2658345833754648 -1.0361838845742541
Ni 1.0253881562204195 8.985768538292696 11.253109185191779 -0.11588630434737461 0.07213589873430157 0.5925089237461215
Ni 0.8827679593521467 0.9357478850724319 6.911245335432968 -0.05867565946433766 -0.7883215694064939 0.7634551451821174
P 3.726189231434356 4.605034788236738 12.140572099175838 0.13637388277776513 -0.3139656345547367 -0.43810877959426486
P 2.5488534069461397 5.943991490416974 5.415914399978666 -3.0977684470643294 0.4785231788555695 -0.07297819212993883
P 5.005951110625507 2.406672138944804 4.8233361999942845 -0.5162037241254787 -0.5251066830420634 0.28002990103924036
P 7.9393099326424394 3.206976453909652 11.723096696029936 -1.9860738337462702 -0.7789784376286971 -0.08296795635279905
P 8.470702753247549 7.04301905017325 3.434787991117507 1.2965335335757477 -2.0151126441807814 -0.36896178828495807
P 2.670886814855787 0.3784191211642805 12.68698076019063 1.373425716048112 -0.5067279234245595 -1.4948262653454965
P 5.590602497569191 -0.08007423119233628 5.421901911592408 0.13800241952012363 1.1242354260975478 -1.18201685588239
P 8.583025675396078 7.525244382413999 10.733884292857585 -0.2991915615693557 0.019393316924947245 -0.5312523909284851
