# total energy = -340864.80712272436 ev
CRYSTAL
PRIMVEC
9.29046670931776 0.00000000000000 0.00000000000000

0.00000000000000 9.29046670931776 0.00000000000000

0.00000000000000 0.00000000000000 13.59753712385489

PRIMCOORD
 96 1
Ni 4.369715339848073 3.9392787202451838 7.914133425197051 -1.1538992717105676 -0.9180974872517672 -0.15380621932159963
Ni 8.92870536082044 9.056012628058754 9.15840379225347 0.9264540867465787 1.9115468090719723 -0.4649665232170573
Ni 4.102735193994795 4.080317297487019 10.524343971263946 0.13730899299752483 -0.4969705869274796 -0.1378800350096464
Ni 1.817856357969343 8.617279621559288 3.452618982409346 -1.2426408973223502 -0.786344391075465 -1.8652813503465295
Ni 3.8309518767803405 0.4787851381342261 8.948824795829657 0.9075911884038047 0.3408454896647162 0.9153728892317526
Ni 2.062976035325813 9.008872799264534 7.805217566133952 -3.010522689271783 0.346127563999262 -0.33941261387293165
Ni 5.339872340604189 7.85759814727796 2.39498852007871 0.0394926587779836 0.7172647626689841 0.903491050192502
Ni 5.07539133033342 1.446739369200333 11.379548167598175 0.1923789373884751 -0.32993809872359303 -0.5799848231371818
Ni 8.682461536975184 4.265680692067685 12.377593291743038 -0.8712332186000608 0.7606796393195093 0.021043193823544405
Ni 8.60173667052012 5.625870072098337 9.672716604666762 0.8942859866544662 0.16650309806297775 0.141324284804505
Ni 4.997983160543619 9.19880710353514 0.0921094045324055 0.6203534567622155 -1.5331552428326822 0.6624290457760269
Ni 1.2146635073005216 3.308744025638367 11.122323011936842 0.5790324865262415 -0.6382478205441331 -0.3378810077197536
Ni 5.602300157701226 2.3322787978914583 9.276321184647024 -1.3127433105663908 -0.09802793600971504 -0.9378764696509072
Ni 6.868061232673844 6.420715963404915 11.290021512849922 1.2516811531477476 0.48143263919288054 0.32513682068020777
Ni 0.6891482499601362 3.4065168987622108 2.0529562668286574 0.4368520243690283 0.9026850093514388 0.9964027480215742
Ni 7.891313251474694 4.535754563381837 3.48931818455813 0.5744996316528945 -0.23493146603870507 -0.09473538130137234
Ni 5.754673104499417 8.204011784694224 8.068602301316483 0.9310902999670094 -0.837394415673745 0.30445383840955953
Ni 7.7889323067935115 2.1293285495647423 8.281077136257279 1.4804175461193343 0.20928471200487828 1.036785008493363
Ni 8.656104482523231 6.600161330602469 13.45271027077775 -0.9628429097882578 0.4338212079625045 0.0684111415845467
Ni 5.038471015073618 3.7413639049508816 12.94776503608878 -0.7456877938963673 1.0098149076624223 1.7396477368044039
Ni 7.219027198846349 2.663836978815416 10.87981116862502 1.3668254371227753 -0.02199347355195567 0.7294607905145436
Ni 6.486789763638361 4.550201239332766 9.044945823947664 1.3031150434480074 -1.4878673175291603 1.4016564287590312
Ni 1.5549361461292843 1.3051619448812288 12.837217771046912 0.3738319718930659 0.5653035669759231 0.17323244636701135
Ni 1.8416678245045395 2.1520437410117013 3.729165521977525 1.1976594475156535 -0.11373660499422347 0.04308988921093869
P -0.3303680721205405 5.9026795318783565 4.997244568429086 1.7964662884553448 -0.395142560445384 -0.8738698848919595
P 0.4298271649775633 6.126366102213094 11.604056944249091 -2.059624867660543 0.4140964758400675 -0.07247554146190743
P 6.936420487752259 2.9430340885757498 4.632531498459417 -0.130759107694149 -1.1533814515338845 -0.7397881405824808
P 2.226005147600348 0.4288498078649988 5.025663177474936 1.4317751025212824 1.097463300210026 3.2414296075321274
P 3.2978927603581836 2.0604861902101543 10.343021000716115 -1.2862871732573913 0.033591205691884084 -0.40387094145731733
P 5.42011410278308 8.424093653891367 5.190777999557177 0.6824245150613474 -0.9686129795028157 -1.2219352893438828
P 4.3766646090514785 5.483790962569361 0.9237836354769772 2.3522578021757745 -1.765062834443399 -0.9130743230055629
P 0.01652216624510106 3.732649447046077 8.653459486611187 1.8352668062623103 -0.9453329259289525 2.629645894716794
Ni 2.9742686381236747 1.991848221126255 6.658265768372437 0.9089258480548282 -0.6084932149895198 -0.4874886155789734
Ni 5.908560397394072 5.9405010224225565 3.8766581865396876 1.5562617469431583 3.5755269798397324 0.9893651244485026
Ni 0.7829996170268179 7.824236080821506 1.4582679095138429 -0.5782714399905008 0.4929673793053575 0.8067802903323138
Ni 4.742300222379299 5.951250092567396 9.094223389163949 -1.4713466941663176 2.379016815437174 0.08779803075159072
Ni 6.633746368263309 6.342611008601405 1.2276738770765223 -0.7558534215754595 -0.4711304859359241 0.3251190800683949
Ni 1.1274817663850762 0.9688098830629434 1.7149217014639324 0.631711562087512 -0.035256252099132836 -0.5791479290581832
Ni 8.796279046348065 8.29433370340479 11.38104393276094 0.055524772540181795 -1.069174737677978 -0.19475155138570976
Ni 1.7378189860611413 7.07542445275406 13.203644003103625 1.350545983236461 1.2016001773309566 -2.1995669274055407
Ni 9.083976933275666 2.032113104451867 4.716727283329442 -1.6563869318015345 0.30013644198112827 0.15422993712257954
Ni 8.932997556504896 2.3992444829424526 0.39514956841522403 -1.1139780100355976 0.7455142444329805 -2.274910791554179
Ni 4.059683170614342 1.8229103719354556 13.298051869134587 -2.8283749426930127 0.3583531595311764 1.8593346458447915
Ni 7.5916956955792205 7.15970756801247 5.723529601526616 -2.9255302462897874 0.6741995560483937 0.15067435856083727
Ni 8.049799325459837 2.0860721359136 2.4487394450830156 -0.9143724729916962 -0.23205183049806488 1.3793996742433599
Ni 4.364865716152648 6.532861188744893 12.518695044159449 0.5328382473583662 -0.3551151122098529 0.48364970144885744
Ni 6.996539098735193 -0.06277103926845778 3.994126849384412 -0.35869845868573713 0.11442488931049971 0.12043535717063776
Ni 1.2441793204812945 5.318281295646017 0.8837853885499453 -3.1037827715792092 0.31841055769996773 -2.218202797339173
Ni 1.434160077086148 2.180630507507527 8.606466447193187 0.869669987877999 -1.2818831306524245 1.850472053247839
Ni 7.154607101712109 9.287846937820479 1.456173838285972 -0.0291640231584659 -0.572363302036182 -0.23000291838883613
Ni 4.249152951542475 4.681559150117451 4.368277175579775 -1.841588377604964 -1.4790888000055817 -1.2980962500771773
Ni 5.326261806669714 8.13932226402135 10.81213662095341 0.008793687032230017 0.352495929419451 0.15502132267562335
Ni 1.2773277062002106 7.205416664911873 9.405349046345863 0.8103368973353204 0.1407810107065253 0.8450501324467898
Ni 3.106239719720425 9.115815363168807 11.863430055846022 2.3150971339650774 -0.6257196061701353 1.7930089260343638
Ni 5.505028969787254 4.260013507289507 2.586319181516792 0.48832165300323 -1.7167950005759467 -3.097378924935395
Ni 8.287635276806322 7.034583560483781 2.9853122160676424 -0.6151068636512955 0.4957667964273655 0.47936881468531634
P 6.420056340258604 5.489857637422066 7.187046624810412 -0.8948153767953749 0.5644296490114021 -1.031811209427855
P 9.237037374620718 1.372592153274697 11.310716956803807 -1.4539878911728958 -0.1671420171985573 0.3265326725864699
P 6.350415000754961 7.629099115115195 13.07638411724624 0.9822884201073793 0.44291262874081133 -0.09619473945571819
P 7.2598309292492305 7.5782988423822815 9.48194337123965 0.8259170111617647 -0.4682498219540193 -0.3138597051044917
P 3.7957781692882393 2.767527879322374 2.9835990539805994 0.6334820237243735 -0.0595583191796071 0.4913547834025989
P 8.94014192551214 0.008176539874220333 2.926190472177657 -0.47239983956665094 -0.3253998445336073 -0.5401643487061343
P 2.8774248116847785 4.089329050331007 5.771067062301995 -1.6269881669244433 -1.3454220317463346 1.8439391372253278
P 0.09781839641140608 0.5076784900360841 7.098593948029959 0.7701418131736737 0.9848569521655038 1.1341184895392147
Ni 1.0372434618761543 4.331819525569077 4.482849999907518 0.2132987182602778 -1.274549830215805 0.4327613992394225
Ni 1.4773979098035908 7.509614420964135 5.562875132578807 0.8664833626199013 0.8426443512187747 0.05062039326002895
Ni 3.643990521901565 0.4407490378058026 2.4943593535006627 -0.7613679236357855 0.011036717430135831 -0.6790152322694822
Ni 3.557561308800927 7.337471360710268 4.4495083724781335 1.5866017926875966 -0.4720265153876322 -0.7067168119498086
Ni 6.398558199968925 3.127124689198038 6.694842336358808 -0.7360358726289002 0.07733029845104747 -0.23653249197723777
Ni 1.2235916459428642 5.769008294848152 6.864716664608034 -0.779564134928838 -2.349228785541464 -0.6444809459380385
Ni 7.06979442984328 0.5080268825429393 12.37352778344971 -1.3476550348419112 0.47100115944691145 -0.0242411319355518
Ni 2.1691567809484287 5.031986269212687 8.858211156460015 0.33535207065031275 -1.0753602976633996 0.590414503110938
Ni 8.440705008618222 4.667865001981329 7.196849925429974 -2.151947525755365 1.80724538134872 -2.555667543457115
Ni 6.827554797210146 0.3427411158706673 9.901019607979004 -0.07181219684629568 1.4889721205575648 0.04931015908903766
Ni 9.087432986943668 8.967808935789867 5.132635470873127 0.4237766792423089 0.07052381705217532 -0.36833186801044304
Ni 4.377844498341361 5.611311910545214 6.343414633983884 0.11454187450433823 2.314564658500375 1.2428311589562855
Ni 3.9712657976079164 8.571384715322896 6.690464668379336 -0.39233722978610497 0.7629859188551827 -1.305818044201467
Ni 0.8731561654274643 2.9929238955574147 6.5780946137416025 -0.3046294447554754 0.7980105145594837 -0.5356181240963486
Ni 4.790201869455177 1.412336770456738 4.9479400608589374 0.13093394270911643 -0.1872750405030065 0.9227092749921657
Ni 1.2875658006683286 6.287760092322122 3.3544308254173303 0.20964440933714218 0.5278521069976844 -0.4274461576740961
Ni 8.731710301744235 7.42101123862072 7.6988166364470025 0.033144347962452594 -1.179791051875665 -0.42745284254231547
Ni 7.354890986053028 0.5580300332201676 6.581615700677553 -1.1126436074948902 -0.6186084490466508 -1.1936922353377892
Ni 3.2802315828773376 6.985000338908149 1.6330234490457816 -1.732923273596377 2.637217022195832 1.0035097913800008
Ni 1.6173587928908868 0.2867576916824338 10.386261620573611 -0.7267580468714 0.8545351891190897 -1.3325138083250985
Ni 2.7502104491149577 4.766353241052582 2.114022505430237 3.266084172856014 -2.909147691166706 2.9986385362396875
Ni 2.3193093061695955 5.534795625572962 11.326326799204288 2.1240891087822 -0.20257181876107694 -0.18176079555299665
Ni 8.905516355564158 0.12583751538272875 13.484093467795265 1.6822843683935866 -1.1933579919268222 0.6697561755650594
Ni 5.625860781631487 1.4651530744959866 2.751706214277723 0.9549827903138909 1.5296986517426496 -1.292920619413509
P 2.791775997799496 8.905795069569642 0.5571660198031667 -0.6909425798346874 0.781605333728583 -0.19664259776083554
P 6.299475371019307 2.070714994211423 0.4934297010290489 -0.05631384410038043 -0.9816214759473417 0.27263437990611755
P 7.8621783474347495 4.57176441289039 1.309575845681413 1.8118137174456925 -0.6024773478127431 -0.9558006582294959
P 6.10391104383792 4.536980905005968 11.46189422051847 0.9814080743849551 -0.9038396917811724 -1.9799024148282356
P 5.474546948054137 1.0335272751363656 7.543559928738736 -0.7316508561873271 0.9795054580456034 -0.42714970947959985
P 3.4039248585112083 7.370796265299323 10.631533661586415 -1.5222010578140235 -1.0610225408844889 -0.6157547816479395
P 2.334499219468482 3.249164261732703 13.614806620180596 -0.7807440141695522 0.6401535222072782 0.0008667188756694751
P 2.7799027811658705 6.9659363009330315 7.580463521158209 0.5310567299779112 -0.5787753762101129 0.9431554586616595
