# total energy = -381166.03017932485 ev
CRYSTAL
PRIMVEC
9.29300444328316 0.00000000000000 0.00000000000000
0.00000000000000 9.29300444328316 0.00000000000000
0.00000000000000 0.00000000000000 13.60125135402953
PRIMCOORD
 96 1
Ni 4.854711887408082 6.20487388949027 12.134927622772345 -0.46541775182186296 -0.8199515376069493 -0.8280456274689934
Ni 8.526638072356121 7.862625039381763 8.6938108551851 -0.2601920403777067 0.6208879891094468 -0.5972662359254488
Ni 6.177663973034013 0.5968655014353114 5.88599560011298 -0.8056155806002513 -2.0918888699005715 0.7028853540188604
Ni 0.8586392089710538 3.987377214356386 2.8003892153726007 -2.307494124806839 2.1533714026860853 -0.9444610648469605
Ni 2.105450922841162 7.355570848260608 4.962647343919177 -0.41428956568748004 -0.3550924865020336 0.6574542182692548
Ni 0.016238595633764768 1.3510355444820816 8.502305270016961 0.9067149564464385 1.0079775973433671 2.1660402564030052
Ni 5.098541733029417 4.481997365785441 4.5712037015226485 1.5539883775279495 -1.5753861264774351 -2.1480535900175974
Ni 5.58809719713994 4.960419810799449 9.505234168141484 -0.6330904447129098 -0.9350940218097638 2.608151472288444
Ni 7.117911557464053 0.04829202590730341 1.921204103295967 0.7306974911351223 0.8678661019000409 -0.15660769332613672
Ni 8.975239266718447 2.622272061433467 11.236551527610391 1.6215693099017168 -0.33827747182722384 -1.5873651532161823
Ni 4.9708744405854075 5.378223989063401 1.0170496180887607 0.5534569520499824 1.3456806847243599 1.4519726605150802
Ni 2.1505591654909813 3.3173051426082987 11.569605365677019 0.48085876896728147 0.3610548747330556 -1.3654838354932162
Ni 4.397338097029805 5.731395322739489 6.045143873768469 -0.16219521471624324 3.0843539734306367 1.0829666492557477
Ni 7.069810967444385 8.126007365953905 11.525985862308719 -1.4312775940595739 -1.3223574366173871 0.9120821342956228
Ni 8.82750837808965 0.2804414944815514 12.590732754032516 -0.27380500317545103 0.10874660797879983 -1.2169997997154782
Ni 6.907183392996129 6.1709172519454745 13.180904504503536 0.7428644655149593 0.549541161935344 1.0675042919540905
Ni 1.322459556400459 3.258090119500625 4.720015366546207 -0.811051664014158 -2.1105154838628235 2.0658150556316555
Ni 8.919388311150788 5.420070387220001 8.234115672344128 -0.026196455889709723 -0.13467798313258095 0.631277559873887
Ni 0.751670224902394 8.781350025959107 10.343057976883589 -0.3687489009432037 0.3149526810583544 -0.16642056565150048
Ni 1.3114938113805197 1.8839057014213656 12.962794906756514 -1.115292615081963 -0.026697306785528216 1.1274883858172067
Ni 2.0865861242051644 1.794683567576925 7.503810064222108 0.4248375164066555 0.999209364232434 -0.2909028391980022
Ni 3.554183821047502 9.170643267171217 6.3006708238445475 0.9239979118966022 -0.6424189212026872 0.3586457510709308
Ni 2.9124182402576646 0.7120234808527599 0.46675972467500454 0.8318063800630061 -0.4779302824665769 0.34363462237407916
Ni 2.651229062689511 5.1962205007451665 4.681645481281098 -0.4784753563367696 -0.9258105396253088 -1.269125059655808
P 9.11506180872693 0.459166410898909 3.1119799308137583 -0.8601926445151831 -0.172499939076361 0.8323887349290374
Ni 5.36727683005197 9.12740291837649 7.941811657932108 -0.7755059056990644 -1.3276863050294683 -0.1673515621062021
P 0.4381716556878518 5.565143476632099 4.273349904970029 -0.7327682576212219 1.1820896181018545 0.7437178146541902
Ni 5.862036376544836 3.525273284812729 2.417404994748659 -1.1102848774547265 -0.5513525041124698 -0.35376374038828107
P 2.2899170572867558 7.3718800707267045 7.333671883735619 0.5916370626641295 0.3160392292543137 -1.2788060343889978
P 7.5776829429399095 8.20982097132241 0.1753877985896794 0.4870965223468772 -0.9677580877016883 -1.0533339139909794
P 2.7860426754049885 9.091215959810688 4.04569174535183 0.5047065221191566 0.0352181997723458 -0.9719456434204744
Ni 6.828518111984444 1.6631132133461586 7.901782971407627 0.979796506923461 0.23017621074190683 0.046561392699306904
Ni 4.41812654754642 0.18514917025827649 2.3929495247533423 -0.6011879395773582 0.767247265234698 -0.9258632472401153
Ni 3.1622885386442205 4.253092084996329 8.798622003665939 0.01129922706290312 -2.5839995576325885 1.293420698978379
Ni 2.034089943173267 5.079537539329606 6.9604536812824005 -0.46973411980902974 0.21927344778647398 0.38810905063737033
Ni 7.717524070956902 4.5285739031074215 1.3466734082851666 0.2649544947633566 -0.10984344058740438 -0.5959313191641092
Ni 8.613536955137016 1.812461084715183 5.365448896115172 0.4445923304360795 -1.5870977584874086 -0.7797711087333216
Ni 8.015755163482241 2.557295375688198 13.167942622169798 -0.4532178673215614 0.18225033359490547 2.122264653978952
Ni 5.286827292223481 4.1898903630636095 7.513521253667732 0.606200305190285 -0.47606854666748977 -1.5855795220706692
Ni 6.33623050462319 0.8282956914802855 12.96340638643644 1.1549647368606044 -0.19840200365410346 0.5041264812459705
Ni 5.857027447251831 7.586529882989895 1.5722908241691471 -1.6277458710260742 -1.3398134273103055 -1.9074484706328823
Ni 1.8354612702442936 8.739392111751458 12.313199040582099 0.522298524169307 0.03346496452666495 0.34404239933545905
Ni 6.7845064438366185 6.450971228149625 7.596448306430387 0.13535624014652817 -0.5675563675658419 -1.5928853117034631
Ni 7.801718689499827 5.455049255232757 5.685105009948537 0.21192420651025434 -0.09335727000692308 -0.5674447816886421
Ni 3.2458326468893532 4.564714396651951 13.072760884697148 0.4415692273390396 0.3824209991136575 -0.19202309671095316
Ni 2.8216534677070295 5.652980952842666 1.7419801525501597 -0.6568129851408301 -0.7833727100416509 0.6874978158191967
Ni 6.5301569173995455 2.779370298350483 5.662228421376008 -0.5608105642015762 2.150864319993515 0.724904795712745
Ni 2.5768013916177344 9.014139782526469 8.634672964012736 0.386234973543109 0.09576587944841572 0.31059620386187153
Ni 1.4316337703786373 6.71917662392969 9.206836730839996 0.150781830672979 -0.2658885765418518 0.41175111553634247
Ni 3.898796297805484 6.156550267368503 8.216012900056974 0.30628857762545314 2.6638919603838573 0.9250168400794198
Ni 7.311800798223391 4.428023597077128 11.698871054852745 0.1797795034569097 0.3988842868760033 -0.45369480695797987
Ni 0.04652635509900806 6.364787906696304 1.0528973819992835 -0.3617822398173834 0.150483839816586 0.2920042997922971
Ni 0.3502161583232568 6.922962914219737 6.517501704206195 -0.6365472929132585 0.33872715777013274 -0.011057286255426119
Ni 4.074025186022417 1.423223601528599 4.385587093150387 1.3904014246705023 -0.7421594690281348 1.7583661391495138
Ni 6.4597809961825945 2.3910249435723006 11.37605903677466 -1.1159179073707877 -1.3386883125669267 -0.9257735157397863
Ni 5.580467640647252 3.8632319705247142 13.209752777609808 0.5075630177313453 -1.7061899713665907 -0.5899612176236033
P 4.542643511548259 3.4835662817199418 11.206736782061686 -1.1904467318172982 1.5235424023332664 1.1174024623361143
Ni 4.881066847472953 2.4706938690434375 9.412025335471998 0.14464589297857025 -0.8654662342092966 0.6815616528404197
P 2.99467991391572 3.2418459480643076 6.0629752903314005 1.024970532356938 -0.004592761577004993 0.3025386236647177
Ni 8.567973355278742 7.557535709716834 3.07016977537375 -0.13721771883529918 -0.16646633128777139 0.0812237199681827
P 5.70706623760203 1.8483413741405956 1.0681509191821046 -0.2611616033798276 0.31554532033703075 0.8224269957306353
P 7.481704795002675 3.9999227700995372 7.515113145296474 -0.6631924063046127 -0.07373975288631172 -1.0861715293462908
P 3.458317189161318 7.9265144436292925 1.0736728223099419 0.09771760385814783 -0.8127920437440325 -0.5043254846306541
Ni 0.5523083339377654 0.06519414204481706 1.0696266482576693 -0.42513962102810654 -0.763274396629879 -0.2472568203732774
Ni 4.923768202020939 8.45439425728408 12.911218733145779 -1.6333801864937159 -1.7525107088100011 0.7562408868218653
Ni 1.4117746202874417 1.776088266064299 2.4674441054557485 1.1755477032182786 -0.21795678585757944 0.054398886465854696
Ni 3.561497415395546 3.0795993867904725 1.1723459414808899 1.3732290266562737 -1.3062088518819825 0.8404231751977398
Ni 4.007552326592224 6.777796894765096 3.5129581955750817 0.37746776887344025 0.23587120424415509 -0.36342157519301926
Ni 7.702051218873682 0.3851327632075102 10.184820417645009 0.7741748455924667 2.221573256473303 -1.005165838926185
Ni 7.79706289436848 8.210071882437273 5.219207676068321 0.6909898881328551 0.28296944328353846 0.948209219035483
Ni 2.6468706436942977 5.506504619788186 10.961547369917964 -0.04338967983954463 0.9259936021703923 -0.3877763498882999
Ni 6.64644957263643 5.927737916621932 2.929763632698103 -0.4454119981238974 0.049064104516502595 0.7994958408557585
Ni 0.9685912474053073 3.6189839397119417 9.295911105916794 -0.6629790047422259 0.22981471363743 0.09367582968860642
Ni 2.0863073340775387 6.555313079915627 13.309503885274239 0.14586176766354234 1.0592888460228338 -0.4382941561321935
Ni 5.778036911091249 7.212458582746142 9.308356297214 -1.6867619445489659 2.752849815771504 1.703099505366725
Ni 4.609218594025248 2.0267205907996977 7.252078377083438 -1.902954696527587 -0.4716740171442199 -2.4649667372364323
Ni -0.12383950399170919 7.001888399350539 12.271565452222921 0.20655471466822492 0.8679982566025309 -0.7083528048913349
Ni 5.788974777098426 8.316188698015823 3.723506075760474 1.411973751524639 -0.5754704802065961 2.2400147510079425
Ni 6.57383403739422 1.291588196268053 3.849086159448992 0.3832046713572175 1.3664333438906788 -1.6758275570246493
Ni 7.446428550853785 6.139804273702459 10.177911068982022 2.075770109961838 0.1424044052425612 0.4480923731695379
Ni 3.3110881227622477 3.2171916077779517 3.5799170791277684 0.16627812653636526 1.461487541984051 -1.5998023505382706
Ni 0.14799109274791342 3.608185468768577 6.6335611050363 -0.3509751218995504 0.03185648238896449 1.0986758324608885
Ni 8.112867057938486 2.1456245802320084 1.9704402984354956 0.23157334819974956 1.122316868918596 0.6306409547311526
Ni -0.053511906396879735 4.759755969938808 12.909572942092364 1.7774586370045902 -1.5312130315046466 0.7815335999503831
Ni 1.6306248704735242 7.599809586069127 2.450592171541208 1.0088461159912496 0.6623660537485754 0.5337427614505066
Ni 3.8368584244513344 0.8275680492471826 11.643990288929224 0.4835815672150833 1.0519383191950336 -0.49879349906883125
Ni 1.4272567653749157 0.2621008212854898 5.657412786571488 -2.2055385716079434 0.791552674749282 -0.011779766243747455
Ni 7.528857498588415 3.96409823869965 3.870031661737502 1.7139729577461191 -0.6974269020074506 -0.19151916049134113
P 1.645354282216409 3.922604974704709 0.9618305868103869 -0.4037493282777886 -0.18428227642326972 -2.945991856578249
Ni 2.1316014368124416 1.6133956405862628 10.08870101604311 -0.414849294845692 -0.6289684521247361 -0.4981327255563809
P 5.820682507613709 7.431819948166205 5.74319650884188 -0.116414923157335 -0.03754196280951599 0.5029607430726434
Ni 7.520911979951086 3.1835137603607815 9.489565233668502 0.6061252289779755 1.0315522993395136 -0.2736221977406835
P 8.431589224844306 0.2900699761893136 7.0945210657562665 -1.0307020355240766 -1.7545372523217266 -2.409969040844314
P 0.06670611383697314 5.1583329224008505 10.731223976679663 0.6835668561959066 -0.18507186220410063 -0.5066770155819662
P 5.588933567522816 0.2923690654417993 9.974912825452728 -0.9716527947704039 -0.1841380375359216 1.5054775744117557
Ni 3.9169176561011474 7.9376846347428245 10.634681743384201 -0.5401802895457343 0.09430677840438598 -0.16131024100812866
