# total energy = -340870.126097234 ev
CRYSTAL
PRIMVEC
9.25728914550751 0.00000000000000 0.00000000000000

0.00000000000000 9.25728914550751 0.00000000000000

0.00000000000000 0.00000000000000 13.54897840558037

PRIMCOORD
 96 1
Ni 1.0275775964684797 1.5402277481525166 5.483948589358334 -0.8679391212298214 -0.6186531862416571 -0.9847217121392203
Ni 0.9790879165500828 4.293373276363858 3.4649616246461132 0.9519033800576187 -0.9883724215179301 -0.11059394560018374
Ni 9.150034075384191 0.6299233405237155 1.5260890906230458 0.4586719484575972 0.05045738531960342 -0.03604300966648632
Ni 9.088334244025635 5.889283618008005 2.0494730689327763 -0.38749738519530036 -1.0654368679021007 -0.9391172840365439
Ni 3.492062338269845 8.349315603787844 2.8427653432724336 -0.5164418082782138 -0.8422170338733689 1.233703228513088
Ni 5.984754039733554 6.094008564818877 3.6255978067415677 0.9369331319010314 -0.8543706385167673 -0.16761561440086617
Ni 7.144581267228039 8.843608551333244 7.47078498928312 3.302306388412841 1.3770694834482864 -0.1930803343308739
Ni 4.248160676760679 7.830037233161163 10.229153479962953 -1.2735424719972133 0.5841993754391617 0.7584306953843325
Ni 8.046630024503418 7.210298762023896 8.838729960016522 1.1081416058594786 -0.40385525772803355 1.4672182738202408
Ni 3.1563374944514826 3.9612680325546767 2.1488139632001126 1.7452643116602333 -0.8955648533668897 0.7364007121674865
Ni 6.64313243526551 6.698685426710776 11.516847937858516 -0.2257775674535789 -0.20200077674895534 0.03160862804421653
Ni 3.495543078943636 7.966656304607459 0.4826537580529599 -0.4457745236696387 -0.7906389046857609 0.799978436919132
Ni 2.1832575584792995 8.118087038495421 5.6268496571377025 -0.8894106608400361 -0.25424585009660083 0.4776374338165064
Ni 7.016654790177194 3.781695140027555 3.0533297880009314 0.15928806837177728 -0.0656916857708546 0.33768431832791523
Ni 2.9001883071009584 4.4828792400159205 7.629728013215711 -0.47979433225850915 -0.8596766241107131 -1.9149200964195796
Ni 7.651093836287811 6.8671680869847025 0.417552798706237 -0.10437007617765896 -0.4693541107617916 -1.6513030895207241
Ni 6.700490598070854 2.304528044720422 12.265564514079987 2.3712202022108904 -0.3589419421551108 0.8385059035703688
Ni 8.506939464034225 5.3876496402649545 4.5199259849692295 -1.3386224923259977 0.18510168700077154 0.5620292671000257
Ni 5.348870856534874 5.604297975341366 6.992167409245512 -0.08471296406836379 -0.6527660687649661 -0.2927280653321991
Ni 5.487702420058394 3.4318992168896116 0.7513826754609693 -0.2195588402373767 -0.41984109163332856 0.06121076718136555
Ni 0.9084048119206578 7.243689803540822 10.209615971473497 -0.259040957492399 -1.1724672645207421 -0.41528381127994934
Ni 6.91794431729253 3.7785569190477273 10.187706745535568 -1.207454065008572 0.34645460832137753 1.5725892804585884
Ni 3.522898368015584 3.889875819585857 10.822978021929625 -0.9710023056705985 -0.06719063891388427 -0.5648927046907497
Ni 8.611861577855361 5.368857343542094 10.365564262406163 -0.509246318971039 1.2072782015523402 -0.2383538614566927
P 9.116772635913629 2.366487080171707 3.813359697141124 -0.6400162252984654 -0.003910390797999717 -1.1489768947082857
P 0.348819279145696 7.920879010373692 7.514276658856358 0.3234568618746236 -0.5374418075686487 0.27698185824153587
P 2.003971641911985 0.10235877048982565 1.512703050691392 -0.01500135850483868 0.3930121443659425 0.07339908171744133
P 8.781436598234361 7.264287271623761 12.113355242184936 -1.4589190099259262 0.7940579576696388 -1.3029492072941042
P 3.7576817322940075 6.100386836957817 2.9815071110924007 1.746878193114572 -0.5917036542360067 0.7808378594349391
P 9.115846907011024 1.8087724455089078 12.336059695742183 -0.5303576470283576 -0.2630184540829083 -0.36859514897415874
P 2.229414401563134 8.848163137534057 10.221132039021889 1.629708908289716 0.8207138696942705 0.6592820155066129
P 6.777613072946791 7.0667830102532 5.560188844590091 1.255086836395187 -1.529653914547643 -0.5870640985814665
Ni 8.848626001985357 8.508911266596773 5.631849518940666 -0.038086265348760216 -0.4200845751027023 -0.4395797077128365
Ni 5.364052810537579 6.525648180236038 1.3769828620095241 -0.337623897403625 -0.5466612692843876 -0.4204614988261468
Ni 4.944503214588425 3.736908375719574 8.822376958952022 0.02438871325700961 0.22230812084773974 0.30032490384285054
Ni 5.285152936168641 1.9049649357784881 5.002892639391269 1.3696855322793895 -1.7771763298774814 -2.056655243509258
Ni 4.522824442163282 4.054044583173648 4.547443276599133 -0.21779737746157973 0.6651657279808997 -0.5074051519972422
Ni 5.404942256165597 4.41090381783846 12.167415958639204 -0.26325962355943694 0.35983205806954804 -0.5805448094057098
Ni 3.9955848029742067 0.9647668904267991 1.432709890488479 0.7853252057823314 1.6914845468356159 -0.6798086747050551
Ni 0.4158568633566665 3.736399224823142 6.519361555258454 0.14506318302164695 -0.06239398885618932 -1.048056467642124
Ni 0.9464652300223182 7.715867087603012 0.6981153086762331 -1.0077901639229094 -0.20820536289777045 -0.4104902465460478
Ni 7.819919016255701 4.328226969546898 12.467146611266518 -0.22901561477490234 0.6428171850823703 0.5233434204940535
Ni 7.781130975236594 1.4794721602746168 5.674609862680847 1.0772595715686415 1.1585876783251723 0.274834729991546
Ni 2.2420135719275747 5.9602407383926 1.5116597542181576 -0.5951026526152267 0.43036178865899427 -0.8466362459869871
Ni 4.647085032759816 7.099729701896876 5.206303051160444 -1.2419004196119001 0.9025780514599295 -0.011538596767218837
Ni 8.377642908207525 0.007676144060392276 10.543259776718804 -1.5032977931516174 -0.6762428117306676 0.548513492001778
Ni 5.65160272226443 8.759968944982973 0.23949439866377534 -0.7352367737663724 -0.03259233211372451 1.0971701944496393
Ni 2.3585258116093124 1.4146896516703897 7.276844784187584 1.0289698833243182 -0.3509000456872408 0.45745478822104446
Ni 5.698851925453337 8.55183731581052 3.115682258235823 1.116422100700716 0.30840845218193336 -0.13976773895066252
Ni 2.007322780539411 1.803468018896987 10.969171907415555 0.33627586801616277 -1.0897299361215103 -0.7749670024764589
Ni 0.5416699013228667 5.570268180881643 12.663363183733557 0.7148774933837301 -1.013937157360912 1.5321535410410452
Ni 3.6353188859478123 5.947086130686598 9.09056525068091 0.31131816962956066 0.6566885437478239 0.47848461230815015
Ni 1.4187721161308733 2.981541363061797 8.742492109030714 0.5670136076884945 0.8047735443149302 1.2431525468514462
Ni 3.217972524786856 1.6847618017160773 4.016675684562233 0.22171059647305685 0.0930345965601817 0.4822363660410985
Ni 0.6814651486339978 0.548205547375251 8.918194529016047 0.9124413174072543 -1.6890972775503619 -0.16944392585885656
Ni 0.6716866742357919 3.740889010000771 11.134144203690806 0.5537935094537946 -1.6010562775500299 1.481678415109629
P 9.01445182030881 1.9694697257119342 7.709449934850162 -0.7232191804802061 0.11629845218412874 -2.1256500255114164
P 3.6001874740939908 1.8666305019216571 9.144977744118167 -0.24975464709446663 1.0656343286248873 -0.7674886918215428
P 4.785629620323529 1.5399500294817354 12.619368843366205 -0.84734998422456 -0.3996597315894472 3.029394329365305
P 3.9090013787136555 9.19035882638162 5.132515977520588 1.3705951885778525 1.251867558126941 -0.3207356062887186
P 2.4374627151343544 3.321209812005253 5.680165161825374 0.87346673591627 0.15498455590041693 -0.523312310145802
P 6.359266924571023 -0.08455978087945877 9.583003037505492 1.2252067610063029 2.014599194879472 -1.0318222651714488
P 4.533359237074916 6.2923922686469105 12.816683330311731 0.09071648994996635 0.1330874987170095 -0.39159340964154493
P 0.851553022825039 6.631153503265815 3.7911662724300963 0.7178646010365121 1.1515623960472747 0.6887314311159817
Ni 2.5311927665230085 8.425493835183127 7.94700400573408 -0.029659474737645693 -1.3344452210198567 1.6586528450175757
Ni 1.7178103235390398 2.082242020627152 2.4187500310971175 -1.9766283720626536 0.18318955757972322 -0.7081003225608966
Ni 4.284273361251261 2.6525465683653655 6.85072899313226 0.0752801007902381 0.48458095501387516 0.5294191943744881
Ni 3.2780245586987764 9.295984494168737 12.188362426518424 0.5720987355208857 0.49964916220090727 -0.36918727403220286
Ni 7.704776855349817 3.8234269989569425 8.004695430944361 0.43611925996806183 0.12102413979457222 -1.904745726989739
Ni 7.691168640481538 0.05228516841907329 13.067840061690513 2.2463957148336218 0.31323492703629924 -0.6181780463774514
Ni 6.999834296016879 1.2657491285304339 2.1447629735223175 -2.0105080555292343 0.5690756324238457 1.1225279564881376
Ni 8.096480525908643 7.662008180049512 3.4362510684607535 -0.02406989646501016 0.14646366291359936 0.9129231421396794
Ni 0.913053822469535 8.83267569299349 12.080580736117145 0.2750743568061779 1.7751153335833947 0.5111450786556487
Ni 5.748517281078041 9.006231347653687 11.471649224188877 0.4566389771879684 0.3381810554586756 1.9982472358840102
Ni 0.766264693299231 5.4973670298015795 8.011835577970144 1.3165948231019968 1.0277563226321913 2.2547386874816784
Ni 5.8320735718270775 7.541867083069566 8.54120809655082 -3.3361073961226864 -3.850159106902169 0.09235762509781514
Ni 5.232590049078786 1.946419076037095 10.668099873608368 -1.1313010746950776 0.46806393119545836 -3.2777369266035934
Ni 6.346917701010287 1.690010684593842 7.9899818957663715 0.36935156752420906 1.2572758736267056 0.6759090825403327
Ni 3.012108931425781 4.121196957768542 13.188318123991005 0.4259752295555244 1.1609836893611747 -0.1875403783492512
Ni 1.3013896912806877 8.957186230393727 3.7000495537334936 -1.1858290305396288 0.19241596127399765 -1.049316051080838
Ni 2.4309455836600224 6.813512839789775 12.35516396310522 0.9267821595099588 -0.1729426830407344 -1.2583444241005362
Ni 8.34668653370445 6.027615287924117 6.769245409396154 -2.1945231943340464 0.39286507726511694 -0.909435440701395
Ni 6.22988705314309 9.07560547161483 5.5546205852409285 -1.1633640166678934 -0.48757346198329576 -2.7128493641191667
Ni 4.761579183433877 0.06425947177425588 7.369533390560808 -1.7017373349118756 0.602245434307595 -0.17168464226391722
Ni 1.740990575260244 2.2150285744166682 13.465949776255357 -0.559320609919611 -1.3516099057246012 -0.057359511756075406
Ni 8.595485433568296 2.3229963363273716 9.763380388448976 -0.779068426239342 -0.4637624756066271 1.1904647295394273
Ni 2.665691918782342 5.721745201214734 4.885043647174171 -0.9856236551281993 -0.852504788952622 -0.007753675803489871
Ni 8.035456476648987 2.8326378690779452 0.9152320625773622 1.335818190107983 0.8339905321985185 -1.152320614369538
P 6.561446116899734 5.421485031655131 8.797243419246323 0.07909176122684444 1.4110769507419827 1.218221073717089
P 1.7815282439052724 5.123002261588526 10.033628426986159 0.47135879989664625 0.47726642363033284 -0.6092365209134475
P 7.162873670343494 4.92403534855185 1.149140613042825 -0.3906819535708691 -0.9708292704278443 0.10608474487592053
P 1.1101803864478337 4.001222491991065 1.0361665092268395 0.2709505644457914 0.3569146273124369 0.47300713413334666
P 6.466929195943867 3.172926556386146 6.1896882012764145 -0.45969267641262773 1.193151275232655 0.8875196144649102
P 7.422448054633652 8.502468193434648 1.6322720472095287 -0.5036631684563068 1.1899291687509315 0.4627075519795515
P 5.108746036488425 2.609213198434473 2.6915317896407274 -0.7749222652814525 -0.5354517737218133 1.4118662794124974
P 3.1778699487260513 6.583802469897621 6.901808862520143 0.9318310347877757 -0.7828381776944195 0.8452234247998605
