# total energy = -340868.59217547084 ev
CRYSTAL
PRIMVEC
9.28513143745670 0.00000000000000 0.00000000000000
0.00000000000000 9.28513143745670 0.00000000000000
0.00000000000000 0.00000000000000 13.58972841418686
PRIMCOORD
 96 1
Ni 2.237298777616923 5.922177357797856 9.985433389190797 0.7500566123880243 -0.4321291649720622 0.09005983020257392
Ni 7.598784205447875 7.864181109270681 10.068221475601074 -1.2202671576128403 0.3170910675575958 0.6312469637462677
Ni 0.9233227272519949 7.015195142051063 2.6464907935952873 0.11597166497232932 -0.6454643928972303 -1.0412733832820198
Ni 6.913931501667213 3.975438189435634 1.5921725074858404 0.6238612128051578 1.3450319953967675 -1.73896459469445
Ni 2.9777972724135746 7.507288523039802 3.6720261016352405 0.15210234925661548 2.2734128668524134 1.0766111393513653
Ni 8.270507733774403 6.022874605181207 4.409880191078755 0.8470332243150895 0.47823958617687956 -0.13890976182574138
Ni 5.879614316580218 2.8335341896477715 8.288878365765916 -1.5135847768999222 1.6601505126090246 1.7183024383594083
Ni 2.137585754136073 0.31842057380043454 6.685575771563762 -2.0991596925303724 0.5201323697559236 -1.9271837442782809
Ni 2.501850734504563 4.7598739248609645 6.950004236207032 1.6600070450526248 1.0757274511948312 -0.09359098328428397
Ni 2.1232123711070803 8.227963262819076 10.859442784874975 -0.1553555660865905 -0.4026458108009646 1.403317875621854
Ni 4.433315862115691 0.43022005250663314 3.343956419537823 0.3170859253512732 -0.28721587726471826 1.0867477135647348
Ni 9.046085454077215 0.5722974153983893 10.747259830252046 -0.231102322100602 -0.6820599326330768 -0.9732245101328982
Ni 9.28977372125804 6.709017942192507 11.376396176019933 0.21154805411775823 -0.018444322748116623 -0.1847921261801527
Ni 4.8399488959475505 1.9527930738757258 12.683551369037898 0.5340397238656351 -0.1970012666518349 1.0520509335134978
Ni 7.549897989913218 2.819439360553449 6.862568013140222 1.2068814803345538 -0.1374318917286343 -1.724013886921889
Ni 0.23595096738879856 6.793763334250401 6.74380747160661 -1.2042517560211905 1.3207767223938285 -1.3517060649828334
Ni 6.711413506030674 0.5843625148220801 11.783136917373197 1.3059926221061187 0.6307491981742427 -0.709080941306611
Ni 6.8733461933857365 7.599619867251885 7.804159235941018 0.04824957903500722 0.5636074102204228 0.20696866227719193
Ni 0.37811561051341813 7.0705345237389166 9.067134846407141 -0.9014904748227055 -0.0317945188027775 -0.3705995809986972
Ni 4.118002093199947 2.9131263339142617 3.8685746864517947 0.017520011161634343 0.9127483071247119 -1.18970676832748
Ni 9.330814000966148 2.4456106950946084 8.673603132635948 -2.8136126967821733 -2.263468868265824 -0.9968007547909414
Ni 8.716695426329458 0.043821176489232706 7.9627520616193825 -0.07296122284907434 -0.3964533088370076 0.24620112541525338
Ni 8.708013828698899 1.377709190617517 4.56169115696101 -0.9575333246498864 -1.5120796531093055 0.3647251244957912
Ni 5.491337987043139 6.042614794018184 1.0622969993115225 -0.11356408397210119 -0.40912601920866964 0.2524216524036685
P 0.3565378942207329 4.814944037745304 2.489760565226752 -1.1347394109526652 1.527182570189015 1.2586370156402904
P 5.389015841707543 4.890979976779168 2.997119630348545 0.46298780222413166 -1.0085275563095661 -0.6383308671762427
P 2.401970578662911 3.4016727948015313 1.8518720548315222 -0.5535163445330079 -0.7117248066873614 0.6831719347503331
P 7.1291979823805045 3.028995485605995 12.814447576991984 -1.316848590984016 0.6618459195790473 1.275901716258009
P 4.115290834902489 6.046143143857342 5.580241260832546 -0.9762226735292735 0.525921722744191 0.33266449651582064
P 3.082709969341605 0.9814197928930859 11.396101081358518 -0.7674910058143879 1.5031630673459662 0.07304221259865486
P 4.8466063349861725 1.147317231251624 1.4213363078655958 0.6944845315496749 1.0186664445157811 -1.332726438556537
P 8.558801771027117 4.965623146139682 9.745941072779223 0.6197276502527586 0.1359938737305271 -0.6534731221343199
Ni 6.978453878068036 5.305078256060194 11.210194185359489 2.7849680364622875 -1.0431040087328554 -2.697900456118818
Ni 0.39304331587240515 4.851425318055971 7.698811994874902 -2.077091656986739 -1.353017070484773 1.814397933233101
Ni 1.370216089774883 0.22873549196771947 12.733548086258773 0.660365735489095 -0.15872911054451372 -0.07179754155827635
Ni 8.693296895817145 4.800245675125862 12.816663009285728 1.082803384205006 -3.3554850293183502 0.033786095311509556
Ni 6.3411410458044575 6.407390456600236 5.904669314490706 0.6583260793512468 -1.4410513856168858 0.08102754479697657
Ni 6.005929240822091 8.437575098658558 13.459919254002056 -0.800392384528099 0.07269537078219739 0.5957194602636192
Ni 1.4091672149729615 0.5749966030253455 1.4656115272683414 -0.4120740460934 -0.2993879938508779 0.7231734148439353
Ni 0.7745312860215663 8.185186663584858 4.810397109018367 0.44903108293372346 0.7834601275491345 -0.17912387215078185
Ni 3.6345903098417693 3.4309673835977024 11.113094926298963 -1.013407767220003 -0.0473239818969443 -0.3714413601737022
Ni 3.4307259701876545 5.566993235699621 2.341904136703701 -0.10568468122402443 -0.13275608351951976 0.6032401941206965
Ni 1.7177771191943043 0.757996324459531 9.242781672479143 0.5758600023355308 -0.21706718416377455 0.04883193390103848
Ni 4.499667409354182 6.544373996539986 8.012680068869706 -0.3254250413445879 -0.15358381889814837 0.47900088982293637
Ni 4.982141394465637 4.0081589916282505 5.943249962955672 -0.05049389498449369 -0.010536637865265725 0.8284500619962635
Ni 5.344781476881883 7.001388152022566 3.8716183524446266 -0.523592303280066 -1.037345508982523 -1.4694474202610757
Ni 7.94190694217488 6.247649060197914 1.8716456701406585 -0.3264506543956249 -0.7287388247468547 0.5876215137468331
Ni 7.2810934429562755 6.455719564265552 13.080968910197743 -1.0316101491606426 1.7464817290071017 1.1363399226705655
Ni 2.224234598080881 5.153349927845224 0.3963376804064405 -1.009495062429158 -0.038152856920637516 -0.15839640979544337
Ni 0.4999216750660933 3.864694430141836 5.423171196663713 0.571807429532712 0.5769239248236709 1.878834406440616
Ni 5.339275394106564 4.699214163020906 12.702359330706845 -0.4022557744513976 -0.47866638930165306 0.8096704673959152
Ni 7.129207267511659 1.3660563510171382 0.8159624697513269 -1.4119020177464392 0.14916409256389795 -1.5383432147915248
Ni 8.083690894922118 3.5171334007224146 4.003737412171915 -0.8928101734398881 1.0122988504265404 -1.2380741038872745
Ni 2.5567537150281 2.3811997402676544 7.585134134135909 0.1648748184309354 0.8341519974770473 0.22447581792301988
Ni 4.142691256942901 7.93863857600808 1.7154038396709124 0.696268362922975 -0.060251745702205914 0.49874156278497334
Ni 8.54701893959056 2.982866954024576 11.181288643558739 -2.9370336189436963 2.5582077933804652 -3.1307207336206337
P 2.472268306642566 0.4901091484607704 4.203792062512854 -0.5809117058268253 -0.8875666656527617 0.7871298630912379
P 1.8220769974660598 4.42852473443936 11.970212811384727 -0.39369348670368326 0.9061290020359813 -0.37630280203106165
P 7.252225970193266 1.654777504303014 9.838011504805833 -0.15988842095993755 0.04835859380904575 -1.103927567778131
P 6.262022443226907 2.3524344039473575 5.03591808857999 -0.06843325307173376 -0.7087726660375728 -0.3720643384696818
P 8.071053831419237 8.24448151114503 5.806211640742103 -0.20849332645183447 -0.20306007125140513 0.5422387147366597
P 0.19967210293732487 1.4703933698135165 6.566271121344427 0.9112282709357598 0.7793653886544707 0.9668263199160382
P 5.575340568608578 6.752073095361396 11.630184808871908 -0.8630673949598168 2.391451955876733 1.9919313209683114
P 2.32100423498538 7.913364449002319 8.857485870043037 0.7835922822516247 -0.19895427661314768 -2.56305226595696
Ni 3.59555561846329 0.09138426083420453 13.549678616884018 -0.5844053208023806 0.21525918442075828 0.04919754477057334
Ni 4.786745094425503 8.082641675101526 6.081008811346922 -0.1063310565587717 1.1389133398246967 -0.8929168742210816
Ni 5.936365038203736 3.192543785782146 10.98062210307464 1.1556869597386097 -1.3144235264822912 -1.7620649281573395
Ni 4.351606707945706 1.3857779695918029 5.774574413355355 0.12512324956461032 -0.031734354988803413 0.14680870495784393
Ni 3.982290616228526 0.05443315288705961 7.8407157258140465 -0.2676747219079971 -0.9110686054294439 0.5948679108966013
Ni 6.541040634455097 8.871608554530827 4.4299527876111044 0.6945747772706361 1.3039694210285027 0.16245772434901054
Ni 4.2228683644722 1.605129908013592 9.42569968475916 -0.24943120231677685 0.5321083111708771 1.7758262436074899
Ni 1.2733907420834496 2.433735012346493 11.154136134520185 2.801720830440594 -2.476914910737244 1.7477228005030545
Ni 2.460132640222092 7.418578379978433 6.547965485271003 0.6493845538872429 -1.7848945244573455 0.27729193328278695
Ni 6.274817353959434 0.7978453218403637 7.604879894051578 0.24094836165674635 -1.6618271289804991 0.06215950424788005
Ni 3.3869744321820896 6.2858759451658495 12.174752180073858 -0.10001359898117614 0.5977601448427318 0.30362054387498677
Ni 8.36225411472368 8.39197581955301 0.8819843948337911 -1.1041101161025824 1.5796351315617763 3.8130894557433814
Ni 1.438276101146019 2.4627974728637723 3.8745942369800224 1.1225045594493699 -0.4810994242231779 -1.7223748086565693
Ni 2.4873009339836125 2.6209139713138505 13.26452573950127 -0.732416530708758 -0.3160505421082234 0.6282140904572149
Ni 6.337631266227611 2.269378905759798 2.7801186871353742 -1.316506891373881 -1.969912650605375 2.3545471124305837
Ni 4.567291019561002 8.755674406921004 11.407407585566789 1.0373020573390974 -1.0820665060389818 -1.0923444909262219
Ni 8.903818674509882 1.7376008742116815 12.936443058220235 0.8854246796090945 -0.6702439138347553 1.784825618892623
Ni 1.5115636413578026 3.6785182653392923 9.476538563375854 2.5982853781276414 3.250507144353363 -0.5618024958012002
Ni 4.816931055812619 5.36733506045903 10.314766777638503 -0.8412063332206674 -0.7385838358617345 -2.0893589043898664
Ni 0.19057081737852713 2.809996382168122 1.6292861052282097 0.2744642340260047 0.8608775863973497 -0.755890445460982
Ni 0.20850040564014563 6.6434277757087825 0.10221629484042107 3.3561815411647427 0.9601221684229851 0.993598960024192
Ni 6.67498793650694 5.106097895393968 8.232656896618272 0.8276697321868133 0.36151767330208706 0.25124485848674794
Ni 2.1121444947695096 5.615387339283027 4.461521305027301 -0.8693154327520577 -1.023178987674154 0.8277905740353937
Ni 4.275710045879176 3.60477575370088 0.9847949380681756 1.818192624388843 -0.41089956616932466 0.6832416116460039
P 6.347250662104896 7.85337321660547 1.996888161734051 0.9357429682476723 0.17665201357152155 0.6542118000725571
P 5.2955888520190895 8.437407966297753 9.255623937380566 1.482334817746705 -0.35052517884632534 -0.39841377499748803
P 2.7483152559009385 3.1513827993690158 5.5552094757499475 -0.09242910176569888 -0.08516265001127268 -0.3624255298283371
P 2.329323712500869 7.609731375080421 0.6902343657984925 -1.3743117181974913 -0.5429280274942004 -0.457927871202721
P 8.687679391467958 8.700400021151241 12.577442747217015 -0.7060817494689711 -0.3004326330653084 -3.7009669893138133
P 8.500574713549847 1.1006130215385526 2.3687028822452243 0.5154131099033833 -1.3128011603875198 0.782759244827368
P 3.689363298529127 4.158030293612085 8.801400892323382 0.02256065890933534 -0.5195142765559504 0.1079739914788334
P 7.896549076479382 4.905622628611677 6.305877974701415 0.5199498214314723 0.36692933123596166 -0.2535022870623569
