# total energy = -340856.0566665845 ev
CRYSTAL
PRIMVEC
9.45152119795828 0.00000000000000 0.00000000000000

0.00000000000000 9.45152119795828 0.00000000000000

0.00000000000000 0.00000000000000 13.83325664761853

PRIMCOORD
 96 1
Ni 4.458868640432138 7.552521723234412 12.604102832107019 -0.09469218676826273 -1.4328868475282224 -3.0740284231349126
Ni 6.48897982576648 1.1905041844832598 0.7386949971285145 -0.791558845396869 0.9518524722150251 1.2372256398440498
Ni 7.859932456888363 4.544735712384364 11.527751287680708 1.2317268215130075 0.5498910890755949 0.48328383346900644
Ni 3.4146267496704734 3.323684210724484 1.6219075371275093 -0.8644714743961951 -0.4750876708114592 -0.30751267984054137
Ni 1.9057102606194054 3.8442173005095013 3.859852007215431 1.4663980919117905 1.8987200896209495 1.2803988327974143
Ni 8.690683382184218 1.005178752800349 3.3028700702893494 -0.1299926618417697 -0.998077821731152 -0.05307039746241828
Ni 8.512607267417913 8.73033251447256 0.1280010092175894 1.2157150194657835 0.4653025664002374 1.8695668650957609
Ni 4.184793422768886 9.167011706364331 0.10104243471793789 -1.0023934183873704 1.8410304482189648 3.3137822502629253
Ni 6.391553543137581 3.1499841503680717 10.168605497096273 -0.5687897257523107 -0.5274376451680852 0.1413911334866984
Ni 8.737288834225652 0.7447146711105038 5.7350886725251655 1.7131615175884174 -1.6581401670472153 1.261313276920873
Ni 6.93157567005694 8.832512912367498 4.560727686599352 -0.22358673044984717 0.36372445114541874 -0.16161388829147652
Ni 8.801200021957182 8.025589272530263 2.70340543495811 0.277304017467645 -0.22536104874145058 0.2561260978384492
Ni 6.5246782221080935 5.539763531197185 13.51209064516142 -2.4687655421572323 -1.2957120661157169 0.28130696797945104
Ni 2.224141468230021 5.204603130702097 1.8340960829438948 -0.7762420125341406 2.091009809729728 -0.0393353072645129
Ni 1.3405376352449145 8.085398499972607 8.888240972867742 0.5505341219762325 -1.0199324557123983 -0.2521216046647464
Ni 9.406796804375116 3.979251186803552 9.13111199261682 -1.4671208290104283 -0.4637336792512207 -0.3826606259282893
Ni 4.1913338755802165 1.9667765404084347 13.3159895339262 -0.28554003222419205 1.0737361317964151 1.063938171869387
Ni 6.007283037429089 8.848400919847046 9.913963552591081 0.2543836612260458 3.04631064550467 -0.554313900733639
Ni 2.385743581189752 1.4467632843006182 6.289622665407699 0.7621590520785132 1.1022003006743792 -0.532425842411296
Ni 3.8405501102048825 5.601661544869736 13.5815054538063 -1.28343350585868 -1.6220411073318128 -1.9435282470745756
Ni 4.850341205450216 5.752592890164738 1.6944082675106833 0.42945341791211195 0.2685188150758472 1.2836980723739762
Ni 4.098897996252449 3.8507577533208326 11.924944858604421 0.018256375107026622 -0.8950909990542648 0.047854143368801456
Ni 6.352622726475917 3.0234188272516973 12.715971984592846 -0.20284486991680548 0.11820132563379643 -0.32186329213525855
Ni 0.3599432347676183 2.6821149378442315 5.639708644280159 1.6461305441808487 -1.5192049513001773 -3.2782112951368507
P 4.7627445050811215 1.6741290831869964 10.762577853339849 -1.0304986612640188 -0.05964239425298115 0.3887441131182079
P 4.103406371961993 2.8839521774193315 4.599308796969081 -1.7841728157999726 -2.938023750771108 2.8399616190893475
P 9.22709502792738 8.23103699328156 4.943494455252522 0.558079024203026 -1.0210562849041964 -1.73359715973495
P 2.6798749272715647 5.797931838338082 3.942090640100793 0.6791944381598238 1.0745563137048655 1.1345458068846204
P 3.613269375011137 7.3253260517333 0.9711164148137088 -1.6716016918687597 0.4822417653577372 0.7575032984740567
P 7.162013213399506 1.8341716951151241 5.285756728930318 -2.6811291501977506 1.6325031832054016 -0.39180655409361553
P 9.296573161765664 5.432384796530235 7.283610816866118 -2.140203240735243 0.9511703585463361 -0.12118329108025581
P 5.681678125073098 7.698226377193192 6.336945487923671 0.7226905616702457 0.9753531264401268 0.2270872874039379
Ni 0.08538787981706043 5.639429824398751 5.141393245858717 0.014707224303187574 0.1658685498027724 0.25564787265045
Ni 1.0926903894768114 4.8222323807957395 12.577709458587304 0.613152311028086 2.4729412708014764 -3.504718798777919
Ni 5.75905773080484 4.783632367383204 8.083117847857904 -0.6209021301768338 0.11500672995589871 0.13096736705021314
Ni 7.6205348712551295 3.6718499046710047 0.7866255524707411 -0.37603257908881044 -0.008282808834082509 0.659196140661026
Ni 1.9670033769221225 4.044334363189136 10.187529333250676 1.5561900131649586 -1.112934913483064 0.7661105805270935
Ni 8.301318506439156 3.876295764153514 6.425810582465137 -1.4922304795938623 -0.6406320045055934 0.9290717268750839
Ni 4.4419598686409945 6.989749784296451 8.15554863698269 -0.3237826206451585 0.42355119349506404 0.1126971079861156
Ni 7.041553573109895 6.183242011400975 2.2833864398445654 -0.6006585494364494 0.5859448973753587 -0.6279562088101378
Ni 8.455009695984025 8.028538147208204 6.843671795242226 0.313076547081564 -0.7134104219199005 0.8195902976127885
Ni 0.13072115707756193 2.1848609452764216 1.2154675428145993 -0.7057477631683201 -0.48337407918996755 2.011365004212891
Ni 1.3931448033776708 7.656119849339899 13.47803303293548 0.32837229689837 0.2269258221254092 -0.04400571615698873
Ni 1.483132738661891 5.836219951544297 8.292857504478603 1.3869705446120821 1.447299680519443 3.307158317188504
Ni 4.479038187107542 0.23388640350276124 7.8570128819267735 -0.3873117515470556 -0.5267020525536412 -0.34979961353421046
Ni 4.939686437278988 2.3631733480778188 6.695850000489027 -1.384906462994202 -0.537588360448842 -0.7368431990215439
Ni 8.076429006160536 9.01300861661314 11.75143477382822 0.6187678574426504 -0.34864133156005117 -1.6187547232710573
Ni 1.8519027492683848 1.5634423160287667 13.536090893461727 0.2814447791088959 0.016105133091978717 0.25604176565475906
Ni 5.65625353249726 2.0330506084908793 3.3144065973146537 2.890520820094138 0.19624330543988786 -0.5587382550535797
Ni 8.492872490727077 1.9006536966684489 10.863948255850492 0.9603085734021782 0.5029777123535079 -0.3471935433699311
Ni 5.7679610639670855 0.5620422814855995 12.457677972217278 0.5212855095237603 -1.0681298413532314 -2.4041591190307563
Ni 6.141022065290839 4.053133729615941 5.620867036361968 -1.1028549035392425 -1.4342292204887301 -0.13087969243241332
Ni 7.163544359866899 5.926141726178693 6.4395890103673885 0.19541695288385055 1.906261392303317 0.7147689928303238
Ni 8.90443899024933 9.139810227764606 9.275171136699223 -1.3103182460646658 0.851286857385121 0.25358559080478266
Ni 7.02768819121073 7.271660313203335 8.568277673637594 -1.869977213160302 -0.4986603159250767 -0.9407805306715796
Ni 1.5183396558905145 7.170765322219293 6.286371342044841 0.24509323706305533 1.3255093519828074 -0.23148233114784003
P 1.3166914467434874 2.053825052536118 10.23630579975853 -0.7803940870293011 -1.084159384012268 -0.36064272689630145
P 3.3109246568295467 5.008191064412696 7.658671760118886 2.1827580833783187 -0.45840506794945574 0.18382924804625117
P 1.3292619702103514 3.7604768208730985 0.36803279193700855 1.6270699280049723 -0.9921064346390656 3.1507665965279155
P 6.526464559653385 5.31664146542105 10.074913510573959 0.07923111501818612 1.2416980737931067 -0.6025210565664849
P 8.114291800903587 6.680420391797557 13.279179638667516 1.6017838997446736 1.580706510249084 -0.6232199796767331
P 7.102856140934016 5.434407422110618 4.365277785188844 0.8436393681421921 0.017313808688099213 -2.138277998688072
P 2.3951951025934095 9.098922946172385 7.285934945979278 0.41769704870713226 -0.7542153717514042 -0.4836602429718187
P 1.10276571129311 2.108993582969265 3.5439556976452766 -1.8819665243116943 -3.4182243173291 -0.592399908972083
Ni 3.9196404413106865 3.3691271256332675 9.05246966362555 0.7023297386257065 -1.5893811552049466 -0.6965028475312843
Ni 3.7852303554292765 8.545621431680887 5.295425635326259 -0.06045923372732168 1.0715164984372771 0.28019650852409167
Ni 6.6335124910712056 0.29354818721120707 7.096032142480575 0.762352656146558 -0.4368203998001444 -0.5333100447884621
Ni 4.933533496845207 4.33102736192627 3.581623791047412 0.5017865202588843 2.900224420535147 -1.4226980799206788
Ni 6.299240533588061 8.011856211930748 0.21516010414569517 0.3156671906268757 -0.3272494961478364 0.21264128718193703
Ni 8.32231033547668 3.2427319299021593 3.0370224020079815 -0.13659191232584217 0.8846186387680314 0.9185713415643922
Ni 5.166626917702202 8.330259064977154 2.418247363296929 -0.7558184545724661 1.2447790267112755 -1.1755253346207757
Ni 3.896531471478744 0.7481361218586278 3.5635855624485324 -1.8907463273868532 -0.4923796251226875 0.24590699121360227
Ni 0.37946346192259156 1.6634961216078819 7.81100382088591 -0.009107104507590768 0.020633359979635432 1.3032610821075683
Ni 4.202798571042853 5.352009058513534 10.3078651586099 0.04034960746164019 0.034002582197689826 -0.6388846827971837
Ni 9.027507250446352 5.540141592053332 2.9799049678614 1.3989269456430102 -0.6319578737703633 0.02033871155735207
Ni 1.9809254679497097 7.62314349116254 3.0977361400486543 0.35634821328600563 -0.3212536835757177 -0.9896880550055601
Ni 1.556864057131821 4.003503790725336 6.900388484881292 0.885141858261353 -0.4490511375383815 0.12387112232506406
Ni 3.1131988290650376 0.21170368276837773 12.031820772332695 -0.5686544857260271 -0.19735556466746013 -2.1687185745661166
Ni 6.557730192456682 7.2427670122723535 11.41016869050637 0.5638007571781516 -2.156832621761808 0.8515455103631463
Ni 2.7332193140738066 0.41461177971851204 9.33253809101086 -0.27236132875038904 1.7394623602664752 1.613479590915047
Ni 6.8550561527729315 2.606247575537075 7.8593370110399325 0.22883100956792202 1.6789295929887407 -1.2481556564929923
Ni 1.5646521107684346 9.382468588282102 4.5284961083086 -0.42278474764268476 1.138516361496594 -0.019148547903992827
Ni 8.728101955421296 6.849791655351094 9.84250059925803 1.9206919659063504 -1.5321034045294 1.4975169248037823
Ni 0.030225965448895793 5.568014128672717 0.723234198416412 -0.6827919257030951 0.5486106797012744 -0.20997890985842546
Ni 5.353918265837073 6.932180567426775 4.024024933996958 0.290528486577719 -1.9494214726305588 1.9158976298415005
Ni 3.9154439658074627 6.406846104768698 6.002996772472531 -0.7005019413883484 -2.497900254739659 -1.1952240986012834
Ni 1.1537850238300515 9.490556187054326 1.567128409376193 0.7179689878248603 -0.07994279637323007 0.35987576682328987
Ni 9.382808843052633 2.8490760634398367 12.895403447528436 -1.7116774768437233 -0.321854036163878 -1.9167736046885506
P 7.050901127778112 9.356609225721694 2.2671052490746253 0.5927089555720696 -1.0436267140055446 0.5231706423616151
P 3.2160691880224426 1.2147567884050443 1.5496563269093921 -0.40286975388631263 -1.4955891116534499 -0.8595524398280229
P 0.8653718481974515 8.344908923152822 11.078515749604179 0.15058925504619872 0.04321098816983526 0.37478173740084486
P 4.610329270925745 7.3426412389447995 10.223551916776435 -0.07903056897160582 1.487425344895735 1.7419475885821742
P 1.407444955261404 5.910868067590383 10.587601837593944 -1.5377829714126807 2.7222817131766597 0.4271224557860902
P 7.456314686866585 1.1969690251233616 9.120114202311525 -0.49922030219360475 -1.2588223921782191 0.38218214362997405
P 7.786068817118783 1.3426642275607374 12.962328725435592 1.5351979842943237 0.051534420433866086 -0.7314875911365855
P 5.407905356094764 3.6721807079201327 1.4299717113748807 2.8686276195654723 -0.5150428710481582 -0.9618759178892983
