# total energy = -340874.5053449696 ev
CRYSTAL
PRIMVEC
9.19776947134647 0.00000000000000 0.00000000000000

0.00000000000000 9.19776947134647 0.00000000000000

0.00000000000000 0.00000000000000 13.46186534610050

PRIMCOORD
 96 1
Ni 8.317588758112773 7.795100275804975 11.712294089580869 -0.6756648277400106 -0.43028337001257516 -0.6326158190693363
Ni 2.1493807166161676 4.666892951309428 11.437954064511365 0.5583911561268061 0.5926004550186633 1.4937700561668403
Ni 3.434824161558758 5.095131891698979 9.34067687137119 0.618454954187922 1.217435087480684 -0.7748615872468462
Ni 6.426352634399657 9.079807899204337 5.115064377528103 0.09043392571254102 0.7291815687112281 1.1721664454508716
Ni 0.31570791222979644 7.527068080914795 7.588776834860703 0.19448107133314246 -2.1679202470345373 1.3072740599217034
Ni 8.267341344479576 4.869878521778231 10.519963342272241 -1.5194196384141445 0.6955785359448021 1.2308251356343447
Ni 0.9742645143113634 0.3938411227974881 11.572316917858702 0.8098311613434955 -0.2819183763112048 -0.6203948515231122
Ni 8.315234129174444 0.2808124953191258 7.026783933450837 -0.6964786791615682 1.4786041470596791 0.17749919206316528
Ni 4.654319600689516 7.6289057824975846 1.0821000812483923 0.6473243289241045 -0.2800396712312532 -0.36141482917563567
Ni 2.0650647655315004 0.6510263883635548 0.7339921069163979 -0.1014395327944253 1.481070863432617 0.6590812123497165
Ni 6.092666762314935 1.1893911402434325 0.9535548169772042 0.6310387043902036 -1.45861459131163 -0.08769981461082961
Ni 1.296306010474497 5.1267998113656645 7.579837522887408 0.9814294145411936 2.549264982364881 -0.6874484506384999
Ni 7.489467600055831 0.25768470443853286 9.784110526628403 -1.033012171714492 1.281446043115006 0.16730399669771834
Ni 9.396533084717644 8.206139387621565 5.324639229916515 0.0025716173819181516 -0.3113863038633347 -1.1233198562618139
Ni 5.018358111432402 2.613463363930224 4.849771278332591 0.21866255367535245 0.9184972937933472 0.1591901093413323
Ni 7.613490321166952 0.7793095162099678 12.177657066380144 -0.16748217414679542 1.5210193788010966 0.20444229631091243
Ni 8.660371224025653 6.299257858345557 3.3226168948780237 0.6829428494586626 -0.4467944802937209 0.7212718269458481
Ni 2.398539088922543 8.086154487228908 9.574051871575318 0.41753789742144864 -0.011152159962077567 -0.09647473258998224
Ni 2.72144517539897 5.310368890862533 1.712025867082948 -0.14822255458623504 -2.1259518730225513 0.3730380152368608
Ni 7.2376142813473825 4.121400848006457 3.4023109668942886 0.27041680342950847 -0.5899056817953195 -0.06942004246503529
Ni 2.998150866729953 5.634406302961673 5.810248336477715 -0.4772121733536298 -0.7249276785308806 -0.38714822938599774
Ni 7.3099087479695575 7.2493230416540015 6.489050148544277 0.2772150572982645 0.2718226826380996 1.3297318747045872
Ni -0.06445244852522042 2.1469617032928046 3.451272532380696 0.28051763930893625 1.6209296194351892 0.10873323824236111
Ni 4.1337534521634005 6.288790796893135 11.402186699071969 -0.09143125662880383 0.6825013910458697 0.09643050961560812
P 3.561817762150663 8.373226064550119 3.958743816768136 0.45662380767931676 -0.9849402559079296 -2.630143660288819
P 3.2944294111108077 6.776382942513335 8.063266758126794 0.6630391685562 0.3647462075417138 -1.6436324603493435
P 6.3206058808684675 6.225316991020408 10.798098366950944 -0.36954260048909265 0.653047861671443 0.13398378527903376
P 3.1647592596554097 6.242130513283174 13.319061604681943 0.05029951958550047 -0.20729262127551398 0.24723522310672258
P 6.833188365650555 6.822472964427294 4.4685715696477635 -0.7713687436022392 0.0040924249018187584 -1.1768893048478377
P 6.723422186939481 1.83739238228739 3.784319159499737 0.8973988212518351 -0.07067988301406537 -0.4205041791386242
P 0.8150759618724349 6.041278825289733 5.539396105523112 -0.7067126981847507 -0.023282110456392162 0.5367923469101078
P 4.020252979120443 1.6971080050709244 0.4497801160675577 -1.3736766557166535 0.5799909937847688 1.1982376886166266
Ni 5.310755197172727 2.9887875375923736 2.2819610422750336 -1.3048888475189784 -0.18597329097244747 1.9863558837630628
Ni 1.2131489783204146 2.9966884214127867 7.499093065618186 0.8622500412648441 -2.7749348205960014 -1.1509898113732564
Ni 7.35736003973849 2.600540498077278 8.381545446873243 0.8478413220386819 0.06276782725584029 0.1615670942139411
Ni 6.055057083686681 6.1252268656027855 13.210034006844886 0.21823523632994676 -1.106706673185165 -0.8598576297732676
Ni 5.662523883682282 6.219016519056516 8.412830739337451 -0.6004546609557595 -0.7760039283814055 -0.22872096635261902
Ni 5.382221864558771 4.239518601233171 11.269816082552923 0.8183880497745712 -0.3651424145388679 0.7287771341839577
Ni 5.750353382635864 1.3403173365288366 6.997437530753037 0.05730371881747551 0.789209371328086 0.4432319597534431
Ni 2.460237725322232 2.5813263580297305 12.030007115515962 2.555487052015192 -4.027347195482819 0.27926268385591263
Ni 7.4072211470614935 3.4075895666900218 12.869462684669408 -0.03416816124127664 -0.4558630182538923 -3.087310484955799
Ni 0.5220212356278491 3.84149433296243 5.192901419924645 0.9269217704116165 1.1710130485727186 -0.3236270689039007
Ni 1.4579843990603238 3.6774521176689827 0.2465793177973605 -1.430958005936626 0.3016845031945385 0.06930537126404195
Ni 8.088821840323112 0.022953953041005237 3.4797571040959907 -0.011466091658070575 -0.38811342151274447 -0.6585831896673754
Ni 7.777606118614723 5.107236156085084 5.589407136485549 0.8560696234857451 0.16923978026785047 -1.0860113496193424
Ni 0.35488029186048137 2.955822732455748 11.424976931819605 -1.5570778150865507 -0.43212839364111383 -0.630231892218192
Ni 4.846277045779185 7.383628868831738 6.328543555766041 0.06330518781654904 -0.04782971788876924 -0.3069850894718455
Ni 3.1592773891583588 8.392706939907088 12.870714501069823 0.7149895934815622 0.46338529477286644 -1.0631133619752464
Ni 2.6602984051567025 1.3397654703714155 8.989429698380397 -1.166418230113185 1.4703845873633645 1.0252489828293052
Ni 5.269981485908592 1.8376683153661006 12.221677590203774 -0.2500786060927887 -0.2484302718560883 -1.7157842999232453
Ni 5.693511168421481 8.117537276047592 3.1455267240692812 -0.07796793203504636 0.9506764496290531 -0.3238983202874164
Ni 1.297143007479919 5.865472663073923 9.8919672484348 -2.4151765531871825 0.6621048296673887 -3.456042673728454
Ni 5.541168515665363 8.302302065552206 12.250310246004641 0.6918434943824021 0.6787015576838054 -0.0882258623176287
Ni 4.523343365994887 6.083294235408066 3.10209853658795 -1.3318280951119836 0.04803694880356888 0.6439194170076136
Ni 0.19744851335601032 1.4941960167564443 9.031861767447584 0.4497751601885996 -0.3312449904604747 0.7497043712549282
Ni 0.8021494169117727 7.983148668946244 0.2779851010392712 -0.49547471910824353 -1.5391505411841686 -0.6007608793422686
P 6.298006961722069 4.31216258308838 6.959864643201944 -0.05295881158521847 -1.0227727533746709 1.4429887118489146
P 3.6967306421015627 4.34186218012693 4.194798127166545 -0.5546417163867028 -0.4558419352079698 -1.0751165570837098
P 6.721582633081411 8.147246070855434 0.7409704544769888 -0.2043479368248932 -0.38294447571729534 0.009921115768453882
P 6.7837411579456175 2.5072291286266464 10.605593654588498 0.6254727802666519 -0.15736668297934833 0.17243334750448366
P 0.49647443142389336 1.4963298992318061 5.466890090207259 0.9814494691458516 -1.0175693547968605 0.6438577105317428
P 9.275674396242406 6.107318808794469 12.513772989111374 -0.7202786097946433 -2.12442515196538 1.1683234175556976
P 0.5183246521500562 8.080810583271212 2.528097947369528 -0.82520404425514 0.008634278636230291 -1.1888631893802624
P 6.202129414639429 4.11082341332255 0.9186768758281852 0.6473544108310916 3.011826752795187 -0.6018062898876475
Ni 8.401573589502988 0.24203837909871317 1.0452722130098184 -0.06265469871674371 0.27202040047120246 0.782449169786117
Ni 4.209230346960038 0.9578556938973734 2.551225738250121 -0.7540791032838561 -1.7576500869190956 0.8660856129608504
Ni 5.1521120724527165 8.14506619953362 9.86859755622187 0.6733374651584145 -0.44194820794501305 -0.19257408411841673
Ni 4.040064974171864 9.03277970482276 7.925404153564478 0.21779172103462494 -1.2376884384130815 -1.13729663015688
Ni 5.4871500166231195 3.8067267650448953 9.010147673706918 -0.28377265591112416 0.11743436556078483 -0.7583373643395779
Ni 1.6125713075232888 0.4701596134841931 3.465676239089389 0.8137924599840887 -0.6740167506136263 0.5459094787200276
Ni 4.001287178843735 3.9498348574334994 -0.15860909297363623 0.5549325081542442 0.4579643808676113 0.6975030066610246
Ni 2.5733886831321557 7.817257702025435 5.685322394422281 -0.6264981362073726 0.9311296378453771 1.3622301044426088
Ni 8.138057499334371 5.246407603217417 7.862765505143315 -0.20723785677817855 -0.6614741380619252 1.3287216882725181
Ni 1.8506463678347889 6.714435966342806 3.6775256998233052 -0.5591401184776886 -1.9372431853968117 2.9010407457888556
Ni 7.669238000835782 7.133063237823938 9.31025249011256 0.5303093102889255 0.07914883971702497 0.13500014235869007
Ni 1.696574534452084 7.043550547090222 11.657921476420945 0.6065193790926006 1.133115245085681 1.1438753118156624
Ni 2.57245051066454 7.528742074925639 1.9197832402595862 0.729205479970628 3.2897532343381792 -2.3975940642187292
Ni 8.488198180679532 4.977731564476912 0.8937812736899865 0.42009948750103776 1.1659870561130372 -0.119468108161362
Ni 2.4211196125303602 2.4640915906548897 2.2297563433368475 -0.18399765530331536 1.7100869924281514 -0.13503948023705775
Ni 7.88587306093147 2.5574029601055224 5.799707692870969 -2.0651902775634627 -0.043176792497790155 0.10899240544101874
Ni 4.0912505602726785 0.5583101145860083 5.415344871327191 -0.012657026642378203 -0.43183348810851435 -0.17240815069350307
Ni 6.665384262717353 6.161650031992584 2.1143068629812642 -0.12789027078678622 -0.08941036954403311 -0.7153168949139939
Ni 4.900451906899365 1.4606609499238168 9.524162251167514 1.692270275961705 0.5532198963385118 0.8814605527550238
Ni 2.4586833023121626 2.557642102107071 4.632362685839585 0.3618118075037382 -0.30101241682817836 0.889936451436519
Ni 8.011486996129822 2.696335265236306 1.4637219675436464 0.39990887148577575 -0.8990926640144903 0.4838178515956055
Ni 3.926113810433679 4.037480401001274 7.08438772296246 0.6750367072377085 -1.3702113228758723 0.3325490539838789
Ni 5.40379983131394 5.129917855155094 5.181269920880066 0.7028645280832541 0.6016980464445573 0.14037503351735825
Ni 1.5502564205811464 0.14077737765042864 7.1451408286791 0.6589331168076265 2.460779181517646 -0.26765672418586806
P 3.4486484088021583 1.8609938582864363 6.92396207055398 -0.5587246282068248 0.6479987292833098 0.7652556887259659
P 6.446799275532111 8.679686539535394 7.960229667428542 -1.0796805223053083 -0.2265771805367388 -0.06405646416027677
P 0.8395190337615482 4.161135211340782 2.2832404519833216 -0.8115129199212927 -0.2937683336712554 0.6449694555386828
P 3.67842708121376 0.1832545157871374 10.890083418069908 -0.1063128017263266 0.1221148017555897 0.630695719228488
P 0.2785148925503956 1.6284742506263092 13.228772622220124 -0.1378635799494142 0.9353773573781373 0.28839035718879363
P 0.3036652728979371 8.52380274560249 9.662522455048439 -0.7951504194028692 -0.15148862693201653 -0.07218757790784341
P 0.4488134305151416 3.836858657240092 9.327968313542709 -0.05515581923653728 -0.3095327955943637 -0.8811497063828244
P 3.4766832095991544 3.2758223238364237 10.224030634016701 0.4904613250540521 -2.126320826326196 0.29982019629229006
