# total energy = -381165.66935923195 ev
CRYSTAL
PRIMVEC
9.23420637397736 0.00000000000000 0.00000000000000
0.00000000000000 9.23420637397736 0.00000000000000
0.00000000000000 0.00000000000000 13.51519443620902
PRIMCOORD
 96 1
Ni 3.7391886952108933 7.143083359080146 12.011872197699297 1.5329639527574823 -0.5538333615527946 -0.7787601509703039
Ni 7.790982976844495 6.156075982765564 5.0921735236146235 0.7210082888718163 0.44036646528018997 0.20101038781122801
Ni 8.126267773979817 3.896548805045453 4.454418604909265 -0.7820920435570144 -0.1936953422070535 0.2961597167215673
Ni 5.202311749189342 6.984485865599214 7.817580261297079 -0.36298217366275554 0.3058790008918604 0.9156528823660166
Ni 0.6087013353726617 6.48406575691108 6.9746375845629744 -1.5772072388465739 0.7563221336817619 -0.6385113586181649
Ni 6.468423011411418 9.039262986669966 7.547533284944526 1.3054308360653775 -1.5124887156222662 0.6516892907610196
Ni 0.7973395488414937 2.9243530956620734 -0.010517760994164908 -0.9862170657378241 -0.7311032112139733 -0.14994133704955467
Ni 9.33384340236343 1.034323449478851 3.9877125834816196 -0.10075587646383939 0.7682975608760833 -0.5058902580146126
Ni 7.343779599156687 7.349624851754849 1.1365091765740476 -0.18025052955605733 1.7041161195566974 -0.12969775630917016
Ni 1.7370465501425465 8.25754125097108 7.673440764645439 0.33773445483956027 1.5465329496911688 -0.6695219480670662
Ni 5.145004264790933 1.2845150354102854 6.968880056924817 -2.1162084204825424 1.214156416729412 -0.7355283368648623
Ni 3.325468549625669 8.478903644783303 2.77195267803995 -0.6605305432017333 0.08435300962578375 -0.2125243019880985
Ni 1.471009066172493 5.071296829974933 13.548982482945128 1.989433237136806 -0.6041593635008563 0.7058482933019262
Ni 6.364944495431951 5.4563817017735845 9.24794773863066 -0.20758932658032636 -0.14487163583613116 -0.8487664049561124
Ni 8.518296768928261 8.213457150017488 12.718811636966976 0.22410609328842693 -0.003829915269051469 -0.18491373935968153
Ni 5.022586391656917 4.106894790722436 10.739957236807482 -0.4739833820036869 -0.7572816693815538 -0.5542984741146711
Ni 9.121512062328462 8.34209887820863 5.502265549538208 0.1172055373794304 0.12593006173662183 1.9369153697437482
Ni 3.87483918599604 8.279860327637364 6.424001861927282 -1.3215166858836465 -0.2639913595191389 2.291743546840802
Ni 1.1552176785706918 5.321636163207427 5.210255936883178 -1.1472342009855663 -1.6204809619335447 -0.9454200863261203
Ni 2.3915486254229856 4.433074660429975 3.5246549969695096 0.6892932171567226 0.7596604540263756 -0.23985898524730948
Ni 0.83088742038829 2.510014258253663 10.06911708029177 -3.0593911328377112 0.3831661048097982 1.825868652876862
Ni 1.9382229689475305 3.1932439493838363 5.50027834833896 1.746841940559998 -1.7188505975533948 -0.8838827890432713
Ni 6.309816283724169 8.189069611136373 12.064973501120672 -2.0807313106218555 1.4745088939443833 2.5818562860373406
Ni 3.2666558895977182 7.675721613605543 9.240149451396622 0.7911860354384825 -0.7312387083505729 1.0001349613704968
P 5.357658802046967 1.7216254255944734 9.174897779304375 0.7453203832546196 -0.06551813630746782 0.16962647418330787
Ni 8.740628754403685 4.213734557801002 8.68531031804579 -1.7392132203701465 0.4983803227908127 1.5306533023464348
P 8.645987373868834 0.9810328448279944 10.275913437060801 -0.35832050652102804 -0.07164198981701855 1.058525485494248
Ni 3.8900479237988406 3.409813790117945 7.234791955688969 -0.6617248206201506 -1.4475812163156037 1.5854064868279147
P 8.581126308703764 4.820477318013996 6.6841959401404365 -1.2258382239427146 -0.6653115095301445 -0.8695674008618638
P 7.2960664551208225 2.7944739838245587 2.7132425177021093 -0.9208195141686206 1.1551215741534429 1.7568070221925098
P 5.414596918192728 7.4365372016030316 10.128921494078083 0.20966729215527763 -1.2295645237543664 -1.0085833492481662
Ni 7.803467623784012 4.927464832393623 1.7972637329511936 -1.1482209903788676 -0.17200654437971022 0.18900487870991964
Ni 2.548179232958565 6.260681071915608 1.96724423255812 -1.5590295394962828 0.10641461741151352 0.6121033009382812
Ni 4.545787382725652 0.05174849219604928 10.650013297025687 3.507971501387262 -0.6889854561083167 -0.4955814198894368
Ni 9.21886829952028 2.6728410182274205 6.2233277839459005 -2.017450805395655 -0.8612038593885167 0.3411103132903287
Ni 1.4530023638558804 3.9674398069350088 7.663587866506041 -0.05776780293808761 0.16213427957132076 -0.3923567701701307
Ni 7.37287658325907 2.693202443154667 10.608021667223348 -1.334678162966269 1.3911794404871072 -2.630220279163025
Ni 2.6507250941000944 2.843692303489966 9.250744779723842 3.771272005486963 2.6802770866101002 0.14182770680348475
Ni 9.187093395586196 9.012770048748756 1.3639264394678094 -0.481003779185578 -0.11879885000847928 0.4875513504961087
Ni 2.8144198694675757 5.733232441339922 7.331033624178421 1.9124888612702677 1.783527983127122 0.005539698871306588
Ni 3.9952717047720707 6.7432145229692395 4.369597802791705 0.0775105327826536 -0.39465533639632033 -1.2956200206225428
Ni 6.049310089337525 5.839130319374236 0.04223448942845657 0.7710594398919366 -0.06356486923583891 0.5030612732062497
Ni 3.7516087027061977 4.634029458283369 5.5126447974376305 0.8400403379370242 1.4746497903976217 -2.943332821688847
Ni 1.3501794765248656 1.5523531896120004 7.9053347707613 -0.9237482577796414 -0.8272069336177817 -1.4071961276303377
Ni 4.373892632149375 4.89951288987445 1.9220363286958433 0.8279420120115935 0.5764462138563039 0.02004483446601709
Ni 2.181645881649182 0.6518804841072668 5.526565363459319 -0.4313778886283345 -0.08454789924540923 0.16500568758184486
Ni 4.364122841866823 7.1602589828283 0.8606234115677543 -0.2920775762323938 0.3504272198158803 0.4146551765570149
Ni 7.608847491463538 8.364565702175971 10.22819105881862 -0.5947239291195693 -0.9628081998955804 -0.15558902225363527
Ni 6.113921830932058 3.419860606589983 7.9647070236920126 0.281800876896734 0.3252409503582399 1.5767848065971748
Ni 8.168348052162793 1.7718872105736125 1.2240817721738393 0.08727558258921744 -0.41419752019430606 -0.2356223214581426
Ni 0.9222266487444646 0.5915700358148263 12.223047415103476 -1.384364474447803 0.3884396945039117 0.12296557979165919
Ni 6.661279410325495 1.0915385918140974 4.716640514829461 0.9705724172220317 -0.017765037292904885 -0.27357180411872245
Ni 5.768294722722578 7.515240342036103 5.474356084368091 2.271311761349011 0.16287501439208724 0.23642064898972187
Ni 6.6827766426296344 4.157812204350026 12.273472645534412 0.7925134960006545 -1.291341704962163 0.8931834976189069
Ni 2.62687313918532 1.3337241208693766 0.07358554329262626 0.15764744744456075 1.4528352656256915 1.2845079698697814
Ni 5.653882906464717 3.134302010467458 1.1068839958703776 1.513866055585767 -0.014740648644284291 -0.19798291383881386
P 0.315382312261993 5.7870586299571185 3.1910046543521555 0.17165070370218824 -0.8483586279947326 1.0249929009544412
Ni 5.166427623444544 3.1373770011707567 3.410937593026628 -0.7170215363099264 -1.581590198405618 0.24327855245181976
P 8.147921987791333 0.7617878545240793 6.419419848753178 -0.4498942022649671 0.44842250281544704 -0.07967540164445633
Ni 3.070807607837188 1.4581550509803265 11.182985829819732 -1.90197227800966 4.577447829466059 0.3538123342380294
P 5.8434888647554875 6.634629490896908 2.352346649348773 -0.30426306255499214 -0.058255798318099676 1.2704532915489282
P 6.2713096433855675 0.9191128743746381 -0.21104132141259266 1.718341776237776 -0.08738356892199145 0.6917069688045377
P 2.7031938543888083 3.3960363542941576 12.518165261604542 0.1761727599422579 -0.1863044490596211 -0.09560132884609342
Ni 2.0990736087696185 8.358424954975693 0.5908109840556336 0.2863267897915456 -0.9956267890874982 -0.25986319628337823
Ni 1.237162025420753 6.883325135405117 12.304462641931616 0.9009590277992677 1.5517566599839534 -1.6687811917008295
Ni 7.70631453913115 7.071647539017934 7.710756192369249 -0.8571605425570785 -1.7034792573036468 -0.29904089492410435
Ni 0.33197156390906696 3.5619565733838456 2.6333407772891944 0.6539248649597577 -0.8652967985109679 -0.7769457234693844
Ni 5.891903808471384 9.113598347515468 2.407839612206046 0.15123768726347503 -1.0243413834133712 -0.5329830004663466
Ni 4.816451204060128 2.339162972991118 12.642113242725154 -0.40239512824273926 0.9451254379038367 -0.9302672898450818
Ni 2.63659675843629 3.338470312118895 1.565234907423115 0.10935287410423102 -0.7417144110709162 -0.7741923290939634
Ni 8.628220760916443 5.747370011210042 12.904794092699266 -2.8262632956666485 -0.3844483139563314 0.6166657234979831
Ni 5.792894648348965 5.182430502990538 3.9731160735575846 0.6855319503420775 1.2693988821424849 0.33888039551854543
Ni 7.5727694473861 8.229930974085608 3.8342068313634465 -0.2457666089809961 -0.2587036287576383 -1.039314716893752
Ni 4.4508043365571 0.1554966469999488 4.663931665176526 0.5769378087807419 0.6223591743383345 -1.8302616397382347
Ni 4.087613767934186 5.124624371451055 12.788968519454393 -0.5991467407776133 -2.33975529883339 1.0615758422847976
Ni 0.18592889733565546 6.611922577565345 1.2849850565117806 1.9441255143389422 1.0058510379186676 -0.00023037084325121617
Ni 4.417321104454517 9.198211379990916 13.275854051944856 -0.18837238733224332 -0.16140588604572847 0.13986852619458492
Ni 7.983045234015378 2.0766991268654382 12.543938854853721 0.4645458907398709 -0.8928101734398881 0.5580877659537743
Ni 6.954788658086278 6.260579495646129 11.319989131830203 0.2766193326957946 -1.4297259333017376 -0.4633788670149633
Ni 0.29369670214900184 4.550681512073244 11.247966016246279 -0.6719698953869266 -0.358754251624337 -0.8127928150749808
Ni 5.92567330096977 5.238777629932061 6.508025752039753 0.7948791680193535 0.6966594277138066 -0.0718942150371407
Ni 7.845631009823834 1.9767019066671838 8.388475832590538 0.3584071526975634 -0.8535106045093172 -0.9031123266968446
Ni 1.3801352418146557 9.285548503329643 9.924639611688956 0.19931834482078575 -0.5383391225719374 -1.008463021620218
Ni 4.273867709332172 1.3818251015705223 2.140995982024587 -1.4903353194536786 0.44202714081206457 -0.6091323912354155
Ni 3.411078876383266 0.8689221927841337 8.758049084619218 0.6463090002857128 -1.6501664048131195 -1.1044991240108848
Ni 8.746141575574464 8.993285873421549 8.423561199488985 1.6333457337113548 0.1443497018943901 -2.0086666314451214
Ni 2.550561658188148 4.9796750349054815 10.847213466590912 0.7187151219622655 -0.274476832431495 -0.3566924839993018
Ni 1.2377068435934093 6.22618207711824 8.997497594922374 -0.25147882887442496 -0.17692017963124368 3.0942565772563295
P 3.9216289094002836 2.1712758679560764 5.117865855848219 -0.969863049859833 0.32815838111535095 -0.09909160138753903
Ni 0.8406941474961067 7.99468956818012 3.469539713150569 0.3653128786784612 -0.30007113596083157 -1.7314330622040954
P 8.944381516770893 6.665591784675165 10.547677052367536 0.9105577272312962 -0.8276789881581939 0.2646241080071313
Ni 2.0341756067792844 7.273756612660855 5.265263180488219 0.7860350873651624 1.7657251506177463 0.7649705533853793
P 2.6766362770233836 8.744405544787016 11.545747007848941 -2.3928892025438917 -0.8885575688111215 0.9994191662503948
P 1.6894072797572115 0.784517853371434 2.1767305136270627 0.7483524852127241 0.27502653428737794 0.4671807572595567
P 3.9201606705960064 4.718762535440926 8.965777172805554 -0.0806220818284418 0.6173393525262401 0.26545817387265247
Ni 5.77837847601988 3.069228558557116 5.6872479407264525 1.0660418484759513 0.8940548444802666 -0.8178419474631141
