# total energy = -340868.9606776095 ev
CRYSTAL
PRIMVEC
9.25393028165594 0.00000000000000 0.00000000000000

0.00000000000000 9.25393028165594 0.00000000000000

0.00000000000000 0.00000000000000 13.54406236880864

PRIMCOORD
 96 1
Ni 3.204497267197685 6.287740285172645 0.8355845652896939 0.5086554794645756 -1.5434941628648449 0.03381514877723209
Ni 0.3516289942085975 8.502279846570174 8.652435045632439 0.08035185888619063 -1.4832838119235359 -1.4033207038353317
Ni 0.24458137884122846 3.1857950739839835 5.527684448518075 -1.4120819949677295 0.2294575874083274 0.3902608068730505
Ni 4.438147974526592 8.037695527866237 10.549876653878732 1.6775378548475366 -0.9130853787491566 -0.1174708752256751
Ni 2.0805056343776145 7.694976217787355 10.276679346252383 0.43600304610517165 -0.6665752067339166 -0.25055091774351684
Ni 3.6429114709049126 5.123975259758567 11.681712843446578 0.0551067111661567 -0.1824655349295051 -0.08498858632725363
Ni 3.542080645938813 6.360365130467611 3.136859364962027 -0.8872635325900462 -0.39926095348913176 -0.36418982081761153
Ni 4.808018316218043 6.31463220673574 8.18429814307163 -0.6435664045435691 0.10510618301273511 0.2800386427899887
Ni 5.666912606636877 1.717270360738723 13.084675311031061 0.8474266030987664 -1.1370156085813514 0.7650924236752242
Ni 6.425540561840247 0.22374708007758332 8.551463560925196 -0.6665929473457294 -0.5039390478255128 -1.2723677349628215
Ni 4.881198397333307 1.641897098133282 1.66191057327592 -1.6150785599710507 0.4750555320219431 1.4110764365213506
Ni 5.998989896826717 8.45890667507457 13.020029204473776 -1.2096029930307748 -0.34462038332611616 -0.8219819377734165
Ni 7.645254850079676 2.360770168603322 11.812968740578935 -0.04271707925255224 -1.3943120725788178 -0.3078800904822891
Ni 3.483605060131105 1.1026705773206305 6.677588937071449 0.8429827083947998 0.46968295485612016 0.012226109752546685
Ni 7.912526866110413 7.168112947906669 2.2593665253492814 0.5259962847358682 0.006932208343459029 0.9371745584878763
Ni 6.315788948028027 2.5475052288998468 9.652338875760197 0.9660920128531747 1.7112164780469044 -0.5161247912584273
Ni 6.985384839446628 3.7617782061003564 5.2034526404690435 1.2607419777984352 0.2694413268901166 -0.026492389863573728
Ni 2.1401657232686246 5.9374790218680475 8.215570875256876 0.027432385179339856 -0.05414768968699707 -0.5412825214709776
Ni 1.6540012390157766 1.9502565648660635 13.181433481255276 0.6362647286758332 0.24147852312860346 -2.3210880614411895
Ni 7.101336586585507 5.262895261997104 8.246099591442922 0.7067589780416538 0.18889329283271986 0.6636253800769732
Ni 5.208472897677571 8.513005151832262 6.32897764954617 0.19608878213989456 -0.8618016408735159 0.573423110759264
Ni 1.0059022277730434 5.106263237091064 1.608682891363061 -0.46076354087930316 0.451107505846778 0.5750668170102742
Ni 8.69221676676375 3.709539769340662 13.486039553842843 -0.9272238750330677 1.518378341633824 -2.4730860239094565
Ni 3.2284556928435397 3.840899310492808 1.7059287437161044 -0.8893276142079266 -0.2603853873354354 1.0900500384650904
P 3.698823718008912 4.761896727411963 6.807082885867394 -0.7480912611315375 0.4012347893860509 1.9130876711965308
P 5.923903506061763 1.4171191302160122 6.435082289412066 -0.03685393560355589 -0.002386755064621696 -0.46834443855035474
P 1.0070312072743157 6.941521209643093 2.5967898110955567 -0.48353143070343824 0.8735346130397279 1.7413156114251302
P 4.930892003249969 4.719893137606427 2.5824869363646825 0.8245499556109089 -0.128941594869436 -0.49145171399177945
P 1.5181072719978634 0.5148424143712352 9.808989408526914 0.46236868058289404 2.297361150137895 -0.19429800878805895
P 4.362682172617768 8.44851451130466 8.392158075544423 -0.3770743900897635 1.0134378491269902 -0.024301038639209762
P 7.733435552273322 7.676486864971434 7.925565653957076 -0.27981315704274395 -0.5776973126545857 -0.25774229328563353
P 4.528336779603649 8.703349244960723 1.5456081021772188 2.914394798498258 -1.7653220016420565 3.115933290898814
Ni 2.400571322988344 3.407278642700819 8.189431298230284 1.2290374476063028 0.03309626833333655 0.6951851571611254
Ni 2.1511038689284936 7.4779067738418865 12.840570509602253 -0.4922646968113781 0.4753859187781684 -1.644752689996716
Ni 2.679077610449774 8.15510014206823 7.073101919730325 -0.3405963497683876 -0.8845163088622122 0.07302601464873874
Ni 7.674839665371216 1.5531796679800145 4.482583497225033 0.1659269138445336 -1.189900372395525 0.10619864474596548
Ni 7.35399664661207 7.668435945577114 10.205735940099885 -1.0579482728345393 -0.805898916168625 -0.7851388008031382
Ni 3.646946184532411 0.07797824399567203 13.514170576678238 -2.02035332375443 1.5268593825216414 -2.8131766376860194
Ni 2.469781467988478 3.1773925052368086 5.9916496792823795 -0.14856142598289254 -0.9569360573855197 -1.2958329079642972
Ni 2.4769255022096446 8.465837868897955 2.1701382782413394 -0.3025044279926726 -1.3414252518821155 0.6061177727788079
Ni 7.907483474076041 4.781774169778629 2.001948094342765 -0.07427685633670435 0.6856602483898256 0.8654590351204451
Ni 7.726235994470127 4.965020498337615 10.971625454439717 -0.8573078667682204 0.27925857009085453 0.5485667138372166
Ni 5.7583321844489275 5.393616281955908 6.135325276321767 -0.527727151384046 2.087131557721244 0.23846724710610548
Ni 5.509327426905993 3.3704017303027 7.229454475940147 -0.30015341126199274 -1.0444726069456078 -0.4512841406339583
Ni 7.809391812490076 0.24637756671989222 6.579082699406329 -0.22624782222177806 -1.4715922345182206 0.1101198341772426
Ni 5.968100277357477 6.101014478806458 3.8163782458823854 0.49044307022160694 0.6933257353548834 0.009615668712893117
Ni 1.6102764181673161 4.0033428036513 3.7187252205944565 0.011993167806134183 -0.3523804868875092 -0.6361711405207625
Ni 0.38228541463331267 5.9000468736496305 12.386871589155259 -0.188553650105114 -0.8308357886196208 0.8202855239076001
Ni 5.989171476737782 0.6610498867511818 10.832947905176045 -0.03178603416234526 -1.2786371129113012 1.2414648747363781
Ni 6.936172437907556 2.4930736106499753 2.3990601561641 0.9461847324062865 -0.7163203964778437 -0.0826231714188706
Ni 1.7938836500094961 5.643222544970833 5.5442351029281225 1.882017432154288 -0.33195564337425415 0.7579090185529076
Ni 0.2863240078112252 7.2689992964547985 6.352111549998882 0.518227696534043 0.8227154735053315 1.8132777035857286
Ni 0.5001638300686262 3.0897762927937986 11.199625640900784 -0.38160750207342664 1.1390159268408317 0.2800890364119499
Ni 2.092396934862328 8.011488397148177 4.691758413198898 -0.37201960127467537 -0.2017945742754202 -0.6482956916984384
Ni 5.754760167338344 6.444335294357331 1.1876355387217177 -0.16994271987214604 0.5108931105458427 -0.15720058971512924
Ni 0.24670145428173268 3.8854754929323922 7.831759487510778 0.7146859461982144 3.096101086664236 -1.0532223281137796
P 7.329991951314524 5.461595654221049 13.461958050923489 0.6230901389670882 1.3000556877963931 -0.848967465223325
P 4.294971164332438 6.973447269310222 12.492393231409842 0.4761287104814639 1.0915806161770039 1.1439455029319654
P 8.383320572071346 5.090124382581072 6.369772676049526 -0.26883608920594987 0.722489244292717 -0.6691267695111766
P 7.728734555661467 1.6966803657360092 0.40532122342443905 0.0889434572099436 0.2117897378149191 1.0681457821928313
P 7.873660358689559 9.126688796146862 11.613437345410611 -0.8776509492009467 0.5382882147293439 1.2074509796847785
P 1.7642988347179558 4.391906084626114 13.391271904034397 1.2086989931592669 -1.0828478642896964 -1.4837247561156963
P 8.428424228540214 3.5888037402168815 9.503205310607282 -1.3485808890902902 -1.3508588864911897 1.4276811349575669
P 0.3595845981204327 0.9776037087985266 5.846998717985334 0.9111089717490761 -0.5714361622362223 -0.5154347071699382
Ni 5.283401971626773 2.407650579697142 4.464718784706948 0.6406428031388709 -3.0515523535195834 -0.1868533795845556
Ni 8.168249977078952 7.803783930705067 13.630337940393998 1.125209617085359 -0.22359701486249234 -1.2623530310392967
Ni 2.4973951961179606 2.6413215746695164 10.345510080108648 1.048606426608323 0.5831979307578408 0.007937766789837942
Ni 8.373483644121736 1.035348234109509 9.646473734711783 0.3168923212832284 0.3897370731590965 1.6743874821440132
Ni 1.060121005625134 1.4427340093924224 3.8749833867148293 0.4829878994951424 0.16103513296987104 0.15463385742921756
Ni 7.7834993154035175 2.400904464480522 7.642196426102869 -1.490890163515884 -0.030538534908489342 -0.5943529189333957
Ni 4.263581832624929 1.3657690707687942 9.085912277504185 -0.4932975089512666 -0.13732544805775704 -0.12045464044434741
Ni 9.079919432217102 0.489461659632384 1.8370078907790008 -0.325731002620781 -0.6707043984109416 -0.14189121305156852
Ni 0.038832267878601855 6.386044787156389 10.1433246577193 1.4160137259219676 0.0557685131198717 -1.540504998329534
Ni 0.7355606830490934 9.088942014296943 11.711578052827367 -0.7211106187776356 0.3572457853996105 0.6257879975142255
Ni 6.6732775309268355 -0.056962568197396216 1.762176908491384 -0.03058481476539249 0.5947840929335434 -0.9342635554886684
Ni 8.883671331532806 8.473074442422504 4.090957165308242 -0.23344691107337862 1.412437064314303 0.28081048795900676
Ni 4.337770592147068 9.221430534950363 4.2905561141680355 -0.48434878439841106 0.3906613847455788 -1.2487516382057784
Ni 6.045333579960916 3.9075831325105876 0.846151628342997 -1.3819417239389231 -0.11014323121601031 -0.20807192264369972
Ni 2.277771667399123 1.4026829988882665 1.7912157418929646 1.860901219000963 0.9137888325740843 0.7716780473125419
Ni 0.7377964326188264 1.658692981697294 7.947290180819265 1.7190843108307556 -1.2799692014591635 -0.6836321622162034
Ni 3.0954396981608374 0.6068570199040384 11.24875013010164 0.5612823616316721 -0.11765393777075867 0.37086851838936774
Ni 0.5103070631124351 2.703498732612544 1.4422528050148309 -0.45646722749679447 0.3718676490778434 3.4746775152208222
Ni 3.9251008226409865 3.29203019426765 13.173740688965047 -1.6487157884095218 -0.6058508922706662 -0.31334779846507965
Ni 7.350526422735208 7.149716134394132 5.632365833897941 -1.0228120912530385 0.5530712865757894 0.24740671568758035
Ni 9.093929882749286 6.165662436149811 4.388046270282009 -0.16638071355250056 -2.0029384707120923 -1.718579603280195
Ni 4.4647530242492 3.9767284999983534 9.145329913420332 -0.25581679412814656 1.1261249298107765 1.8540101483080842
Ni 4.1484721931468345 4.205346849006017 4.74439014199797 -0.841705641454589 2.2289705773786386 -1.6233744814312558
Ni 5.900620617330605 4.007534834094549 12.027032507950523 0.12362969573821934 1.6325425210837692 -0.6721395881955715
P 4.722641554916901 2.426463820074903 11.330867657137633 -1.82334974310975 -0.6681587491709525 -2.5283855678127103
P 3.267627579965557 2.220545362187085 3.6822647350615605 -0.8539417785094648 0.06650569703171773 -0.19382878246112425
P 6.415962743940108 8.61200369859138 3.7426845716333452 1.3626612784427565 -0.8757506468544402 1.8962652003225535
P 1.310884009932346 9.114316291284558 0.38537067500810135 -0.48534508687340927 0.6146605201424962 -0.5038403174641194
P 8.517280467648556 3.4753505542693426 3.5777721298605965 1.2638584119402299 -0.39839834837852034 0.07819933131956211
P 2.0606004302199348 5.458264239299262 10.296887153932126 -0.8478855450130559 -0.5870489290728148 -0.462032637399714
P 5.776654966518758 5.933305499285475 10.130444112081422 -0.23056110488515133 -0.7330405374460021 0.47019331883363535
P 3.985112560884852 6.788202091798164 5.0949243962475474 0.30382520368662513 1.204850565947454 1.5365228737533345
