# total energy = -340887.0712038009 ev
CRYSTAL
PRIMVEC
9.08215890987946 0.00000000000000 0.00000000000000

0.00000000000000 9.08215890987946 0.00000000000000

0.00000000000000 0.00000000000000 13.29265760330096

PRIMCOORD
 96 1
Ni 6.670128212162189 2.228371258108739 11.309845350618339 0.6604104726841014 -0.6047262917479199 0.37721888608742776
Ni 4.776434509050076 0.43481198959254935 5.503027200782804 -0.8821629781386872 0.3820276203299808 0.3763267132904616
Ni 2.5792877131958387 1.6615173933174396 4.691577173918462 1.2641592310101002 -0.0132622643265449 -1.9380278860816362
Ni 3.743892947312997 4.631819293087761 4.721644569130723 -0.7878993942674108 -0.8730849270968188 0.42432843798072084
Ni 3.7634105067617827 3.0609690919421353 2.56578890044166 -0.8247628429526634 -0.9515300558786 0.3516515791412847
Ni 5.445217443033427 4.689173126460997 2.881887991218446 -1.9987128626665192 0.5826731686026223 -1.4971698258770085
Ni 5.34786578192057 4.382741085603842 11.615469987550412 1.3488734806300446 -0.25354059649946015 -1.1974175067081765
Ni 5.9398045695585635 8.169193029462678 12.349397430800517 -1.1768322263576572 -0.006431100337324408 -2.01649409790934
Ni 2.1899718903332785 6.249315462278508 0.07642182595709919 -0.30538792018805466 1.2598153522191076 0.5467065207000262
Ni 2.5971069089327012 1.5290177773107703 0.27153566176452126 0.7918144130511009 0.16058004771032344 -0.2702077727424959
Ni 7.910197104473838 -0.15967979290866133 6.543908909026081 0.04656782045721013 0.18083057042924341 0.41138010535016895
Ni 8.836323010528544 2.705702282748024 1.2127479419469036 -0.36766723784325067 -0.48321081413922595 0.49405161350847177
Ni 6.954517853399892 1.0068662985627108 4.563821169498623 0.154172858632399 -0.6770912757738919 0.9017856374656211
Ni 0.862994911413266 7.506086444783882 2.3998560411390994 -0.9732718184310658 0.6891127257148003 -0.21566464738929308
Ni 7.450258414103713 3.878426966910419 3.7193120842845473 1.3616744890494548 -0.5051708633500848 0.6944935304107395
Ni 7.632718986149364 4.0364292850725985 12.687043943537397 1.36836655635765 -0.6406456313523483 -0.3418191664318952
Ni 8.235392885592132 7.212305851256723 8.97572052621011 0.8526336012210025 0.04683161564155806 -0.9353745291646601
Ni 7.184559855856052 0.7904847712889225 0.3719779815467243 -0.7657899639628812 0.7478722031421959 -2.0929044556492795
Ni 1.8468297632536987 6.3778280105336576 8.930007295882714 1.4162752071134705 0.9953750780880084 -0.09455154742534039
Ni 0.2589105526952999 5.178665161850362 1.0819666704017095 -0.24581134617600245 -0.9950536901928477 1.318528292679284
Ni 6.436716728758845 1.9629724111043594 6.933223823672752 0.8570255596411112 0.7088536557871534 -0.7253187433217121
Ni 3.6802724243075327 4.572476466918212 0.6940186206675749 0.11637841349244472 -0.47279450390190836 -0.5316483408153232
Ni 5.968186316081343 5.79588867983057 4.826696992764115 -0.021062734207570176 0.550797145829632 0.9223092113402697
Ni 5.53149795246268 2.896436701539995 9.280149042816728 -0.7242249960369012 0.6117978538827206 -0.6231369330446236
P 0.36158889999555355 5.694368307788446 12.226094408883117 1.3928388304674013 -1.2707700514583986 -0.13851509749048402
P 4.332098967648315 6.063312848266815 12.272246307484767 -1.3516207043578787 1.314661867745342 0.9134304207934011
P 2.248124953688594 8.274727715732984 0.9409470811428734 2.095056983215908 0.3275030069195392 0.8761134295104975
P 6.169755750425851 7.824715825026667 5.769306108983362 0.5161669573502723 0.5342839786659573 -0.18413932308750222
P 5.129230971026844 1.3266491129841813 12.424075482251256 -1.4491637303113751 -0.16325733743217044 1.8530128173918217
P 4.071804293938592 6.174178761803961 8.4082309102967 0.4623697090241585 1.442928805145257 -0.0973666482766323
P 4.5758641121831705 1.0814671516629084 3.285638997416464 0.5154390780453123 0.9178789434830579 0.8979264116205311
P 0.34077713290532924 5.86119848438907 3.6360205133451027 -0.03326724669356206 -0.9710637550361535 -0.22645505313657774
Ni 0.5774936139277593 9.136197732669073 4.6417297448655725 0.6659072341326144 -1.7280546326501656 -0.5477077082710309
Ni 2.1549329213461146 6.411550066482164 5.005868915076676 -1.5744774986202368 0.8353701861548646 -0.021571298412872527
Ni 6.185195420534243 5.935290736591579 9.306030470997838 -0.845382318975228 -0.7971646216194207 0.03104169979715299
Ni 8.535876112378112 2.33295231769588 9.793019463397867 0.418198413823583 1.2764385625980856 -0.1711701645213439
Ni 3.0592798103890995 4.904402127771988 7.0396985133878935 -1.5918751252713939 1.6722115575386167 -0.4371723838229245
Ni 0.6117006571608473 0.10371552984518219 9.204793462312995 0.6203382872535639 -0.35608544654292223 -1.3287535699517181
Ni 1.2879863626009889 1.4123120356090977 11.005761956049438 0.744249518787944 -0.02817337711042245 1.9179789378505616
Ni 4.3246697616785115 6.888872008962562 1.3168122266933577 0.09851850249288839 0.4463861891117087 0.13667007386194527
Ni 5.4064275424258135 7.966524653892809 7.988049370455685 0.8320714607989347 0.9409358253025213 0.7179108808934151
Ni 5.247099229066089 2.929068898422027 4.474135758702527 0.691653489858783 -1.451028808544572 0.9876959642761957
Ni 1.0661273853022761 7.938142907370028 6.929940623234997 -1.990978727247055 -1.1092322678204962 -0.13593088170307557
Ni 5.476169440521311 4.760577059632868 7.288815774155029 -0.3601030523427476 -0.6813855322738717 0.05028537851811339
Ni 0.5795225682231798 7.4745985999216495 10.860273944618054 0.22699472769013165 -1.1687440500328838 0.9120407395347262
Ni 4.821100566457766 0.7805280005007867 10.36600015257453 -0.16639845416431343 -1.2102676231979674 -0.172857836636412
Ni 8.118169460833885 7.176340502063056 4.870761811253467 0.8127107968841357 0.690983460374952 -0.8988628073918713
Ni 7.3556768114514774 6.300502509767273 6.879335742130908 0.08580285469843286 -0.3608733548498688 0.6636135530024313
Ni 2.3628144561172886 5.695094880499429 2.6452923029092164 0.27648229289729803 -1.2097983968710326 -0.7852313605169444
Ni 2.473934670103278 5.651073656372736 11.130978588844389 -0.8264926811595765 -1.1906768455502332 0.09491021631633977
Ni 0.841601886154255 3.550352141424854 3.463721060662552 1.2331275585152763 0.8327062661694562 -0.4657360543932301
Ni 1.3477378859204678 1.0170837273109117 2.4211246408213545 0.1572023894873422 0.6044072178456042 -0.2538241891781499
Ni 1.2173362486167623 3.1807355211888244 8.004492619121123 -0.9965786114778064 2.168335480195085 1.0685224488059597
Ni 3.954562704862569 2.8290016718018687 6.760180542177332 1.2506395992571107 -1.5374610692968878 0.22350831180342798
Ni 4.106007704308125 7.15565134411781 6.1532244048192055 0.45643097494222035 -1.1905935418078077 0.2046364145995895
Ni 0.6776979811471152 0.1340908102437226 0.025807862694122417 -1.1937266881201507 0.9246219186338464 -0.7314559665677016
P 0.49916271817255176 5.770576703011694 7.502230160120339 -1.0369081643347884 0.6549769603733558 0.5445845892610169
P 8.865622055098939 1.507656539607865 7.6878885603102045 -0.6799639693359967 0.17694229111843077 -0.19143328564575418
P 1.7171002057076528 3.382668241888824 10.271675575018806 1.1740821744163457 -0.016116703056204502 -0.20823801590791877
P 4.002125970955305 6.5169576025280485 3.7885935169244593 1.0306817238091024 0.10683319300617085 -0.8770644805698572
P 7.0637671426551 4.081431382359119 10.18121818071729 1.256904606330216 1.1081655171188785 0.03856037677170133
P 6.603374344340611 7.853442693587165 10.247203697897003 -0.6426397789642416 0.8020216926014059 -0.7646985306709153
P 2.6056532204456406 8.543804837086716 5.612691544699161 -0.6306188432439656 2.0640893311897996 -0.14691514862872118
P 7.015876918842421 4.305134037911952 1.5450723095758323 1.7424445828232507 -0.6678689858446757 -0.14719565598361745
Ni 5.491545535517492 3.0178833301808328 0.7082421897009593 -0.34503407382476703 -0.5398241917578961 -1.4755612464682974
Ni 1.8169676248322901 1.4079525993431985 6.820249941057867 0.33715030020131614 -3.2075949183708694 0.798053194871961
Ni 7.259078969526264 0.578446332395036 8.893612360573679 -1.6844901177956537 -0.7862302340951041 0.3695919656697893
Ni 2.81546017290092 1.7565258574373772 8.998517653233096 1.1433616054040372 -0.4153000092298654 0.8556716167163779
Ni 6.478240359191532 1.7688503470474293 2.4147308009647026 -0.22237368397835253 0.8191889484093118 0.2953485336741817
Ni 4.0901865835264655 7.293391365802446 10.343282948549753 0.8838053988381166 0.16058570413727827 -0.34552618296983717
Ni 8.552351148599657 7.229343981329278 0.11561769906697536 -0.9579359594049437 0.8523314965995514 0.8388961970302521
Ni 8.039844922589898 4.113391499483491 8.022903063401548 -1.7463909690655086 -0.26010796530433267 -1.413120720644889
Ni 3.462845540545817 8.59352057483574 12.36207884925484 0.16618453838129446 -0.06846410630966919 0.6041884169665788
Ni 0.27994846554181774 4.884203406406655 9.735303251885028 -0.6832462396316942 0.19796723010953005 1.554771278440561
Ni 9.157994913998571 2.1455964620099808 5.35924027771101 -0.529514582301772 2.0288857867054735 2.589748544301224
Ni 3.6456784811058465 2.995187015121496 11.753540599818546 -1.1511204234138497 -1.2253440579151156 -0.4142877659152671
Ni 1.2211689196671986 3.4858597311662094 12.444226976390373 -0.16336969464031864 0.7454057438795744 0.4752319096988073
Ni 2.8714789289177225 8.43424675442934 8.154447236293276 1.803934571807932 0.6880529169917182 1.0094716653903906
Ni 5.638540277108276 8.096435854616601 3.4648109197290267 0.1928787598430291 -0.13373953047871162 -0.28511091510657344
Ni 3.1868750605966323 8.55216950542191 2.979150647174208 -0.8443027127578041 -0.8050478810222393 0.7429549683462366
Ni 3.435172202416245 4.302536540470187 9.297509589529783 0.7890563906899895 -0.9234543806883064 0.5340384383140545
Ni 7.6432452082997315 6.169011013397093 11.319881136188792 -1.6368023248013877 -0.5174095715081218 -0.5535253433940724
Ni 8.113010794585904 9.114491372928452 2.237898442781506 0.44280284263582453 -1.5537065846214726 1.1195621889915943
Ni 4.646777608775128 0.3234674462820438 1.1719136473737604 0.7754503698707808 0.31123923676250914 -0.4883422218285202
Ni 6.177775296723327 5.686730212164235 0.13489548952113647 -0.1657623632422113 1.678448025366632 0.5691180556260069
Ni 8.098261368552945 0.07302328210147538 11.273503091830849 -0.37356920514998243 0.18333199669485847 0.15568492440155124
Ni 0.1347610735696046 4.90157757635804 5.6242958191094505 -0.2741752420306762 -1.2395005519211557 -0.31032598091962044
Ni 7.341735697559488 6.221224344840121 2.7833892534381226 0.612750447603977 0.579661378359492 -1.6450087718715798
P 8.587517267811242 1.8048338605588714 3.4459354689135724 -0.5339937011190481 -0.5569048013892667 -2.2218527353869346
P 1.9525915034961874 3.2010432284608044 1.4078254491187767 -0.6290592120663295 1.0533583394710118 0.21555100462956425
P 4.849900092289362 1.1457506722671449 8.15154911939234 -0.6207049265643633 -0.5714112225355578 -0.6944940446313717
P 8.657422644766712 1.9028303549527272 12.377537591896894 -0.11494862302445363 0.5104614223250629 0.16781127535144003
P 6.542523879795769 7.761213370086738 0.9600432284192887 0.5845212775549546 -0.27708033149261313 3.3706280556073756
P 2.0043053162004147 3.397299599856247 5.9860027871705395 -0.43367979728863376 -0.0350860450698557 -2.2673216663530114
P 6.9675689157209275 4.059071107178611 5.897859526953504 0.049499906502340554 -0.47089651554824713 0.17604317634292907
P 2.307404204745934 8.586545476810302 10.596600707802262 0.7781929656129243 0.6040943145908757 -1.8670800941181653
