# total energy = -340885.2251821589 ev
CRYSTAL
PRIMVEC
9.12877234696251 0.00000000000000 0.00000000000000

0.00000000000000 9.12877234696251 0.00000000000000

0.00000000000000 0.00000000000000 13.36088108023272

PRIMCOORD
 96 1
Ni 6.930856217936481 2.307014262492479 11.538617840586427 -1.046204759145366 1.2859297899179722 1.3345732619572885
Ni 4.68438397479692 0.499556557246011 6.076060781091053 0.4213724406761904 1.2140975384670187 0.0007389350485535661
Ni 2.9197557315827334 1.7057659180049562 4.743700912877649 -0.12774628900975418 1.650087729056384 0.6692023599441185
Ni 3.8236594001997264 4.625119983596808 4.799348997282572 -1.0872141116781922 -0.36660228691384605 0.7206025687929655
Ni 3.917722272246238 2.9380771780304578 2.6326549229501626 0.10189590360555353 0.8551733369237208 0.4410115550633566
Ni 5.290461439947545 5.156752308846491 2.334306553695648 0.6323473958992981 -1.0979582375685735 0.8135111812982442
Ni 5.610406659229975 3.176712420476874 0.47868818326519513 -0.05392683192544261 0.31644726332600986 0.141744145950743
Ni 5.426708369809171 8.209368195685915 12.45016320467995 -0.33699474846005834 -0.20989689166758044 -0.08693105476560511
Ni 2.2036309137030035 5.478605441585609 11.789146960749207 1.2911049063610087 0.47665321552636625 -1.2812974333522835
Ni 0.7689858880342847 0.34687053383029354 0.5792607829957491 0.9826481174396431 -0.6361647127628592 -1.308218940333476
Ni 8.243756281768912 8.966718550266153 7.080639291690825 -0.6078332128080177 1.7332346341892084 -0.033432311516516613
Ni 8.586249569175846 2.0825833900872475 1.3138311986294757 -0.2226277089706875 2.090753727854864 -0.239620129763626
Ni 0.5853852764794453 0.689580173145952 4.956673350015723 -1.5970805807317332 -0.5528735687426866 -0.32292464352023736
Ni 1.8280732122284782 6.9095861779647825 0.7649701410027183 1.5077128915001776 0.05170231347029806 -1.8181602284890108
Ni 7.924440947790365 4.177609297119313 3.863740188826222 0.7199965597778503 0.09260547944256309 -0.25124768670022535
Ni 7.866783620553781 4.238315634377591 12.933867648444908 -0.31416952303542667 -0.06531836159183589 -0.31551549554035985
Ni 8.469291735649069 7.418661306317441 9.534298155945256 -1.2094422990831946 0.5467695127274776 -0.5495804998137116
Ni 6.553764882678588 0.804966032044778 0.44548227322354256 2.4481584074298417 -0.25332770915770564 -1.147345786862766
Ni 1.83065665485165 6.543896679584423 9.192994347597685 0.9158323453666742 0.7272668681870185 1.17003602937143
Ni 0.19550453092097414 4.852262101440491 1.3274385469478502 0.06821856595776637 0.6971224833931542 2.065411392435333
Ni 6.433721524040037 2.6796416279880706 6.997814851493737 -0.3615708951375257 -1.5413511483799132 0.7323255136568485
Ni 3.614227101044924 4.613572086358954 0.6519057289557388 -0.7031933721775825 -0.6195121918078428 -0.5399717730793538
Ni 6.415600910587753 5.99699191790871 4.466756776550876 -0.6768969003748987 -0.235373181561814 1.4111635969185181
Ni 5.738802844724365 3.23890674765592 9.394182452289638 -1.2313123596834084 0.4159394425860772 0.7009202598726896
P 0.3876524121863289 5.877386740351121 12.665848713010979 -1.6979411010942371 0.5496044110731115 0.43734516195536294
P 3.9330586100799088 6.419891433672173 12.86503213925753 -1.1885798538118886 1.5499617728670596 0.23799416412442884
P 2.797968777392854 8.925429112158003 1.4483199269037417 -0.19700358064468007 -0.6489520943355147 -0.655485010358026
P 6.429312326912856 8.24987255935734 5.916331909676124 0.19436022948456202 0.20895741057244657 -0.18485923197266227
P 4.771965418354203 1.5111861317402624 12.609973322170307 1.1641307196305888 -1.0314710524796171 -0.05301203342065709
P 4.206757467775806 6.363722096356355 8.266270573435092 -0.5431437430494324 1.201511217161576 0.5134994378204382
P 4.900370732621113 1.317354904822212 3.853545175675839 -0.30330635506867765 -0.4705108500740542 0.7950866560444694
P 0.46296022109041485 5.982833191730125 3.592941542159942 -0.13240255683484295 0.005065330338049341 -0.06446449823197285
Ni 1.3456632284068621 8.026975320735476 2.7721425670564037 -1.6789727875218503 -0.78712574932618 0.8197538197738462
Ni 1.9325702712653983 6.866909166433587 5.015635178845422 0.4521709141142857 -0.4375526499804787 -2.3738836079756664
Ni 6.426701497972124 5.8505755354597575 9.273694522429361 -0.8606729265857113 0.8227314143449314 0.42276495014834287
Ni 0.09319929016611617 2.7343503617006815 10.539570453256552 -3.4980922946003368 2.2954677897699245 -2.0443311747262665
Ni 2.531928959841272 5.6027750054032195 7.0347708612866215 0.3289045152527561 -1.2068274871681668 -0.04912915342648313
Ni 0.6024369106696317 0.11618736512608577 9.186527525144488 0.8099491749785985 0.8756876548269885 -0.9019954394835821
Ni 1.46277625106648 1.292542901112738 11.020776351982773 2.6846849858698083 -2.159802503023409 1.9387092284193772
Ni 4.410520799195662 7.313945156740041 1.8926090695589146 -0.7397318334232486 0.7602479510987293 -1.3941464935352312
Ni 5.48096066489578 8.30844276384593 8.019227731497717 1.0411232308574006 -0.26193910497580053 0.8334166619729195
Ni 6.932152503634327 1.2398424973545359 5.109107419309888 0.695416299335325 -1.4696250834895206 -0.15480432156881083
Ni 1.0074330777667881 7.619768164933966 7.08333775684775 -0.7144751157389889 -0.5246881074474061 1.072380131989153
Ni 5.229791617779346 5.024686356799044 7.098141887243501 1.5382884502941894 -0.36224735237926 -1.0434338812684483
Ni 0.7004142003727377 7.872114823705485 11.543641404104207 1.3122308897063466 -0.4777762733872159 0.10889264663836086
Ni 4.5294048037241685 0.8259859436494266 10.247007900025238 0.8243944038696513 -0.8377895942296346 1.3773235084406217
Ni 8.157598926724758 7.750209195472845 4.6362260482446915 1.1377028644563631 0.16267883922088114 0.725498463432686
Ni 7.602606072596286 6.6863785610772375 6.949235175651081 -0.6967291046094775 -1.3171123861683638 0.3398746411110147
Ni 2.658271171518652 5.725173587351941 2.6707602452033217 -1.1313013318053935 -0.8267351361876858 0.9246028924704528
Ni 3.4334865339206133 4.506801962964545 9.280562097996189 1.316219184930133 0.592337945385896 -1.0924936149095765
Ni 1.2303942177962925 3.446166398950952 3.9632246388723873 -0.09128418952797827 0.5081607992163442 -1.093290142668943
Ni 1.7596256758732038 1.2945694886121872 2.5410522550978016 -0.5339602767779514 1.7377232660881814 1.3564613202796316
Ni 0.9317555535756405 3.828707611403309 8.096694495102792 1.537511720029165 -0.7067031851030539 0.07867112874965806
Ni 5.725684798613064 3.2650059082907195 4.6565476087515565 -0.34032201306107845 0.8249944993474954 0.2564479999542422
Ni 3.8894869788417483 7.4013257673018815 6.107125081099504 1.5777659395635215 -1.4409140887080731 -0.46715633177952454
Ni 8.648681244440413 7.568647038821731 0.4792550800386897 -1.0593587800288207 -0.4304394359744652 -0.6644427337719461
P 0.005046385449079183 5.777609256707063 8.358473914519271 0.012520243954197792 0.46545349015580484 -2.27372525588651
P 8.762626583035576 1.8531955942036336 7.95844927693653 0.2263640360846682 0.27362091218910295 0.2925761131353671
P 1.9140936356848335 3.7691606282550754 10.378705962540128 -0.8553715689774558 -0.6190684194022048 1.0542376567521714
P 4.311482746125727 6.4772018675529965 3.9536585981486354 0.14589724888716807 1.1802978163087543 0.15863706505133968
P 6.688870715975209 4.617250981684532 11.14091738848729 0.8357715353583414 -0.6052708513974802 -0.41141095858810434
P 6.468228284165796 8.328672123750342 10.160148542374293 -0.9327226933641097 -0.8198083271608655 -0.10880651468245778
P 2.1326181922695975 8.849578141288976 5.765193213202553 2.9389717165066735 0.26742378223945557 0.8824326868603061
P 7.173234257116114 4.017874035563619 1.8318306149977275 -0.3454505925368954 0.23239507277009652 -1.2374225863462043
Ni 2.8191566584118717 1.878299718633749 0.40431516066716144 -0.4606504123402067 1.8606921883139502 0.1760352059231291
Ni 1.7500222071821199 1.5669629318377187 7.018109938560294 -0.5840163128940781 0.14628728523673515 0.14408744937193893
Ni 7.264731944084494 1.337620779816705 9.501884623358345 -0.4263830065169044 -0.5153138653213577 -2.546433940673989
Ni 2.779483013039769 2.026359280136309 9.130305240948054 0.12060427864833426 0.1330407046394741 -0.2064426145703928
Ni 6.622778402930106 1.9592262870239208 2.786411751382481 0.4186581270688209 0.3489544919250958 -1.1982955384377556
Ni 4.2461207348822265 7.3653949186629974 10.277229614330091 1.6459364258921718 -0.676137653611371 -0.29699995323467554
Ni 7.493827619247467 6.882035542499296 11.730773937747053 -0.35694548055037234 -0.8432256776435413 0.06866233836340432
Ni 7.752947827228858 4.012707150317275 8.503546541653273 0.05425439046819043 -0.502042087913116 -0.6283333896438985
Ni 3.005401875365767 0.12035556265873693 12.333629859075355 0.7207828031245715 -1.5699790965292508 0.267318624120159
Ni 8.83122930852369 5.204660107031671 10.340066607094547 0.33803450257848233 -0.7411305135429881 2.4656408804853216
Ni 8.884943006031618 2.828294559704433 5.867537707679248 -0.20400109500843575 0.1430068147132505 0.7501406874613984
Ni 3.676302754181209 2.98643228606912 11.584805778028834 -0.5205103219206326 0.7850151307410803 -0.5208736187973223
Ni 1.132789382012004 3.5808249223940907 12.840514994900452 0.5651634418536331 -0.7974880663971103 -0.15272558466291117
Ni 3.078130806032941 8.704430658220309 7.859431307166139 -0.6533625646983844 0.7665199001503702 1.7645532417968322
Ni 6.080054619068572 8.254345657892161 3.449900066911649 -0.7626493614513704 0.8650358315400973 0.40195341271963037
Ni 3.3403274103535856 8.726221038225649 3.884836782120039 1.5126532662245884 -1.1178662893464102 -0.48072532871321083
Ni 3.9075254333413514 3.1081370813063187 7.073357269851587 -0.764307980100716 -0.5807764658005417 -0.4482756928249376
Ni 4.72143766245577 5.253937221094858 11.296625035607141 -0.3866232101204632 -0.6608089936741006 -1.0320770614947323
Ni 8.250328997983342 9.121378214300705 2.416515714624886 -0.16899732523974123 -0.1612747597845029 0.3774731681900789
Ni 4.646353508478425 0.929217754815069 1.527001730131235 -0.5455199565910928 -1.2345655765133834 1.4237632879603996
Ni 5.852173070650765 5.786619355184344 0.032047468808859225 1.2644009147072612 0.10617396215561715 0.7740630026049508
Ni 7.941712585398284 0.1883092324206771 11.33396901823213 1.1120242287433364 -0.7346834723660637 1.403199604876435
Ni 0.368090365553131 5.508648231949067 5.901368025761271 -1.5047350398187764 -2.043020426334643 -0.11410530118755188
Ni 7.771917416525505 6.680928683882772 2.4832671250459364 0.197195384940512 -1.4581584776108178 0.49950415198261067
P 8.680385471402518 1.897424497063237 3.651729011434508 -0.6658347290234662 0.6985597300603131 -0.9027181765822195
P 1.9727916429887031 3.6126386946264364 1.8690805712657586 0.3019968922286348 -0.6051458957838417 -1.1592695348835456
P 4.882250119168829 1.4724162348476444 8.266337213474488 -0.30063934975947576 0.3447119145986579 -1.3465060088391325
P 8.97883243140025 1.7703063397216527 12.488576166567034 -0.7698854741884934 0.14083191854911875 0.8314438545172649
P 6.456004857761459 7.825603727715871 1.191361412255097 0.39877732898449386 0.6970553776006446 -0.7340373541416326
P 1.9512751261589643 3.5878449484620027 5.957910729873158 1.1482762690968353 0.25677941515173197 1.0707636794316526
P 7.283683275836101 4.369541739353195 6.109315986504314 -0.5151667982205321 2.0338457018139104 -0.8800641866281295
P 2.6332035621786174 8.59819913240458 10.25702855362049 -2.9551601533410783 1.2677389779415587 -0.43602747158520394
