# total energy = -340858.3025708051 ev
CRYSTAL
PRIMVEC
9.37267861669471 0.00000000000000 0.00000000000000
0.00000000000000 9.37267861669471 0.00000000000000
0.00000000000000 0.00000000000000 13.71786256040295
PRIMCOORD
 96 1
Ni 5.793927575791286 8.388500628781829 6.748516162364586 -3.353259739532257 -2.0378267979488456 -0.6603330824789466
Ni 2.7239347652665313 0.5611600855830063 8.113703997420545 -0.058732995064834335 -1.4494023286847424 0.7623344013141129
Ni 8.860415004458973 3.913205855366744 9.023856713982223 -1.1724127571337228 1.9640019415478949 1.3230786310541278
Ni 8.07264135449544 5.6272907200779985 11.880505798717982 -0.46027580260960727 -0.028219399857009463 3.684825089446628
Ni 6.975812995026878 6.215698120090619 5.45715785518641 -1.5476243829831346 1.3971842519202904 1.0480875779903758
Ni 2.7975852749799572 4.9910264223055485 11.300665964361896 -1.1249944157507592 -0.03388456856258681 -1.3596469170964647
Ni 4.268167945449064 6.649662519459585 6.096616361881021 -0.8458415179998335 1.4495182854373165 0.7218989190068857
Ni 1.100399350076962 8.878138739998306 0.027595978079567304 -2.8289151314671988 -0.5156589073656023 0.646171446266584
Ni 1.7625978499844408 7.080308990546729 9.59870372236168 0.042714765259707084 -0.3099637124841952 0.37532398305756004
Ni 8.910436991012874 0.9280685920156353 3.4664899265417954 -2.213243910672001 1.269287296265285 1.4987009178095545
Ni 0.579335584238679 4.867625733722325 7.182769240239428 -0.07409405090193691 -0.5990559808360199 -1.039462555325526
Ni 8.431614951087983 7.306527965151368 0.45210896818472307 -0.584902057933141 -0.22764315990740794 -0.36893607725334526
Ni 0.38418703973075835 3.0071115087091043 0.3152256812020648 0.6807507269033501 0.4915990382029211 -1.3266686623982313
Ni 3.860025276069979 7.997472470822536 10.570586775787007 -1.4238784733820253 0.7959793430620679 0.9944582227006937
Ni 2.0456714939606293 4.908453122410501 13.705393534488175 -1.4655396005662373 -0.19305565174052558 -1.8433282431142062
Ni 3.213497895052911 2.8743193960061495 9.691368585479998 1.9222433695538699 0.4941554860761877 -0.11778866357641005
Ni 0.3881619927938105 5.792128021468941 2.996296374685393 -1.0645035574545538 -1.1744776100825516 -0.022293264180561604
Ni 4.387529009485775 3.7100155524808494 0.4543312303192425 0.29366086155911364 -0.8301467329723962 -1.3153776628654443
Ni 0.6980649297268177 3.99373591129163 11.02117830728013 0.09073011679672116 0.41101398026000185 1.4362393089402232
Ni 2.7254906299410577 4.079823965722505 5.496459371772098 0.4108113773308925 -0.9888465329408713 -0.4659052329812428
Ni 8.277096969014233 4.679684779182542 4.539254870556265 0.2527109015093132 -1.8314258352496653 -0.702202726129539
Ni 5.387696932879691 3.287214013517673 2.4315053133499074 0.49050529091811007 -1.0327496620817245 -0.41894891883636237
Ni 1.048746517418437 2.041913049776984 9.78102856778715 -1.6944330879409786 -2.0157273949466448 1.8182301624949977
Ni 4.642109710024853 0.5460016522208883 1.4426661467758715 -1.2046333077303253 0.250489211267646 -0.6368188014070905
P 3.454638174246984 8.582786886843627 2.820886691650681 0.5586441526778766 -0.8802978999054905 0.7715214671300197
P 4.577775643001061 1.8247105921415891 8.161963920367153 -0.2751802862564228 0.9043456848833136 -0.502651696472657
P 0.4978673231696959 0.2678542882021161 8.086542911635545 0.19614174686501704 -1.0771233031010934 -0.03255016602187942
P 6.508594331409601 8.360504437319117 13.24917839573773 1.0129740221166943 -0.5933800134971653 2.1217836005774746
P 2.905867832719739 0.23949068773192397 13.573441213802317 0.9770384845623495 1.9438545200657422 0.2803158077107753
P 7.722112541467644 5.512006771302848 7.955208250480114 0.23036595815520974 -0.34169395370794053 -0.06742872306661936
P 4.692262914081424 4.706181342043303 6.272176945043805 2.7907422199419036 -2.7060739930685456 -0.44123575525902076
P 7.584502871880915 6.714399611670151 2.750801548938399 2.7841496543260504 3.1461350112931754 2.057853634692733
Ni 9.229989100731574 6.7973946821094975 5.152018113600357 -1.5503888331021494 0.05216331226711662 0.3822543916288062
Ni 3.6581940116046043 8.847265136155595 5.22221197938628 0.29346185817443005 0.15875996378244916 -0.8934696614007581
Ni 4.538232311303308 1.4984288990716244 12.931938525869667 -0.7072256332654271 -1.5420242631875378 -0.28872331504818016
Ni 5.19458225966317 6.934957488302416 3.9385355197216096 1.040754277553756 1.2766879596047302 -1.0301042540390775
Ni 5.674022896386365 2.761978468362331 4.78059291327222 -0.8314752219758325 1.4935995920272471 0.36049874511926944
Ni 6.48825561849561 7.151616330569603 8.594872018839617 -0.06234513789612489 -0.604544771864733 1.3700269747792082
Ni 6.080778409308643 6.113714002479039 13.506374073651465 -0.49409917891695554 0.6292541016859551 -1.1102553097683718
Ni 4.324300918555924 8.131080006577802 13.362611240457346 0.36541083770890614 -1.292628799204703 -0.6379367170616175
Ni 1.4013466924526803 9.230064082161672 11.098094258274307 0.3062638950351048 0.873319154594812 0.21055715095939864
Ni 6.553648798219531 0.9038777081303779 7.614374536363946 0.7639796502270197 2.566411669347496 0.47550727484738103
Ni -0.003594422305306545 6.968305479338349 7.91228513082071 -0.1038496848978147 1.3529939305563214 -0.6895369577364125
Ni 2.172952471551406 7.114256833023444 12.539361064110981 0.28438200736034897 -0.09971483679383471 -0.6590344182721811
Ni 1.8233702990785936 7.081986700045164 2.023604459082888 2.405129453363825 0.4164253810835603 -3.1884119176845154
Ni 3.184976833579514 5.034778086767533 7.675514394465578 -1.1201913379351611 0.25595769058138496 0.299070205500143
Ni 5.21624252028263 4.417858997960279 11.584474426353042 1.8355907652606323 -0.19347165623202164 -0.7398768436415452
Ni 6.613230917110885 0.8932612748964256 2.6683435329921266 -0.11262768820076086 0.14934998332245894 0.9115712560974751
Ni 2.805945704435846 4.4270442231472416 1.8955614827087437 -0.39650987310655583 -0.5697963126399541 4.009720483539992
Ni 0.6937356894065541 2.882792297607185 2.7307187101546173 -1.2691530846802659 1.344370964774001 0.5644160221646473
Ni 7.245671161948354 0.9599216407889972 12.730409998928312 0.10134105954334806 0.6341507676566239 -0.4175839201680357
Ni 6.865206012954068 8.812108218118556 4.667214430089426 1.863296715816333 -1.898571479858227 -1.5729926865445942
Ni 6.287764647093232 5.458188849850252 2.1714556547530814 -2.1007820586251436 -2.4159491696871487 -0.5553631679337596
Ni 1.8209708933154687 8.053511717141774 6.538852150257634 0.8153094108492475 -0.7251513645059124 1.0293948866768787
Ni 9.24525719443521 8.264162672322385 2.649632854379132 -1.680977219546389 -1.5065517813125409 -0.36757724923260565
Ni 5.754834132674118 7.87185045737267 1.59202634372678 2.736449005815978 1.0798584426440692 1.1925465517691205
P 0.371328661736886 1.9356924813648873 5.474648211024565 -0.1738808785842876 0.5123987485570918 0.7477559892793058
P 3.886137559101489 0.9721904772887268 10.738548928277268 -2.4666644366538293 -1.8720744620089629 0.46546428878908225
P 0.09495742034355202 5.373525442591233 0.7701605120335935 1.0986056413445855 -0.05981748637826472 0.5387656685863946
P 3.989180789413197 5.325527954649969 12.911499525292921 -0.17011189846015864 3.540815030279844 1.9462973251792806
P 3.7816603089391627 7.586611724602411 8.157930856695774 -0.7343991083564255 0.0023512738409959505 -0.5316977059960197
P 7.6034731736956225 1.5964015101729787 9.760437729814454 -0.9059366835195173 2.207786744212172 0.24082469159468847
P 1.6593859114550127 4.380321419517637 9.049070157120436 -0.23413390983807422 0.47722142932501044 1.380449712774429
P 9.181129326344186 0.717444817603434 1.4631060846204935 0.3558262793442646 0.7212486870173965 -2.062811235808325
Ni 3.154412528135956 1.8685372380336713 6.124586309843201 1.3635015149558647 -1.0235371423445212 -0.6756936240954169
Ni 8.673776852267137 2.1284697381459696 7.900240301343397 -0.6714708442633209 -2.092831950540131 -2.01934519420489
Ni 7.622349748722708 4.479015726883682 0.4260191795822425 -0.36852650051975244 -0.14800169682468062 -0.8317433880355546
Ni 1.6221951221265736 8.001924493234585 4.056193568027228 0.7163857024981405 0.7269531936013416 0.9857694366774442
Ni 1.6604731421914287 1.0672200672587477 4.073807643225044 2.664619325468185 0.03884448367102342 0.10572787575713405
Ni 4.000137450886218 5.950263857544904 9.581776664517134 1.7079136389259164 -0.610572980336684 0.34472965521047083
Ni 7.670103547016155 2.296587477103684 1.0368507135334433 -0.6851136318577362 -1.0552355018890667 0.5566664601262155
Ni 2.5407457588591873 2.6233284314329968 12.142188177955184 -0.6578468257219832 -0.57271142940422 0.2666470519744311
Ni 7.94390761169652 8.978726328474318 9.75043708157518 0.7518227031495116 -1.6373142314407998 -0.3292251318169685
Ni 2.284393622034052 1.9717491765630992 1.4181256619727838 1.2213447069477354 -1.015527127555851 -0.9769127576177626
Ni 7.890220907746596 8.486370140416799 6.929770647875411 1.6993066139831958 -0.1718713043534266 0.9707181987712766
Ni 8.556899548102411 6.407144456487468 10.01039113884863 0.12994998152929232 0.6857582074202706 -2.483937107691348
Ni 5.567118122424628 2.059533685849934 10.81455947850302 2.4078764199813434 1.013583630676235 -0.7621053160224422
Ni 4.254062063911941 6.335021693412282 1.3985086453234836 -2.6740277632662783 -1.2102208291204317 -0.3200658339152036
Ni 9.421322964983275 9.01830715088712 5.466088143511041 0.03187807965551929 2.5857972729629597 -0.3798457821873136
Ni 3.049729079040861 6.193831660538389 4.05045936316051 -0.2585791873646321 -1.2251867064016448 -0.9284441205934139
Ni 5.0109152466389535 9.14679720403822 8.93809295423652 0.25555891248106954 0.5378688678037381 0.5892114839417724
Ni 7.523833522253146 1.673951054251483 5.404645547885391 1.5847562548384255 -0.0014647574709845742 0.6064039365606588
Ni 1.6723764442194322 2.576689981912253 7.74890528097729 -0.25432863961839425 1.324288849312145 -2.4881125792252763
Ni 4.1136499633753125 1.3932580706808952 3.5510886623173556 -0.10004419510879545 -1.4979606972094202 0.4518330711588928
Ni 6.830245921171035 4.087987568924388 6.638142559992955 -0.2948281423943374 -0.6910500519468292 0.032253460717067035
Ni 5.678671745052421 4.105476987494668 9.24914591885365 0.1767898247009665 -0.395690462529054 -0.8898037825133965
Ni 5.910533072271908 8.815847916944676 11.357443777767596 -0.01759842980805356 0.497615162490014 -1.4948555759215352
Ni 7.739339525032581 3.510677420566222 11.157231174924455 -0.9283944983024012 -2.046316580587411 0.14299190231491501
P 7.470024973479314 3.4209621394543728 2.9488190704154316 0.45721464718578037 -0.16414411091249795 0.4281632383457788
P 5.473213253906072 0.6755948696623016 5.470546726798223 -1.279858129802596 2.0869765202006185 -0.1767664276621988
P 3.721281512353023 3.426670100820557 3.671791893952815 -1.49916011683416 1.084584130254513 0.17870581077675673
P 6.05788095509257 2.8638032504349527 13.0142325199376 2.5762420251743565 1.205730397449246 0.11486223395823443
P 1.5534465234057822 5.7943868370506335 5.534553687333214 0.5719663237080795 1.2087265039630926 0.016296166056862255
P 0.20620455637582055 7.539485895786032 11.547079312627586 0.13947926117596623 -0.5405093907503788 0.4517965614940025
P -0.11772365705695385 1.7779128070818877 12.012828340214948 1.207721973957978 0.9003512190119397 -0.43805812886198753
P 6.395081818920507 6.683432281039818 10.888937308088392 -0.46731805416836936 -0.41267002780618606 -0.6468543312662215
