# total energy = -340897.7911879316 ev
CRYSTAL
PRIMVEC
9.05532539917466 0.00000000000000 0.00000000000000
0.00000000000000 9.05532539917466 0.00000000000000
0.00000000000000 0.00000000000000 13.25338404801724
PRIMCOORD
 96 1
Ni 6.480814868957345 1.6948671387414518 11.38023035371461 -0.08203438879493614 0.9301551897472496 0.40584811978834623
Ni 4.697232707571798 0.1370260890224265 6.013934970366159 -0.6983419576225521 0.2766069914006204 -0.28229118626959127
Ni 2.7720795893609185 1.7258997387824146 4.826816224673108 0.21938451944304155 -1.1290644720550749 0.2627371753970636
Ni 3.412155263097559 4.379372676454821 5.087775307766333 -0.7881040540790493 -0.025697404766104128 -0.050231385351726394
Ni 5.125078720625611 4.637458504808333 2.524491599708162 -0.6675727947604955 0.04072781673666534 0.4846925408910749
Ni 7.29244368181743 5.987797679219899 2.624964962344434 -0.34919026208498577 0.8748731293454932 -0.25619706028570066
Ni 4.96252657491936 4.607539709787806 11.414092742933514 0.3799997912666746 0.4763541962287086 0.19032051219754964
Ni 5.6660529135194455 7.890937301457747 12.533433283769082 -0.09845268225195948 0.4792176338194328 -0.4078250410090589
Ni 1.757004781426333 6.594848581334307 0.37497921248213245 0.9252855203597742 0.2319862673674521 0.24681304796763945
Ni 2.7856444667642926 1.4588944149400356 0.2885225879851678 -0.4638552924307495 0.8143817568286555 0.9884215295883106
Ni 0.806019944326273 -0.02192113165426412 4.500531118832432 -0.9688729180324216 0.4696145635120299 0.5594815609775075
Ni 8.582302338086716 2.4016171731730473 1.4352618267909532 0.4109376184961116 0.0546750229453768 0.18516442191790689
Ni 6.887761191058563 0.7726755197185 4.891214076570193 -0.5700392818886957 -0.23841916747698938 -0.9254860664063546
Ni 0.6120340476651932 7.65267358033787 2.4681113328931508 0.5722923395889306 -1.100312339623047 0.12731254390644525
Ni 7.571628418281664 3.8075107687259346 3.7811642995636405 0.5695453729714127 -0.48795449947179836 0.45652044933223307
Ni 7.727859946880068 3.880668742385386 12.705475410462473 0.7847870738906741 0.06478382924460456 -0.5858345970497395
Ni 7.903361207864575 8.834447872997897 6.975547137319758 0.3221893080161096 0.311388874966496 0.06018823945412215
Ni 6.946738525189522 0.7043349791555741 0.4519784551632869 -0.6124360016873517 0.30368662122623186 -0.9535149475191127
Ni 1.8338482725111336 6.4436427583159235 9.319422122742234 0.2796609477355958 0.42537539118799644 -0.7270904905101543
Ni -0.027309050249062182 4.945104128908618 1.391910362117447 0.7690760909133206 -0.6442184363052711 -0.260596474904977
Ni 6.307840043750904 2.002902141832621 6.966800598545445 0.5612965026990591 0.028595038028873334 -0.05471076127931867
Ni 3.4913169174769285 4.427483620142488 0.47705989537147464 0.16655066347146152 -0.5409778457463651 -0.15763150660496078
Ni 6.017435759153972 5.5755992684044235 4.79785729414174 -0.45868146153929396 0.5310739563690917 -0.0750561577048901
Ni 5.466998751249107 2.946412713372771 9.11516024285195 -0.7437324699422094 -0.5466358153630908 0.7095144292996038
P 0.24762873861691898 5.6234204416802696 12.459466669554141 -0.554050105549291 -0.8485630306960548 -0.0033527185223168063
P 4.093659050399244 6.282992230937247 12.718662680797944 -0.8281533566914512 -0.4674725774683626 -0.9387023079863125
P 2.3553806818368472 8.533548466297821 1.2756662448178129 0.4591748562359447 0.11540679360779478 1.1734759082909145
P 6.442148629629971 7.750606924208023 5.786520434571372 -0.6941574872275594 -0.7519276041584921 -0.17696157439214039
P 4.68236386331523 1.0707378929803397 12.644496849424876 1.4792317533413493 -0.4743068267813767 0.2142040036833666
P 4.070939239047397 6.041604422564924 8.26371063667989 -0.9768690488640208 1.1343540025887884 -0.17508132665029202
P 4.763771238386212 1.0158445105909855 3.8294463889007897 -0.42089884347388157 -0.41139964573419463 -0.047247877243370234
P 0.2567329627433223 5.541768572824314 3.6191011414273366 0.003173769742291308 0.851548852797256 -1.0724981456242562
Ni 1.5865563919979566 1.2515093533298418 2.573608590044371 -0.07051610374269146 0.1564544555777241 -0.40400772414549774
Ni 1.7595131065536591 6.697092260080298 4.905739723995262 0.16608040870326235 -0.9782579587917476 -0.7885493691465838
Ni 6.017680252938947 5.436772075166022 9.175609067355436 0.18799289250563753 0.7387807823638889 0.3255664520184587
Ni 8.594916406326302 2.5186663088980215 10.37876479427771 0.518287603237701 -0.09026603267610907 -0.8703790981298816
Ni 2.261603732311253 5.275397121757793 7.143308811711031 -0.6670194933601867 -0.4895634958301311 -0.28636844166275843
Ni 0.5155884937532339 0.1335325444949087 9.18289860427781 0.4799069465769735 -0.37161696651961806 0.4732169361513076
Ni 1.4682395107212651 1.0679669634173008 11.442137085602575 -0.030458316489857223 -0.4709533369281115 -0.25365809591393085
Ni 4.134752116925619 6.802686409212971 1.6353618791414577 -0.4333694651370666 0.45322198108661943 0.31777292411596886
Ni 5.716853288841827 7.763094217892436 7.904013191291172 -0.3757009067810046 0.1168216716774504 0.7633240189208919
Ni 5.155513669192194 2.9410066841272346 4.860121711381793 0.9576521096159378 -0.5046720693367954 -0.04172514765292814
Ni 0.7572126461176981 7.458563625719229 7.102700205091918 0.14140733143661452 -0.5058887153527157 0.08498601522409234
Ni 5.027589087698559 4.58711995107979 7.088625512870246 0.12874490547759762 -1.319893805568243 -0.713673702883616
Ni 8.108853706472562 7.297351668167649 9.118686386550797 0.01621157676285595 -0.805845180112554 0.05797863339731305
Ni 4.644277164811497 0.43280018156341665 10.396749575993892 0.07463706788960048 -1.2552524154387736 0.13793428528634954
Ni 8.144214752040103 7.196013521958599 4.575240269727664 0.30442838448826276 0.4853988229294802 0.48239346044425313
Ni 7.20164593433837 5.917827180090479 7.041297854827032 0.3927475778506462 0.401746953135779 -0.6650202035419709
Ni 2.2916674125376892 5.287368261896151 2.4609947526853326 -0.5800935808009042 0.3211906915482662 1.0345815730841408
Ni 2.4598157493222357 5.305460801984229 11.46644338995914 -0.2838472179028015 -0.4750930701280979 0.35242908073725754
Ni 1.004978120147695 3.3920796067535806 3.757797937980419 0.40842565070753534 -0.05076617480927387 0.07674614381280331
Ni 3.66749732786414 2.793558821137156 2.7983192056838537 -0.8606945238522661 -0.13123219067582562 -0.55291650616548
Ni 1.0514681605942384 3.245175063285666 8.371036164023195 0.14165544289167864 0.4393441946632627 -0.5669439307928236
Ni 3.7302326220234026 2.413434372780125 7.102991786568812 -0.48030469623602445 0.4548091230680812 -0.05249986967092894
Ni 4.0271386302355685 6.735541171598806 6.008594139463282 0.34749770487391124 0.486730140146394 -0.032842500451317626
Ni 0.8412270493625333 7.377346412481004 11.338601211926369 0.08343204047341116 0.47755541562566134 -0.07958001371717262
P 0.04152319448142272 5.498375453654108 8.062298467683359 1.0700820799835957 0.3249200766837114 0.3173435498880341
P 8.517022497498651 1.6669042940007184 8.061980625762892 -0.12450952724001138 0.4777611038785643 -0.26368154158820395
P 1.8243401808732547 3.1537072217292708 10.499848077454757 -0.01939614513842466 0.35342178366783006 -0.5012825840392722
P 3.898562065315337 6.010155277556969 3.83114245134248 0.39998806146314336 1.3664940219252852 -0.2720126871617186
P 6.862686995110672 3.881420334391047 10.581090645604014 -0.18421079975538598 0.10982312887243022 -0.4618729718933981
P 6.279089385703031 7.668502289083595 10.31888554973996 0.3798684078951329 0.8444160984072167 -0.6135647159751562
P 2.3848376552635333 8.514324010538568 5.898763003590264 0.6987785309393385 0.25832259126913576 0.10508535707712871
P 6.924217930995803 3.8860476056548148 1.6451959624926353 0.5150223022228678 1.5911824700797437 -1.664801895338107
Ni 5.573127164578575 3.0440743974818423 0.033117135941000804 -0.7892952461736729 -0.34758409394013046 0.7106791390316662
Ni 1.3481477856721695 1.051658322426996 7.022318798385289 0.9337619332619015 0.12490007781021072 -0.1597305552258346
Ni 7.058598959477824 0.6517996034924136 9.194933131693753 -1.532759292945844 -0.3540329348892677 0.27203556997985406
Ni 2.755617007839334 1.496392517294756 9.314491498078592 0.11233818198480007 0.21235846583419557 -0.7470841600232618
Ni 6.0783962095408315 2.1757954691107377 2.5327482453799885 0.49761156294558817 -1.0690736933237397 0.02612960720751629
Ni 4.246386168079687 6.735414397043635 10.376697463495875 -0.3165074271399839 1.1931651591897259 0.10483133208479366
Ni 8.173427231681815 7.307403079327693 0.11027213021850905 -0.503389603079946 -0.4107908085056022 0.5079720802443058
Ni 7.620436622022775 3.748506268618869 8.240861334175262 0.5655187683105228 -0.07769899464437587 -0.07661450333094548
Ni 3.147151166161819 8.397066602330096 12.33306881591779 0.3095065703421186 -0.6597502133922831 -0.04692211847283532
Ni 0.19846194399117853 4.934011355331092 10.333663840742833 -0.2518362122138437 -0.432550568780197 -0.22984890930947513
Ni 8.642918686109537 2.239644568290437 5.8743634293823925 -0.09244529971561498 1.1183951652666868 -0.4025010576929842
Ni 3.734162633233726 2.667680743177008 11.500650787074616 -0.5240355614650716 -0.2601269914677262 -0.3699748029305048
Ni 1.2091394859263795 3.249467287510766 12.592809052216293 -0.3425002516593198 1.0326280489021957 0.6646075414845845
Ni 3.1353701878562186 8.287623939915424 8.050463157425542 0.5337221926252164 -0.12203715444011885 -0.14746227938144282
Ni 5.578125704182489 7.819762444054196 3.634806697748038 0.3082125341210434 0.060332221231154164 0.2254474378076698
Ni 3.184920928277622 8.379173279400145 3.6418843400567686 -0.26689876297392096 0.04865478489322588 -0.12593726082547343
Ni 3.2495216194629823 4.236343812245013 9.230411896491097 0.7691941045484237 -0.3304880576897921 0.1962517900803201
Ni 7.182901410823695 6.000411747459485 11.314387271888569 0.517757955986476 -0.1846712843315723 0.9580763416375501
Ni 0.4089412102800991 0.1897054443589605 0.5433213332295844 0.15970612974580237 0.2162665426393501 -0.6261127278434959
Ni 4.626184624723419 0.1830869070464598 1.609424710685861 -0.15810587513821803 0.43380372446100773 -0.2615508683984463
Ni 5.982599922457859 5.671793989803651 0.4445385998397809 0.7298469702093688 -0.22382892836764032 -0.43553947620519184
Ni 8.037470576585516 8.801504599303989 11.327415168497536 -0.2800329863630338 0.21675325246778154 0.12689319698083953
Ni 9.213250243850993 4.893081284661365 5.669055659411941 -0.4135791698840168 -0.5646235101897631 1.1324881530246433
Ni 7.7588291596434455 9.084664623605391 2.540832839869797 0.39515695862308714 -0.08954946622505869 0.8968678884490296
P 8.530569264251286 1.7117462652300293 3.665727011754421 0.4407269339434022 -0.4432191042376367 -0.061380974210642675
P 1.821442476755044 3.3476813464673705 1.5465237040723385 0.14227379320196787 -0.9824568273644436 -0.05814755487500954
P 4.896286869842136 0.8920038808389545 8.241550444435875 -0.3739620697130269 0.23416861973075154 -0.11451796324493826
P 8.642637971023085 1.7184381506780222 12.354632262219962 -1.3704149542462463 -1.2332417154956374 1.7357692276856043
P 6.3883418862849455 7.742103973686148 1.4538170940054083 -0.19036859182666568 -0.46872958980391527 0.04863575872983237
P 1.7532287107472897 3.20148311837827 6.036571472724607 -0.09375090590091596 0.3749596577396059 0.6685477570792551
P 6.9025666480375465 3.925791428701148 5.911167893813817 0.09368997075599349 -0.07657593678352619 0.7843317315208105
P 2.458140514128895 8.482956363458936 10.167665238200984 -0.23901283519693028 -0.0923051745933249 0.4453968286152459
