# total energy = -340889.9272064318 ev
CRYSTAL
PRIMVEC
9.08255837135296 0.00000000000000 0.00000000000000

0.00000000000000 9.08255837135296 0.00000000000000

0.00000000000000 0.00000000000000 13.29324225554334

PRIMCOORD
 96 1
Ni 6.265139712854952 2.1865805258796627 11.701695786527575 0.9156202293558682 -0.8657613968522123 -1.02229529951762
Ni 4.711568095784125 0.2867163875671936 6.17180007652456 -0.7112630365595944 0.05879984374702776 -0.3832720342600432
Ni 2.4548702189323093 1.6542790247883445 4.706180322131706 1.7791604501870457 -1.2438737412881868 -0.33208137031884094
Ni 3.411327198054657 4.318456802419263 4.7931975895486625 0.44055287025938317 0.357078663694127 -0.3568326091215919
Ni 5.306857139490972 4.376821322801007 2.669402973487691 -1.102989629344894 0.7217459383687893 0.8607713998367884
Ni 7.174712525433485 5.990846448689276 2.62622630728932 1.0696781596769578 0.3774415436211951 0.32941976432627784
Ni 5.0490759665257325 4.586573926862004 11.50124644705217 0.438841029774599 -0.028294476069319015 0.32916728199583956
Ni 5.943935034470211 7.8114452831929135 12.171917092589132 -0.17304449872592134 1.0536681574019466 1.2532994054774609
Ni 1.8164208576322405 6.454683624440167 0.393112201620703 0.60481859435141 0.3363915676584206 0.09944409963095131
Ni 2.6683012591518205 1.4417653229688576 0.35959665280951886 0.26468324337984095 0.45909926580300287 0.2759374761374216
Ni 0.3178150675838584 0.24006836754219638 4.754766560122694 0.8482236450787651 -0.8138281983180308 0.3335286442883288
Ni 8.531565009770391 2.1091153851488995 1.3565091636287792 0.57651023432502 0.7051091011430566 0.5270823187111955
Ni 6.647188450069026 0.65611039614014 4.846835546530676 1.4010859009675418 1.156735198497466 -0.27001982510140593
Ni 1.0713604256442013 7.584363157674031 2.705228216904085 0.47500925216504 -1.7316469779871146 0.38667566062495345
Ni 7.708176594002061 3.9455360364133525 3.97304438108814 -0.7890857012660281 -0.5962781609805666 -1.0513562214393182
Ni 7.507034255319509 3.8249559908814477 12.782435770248064 1.0657032341896098 0.5507917465129933 -0.6059835611937886
Ni 8.236826906610116 9.078462182236354 7.008423596416805 -1.0247851558190093 0.3011615408115329 0.19966518663724322
Ni 6.665289988992277 0.6476191122769449 0.6616216925870186 0.6757566161228685 0.6037819255567796 -1.4623496328740297
Ni 1.8612796136492695 6.470251129565332 9.275360241371072 1.726539224446904 0.9149915946329339 0.5036901650395003
Ni 0.17474115787868497 4.794628092499194 1.25254202569573 -0.09811381085530199 -0.4837414898317153 0.8261838916699061
Ni 6.497289905970008 2.023821079063473 7.097235577376781 -0.7270424108810382 0.521636722215592 0.14310837328812126
Ni 3.27566102299364 4.30919259283486 0.41435812226760205 -0.3052601363609388 0.042589809646068594 -0.6248767985538658
Ni 5.936696235412595 5.946568976410876 5.126751822611749 0.306750090642904 -1.36336833181211 -0.5775160498817151
Ni 5.148466403272918 2.969279079943946 9.62628850042828 0.6698286806742076 -0.7384072010745542 -0.4370852234257569
P 0.353369650759453 5.634019976196662 12.267549166663741 -0.29970886752540643 -0.7792424899233612 0.217072069259781
P 4.250782659661036 6.255911833504213 12.654635090775374 -0.604880557937597 -0.8518080199959137 0.4269309086005744
P 2.533588752724492 8.47711507206598 1.3115350591198658 -0.07999370421582352 -0.08578999918262645 0.5744497522515656
P 6.556408278700285 7.916612227092727 5.980416946860089 -1.0888606461426797 -0.12289924533009802 0.5926109965416246
P 4.787770760895053 1.1420681429133996 12.822036633198024 -1.3948872283559977 -0.7247777832165776 -0.5399645739905024
P 4.023600625999577 6.006096064269878 8.37619149945816 -0.29918667647334923 1.0195038528154121 -0.1680403606431106
P 4.541469941767741 1.0733313408204912 4.012724262296319 0.9448503298655793 -0.06954319830646087 -0.9553093204153742
P 0.11819405743599998 5.570596470777161 3.652398280045989 0.2791325860359515 0.47384325688139683 -0.9419771220828422
Ni 1.6880570595377535 1.0159749844229333 2.6562287225051637 -1.0503110680042556 0.1932410282784543 -0.8164409533505294
Ni 1.821443512436334 6.264712832609397 4.801558992826507 0.6551386827622008 0.3168766375539446 -0.2584452328899291
Ni 6.024188520634713 5.621140908362658 9.24898630824245 -0.8236238442522138 0.45168754671996403 -0.5899815293385775
Ni 8.6411914898525 2.373862880419274 10.231276808267662 -0.09384449405598677 0.7756347179674448 0.13974279924999805
Ni 2.537031042364187 5.097050040079478 6.993003228737981 -0.951052087800917 0.6671210519350574 -0.022031011658110444
Ni 0.6419043665215461 0.29601601912941994 9.10314585124374 -1.2694742154651106 -1.2346807619350089 -0.634940610547771
Ni 1.4319198296458249 0.9629419258314305 11.586310056153827 -0.5455934901415056 0.9195936121813194 -0.3923385153376856
Ni 4.36341546657887 6.998065846799106 1.509088878972224 -0.0409252774594521 -0.6860741959987926 -0.046587103730919774
Ni 5.389036128039681 8.150079391178116 8.214625500817844 1.0878154927076167 -1.3597397339205874 -0.5882318936373224
Ni 5.357783044529944 3.0041379391448686 4.806184739827818 0.3745904473256452 -0.5096039594207741 0.2982615935559186
Ni 0.7939836328962648 7.500058850455958 6.68791010072753 1.0042608106134125 0.4102794160868224 0.2919024841071102
Ni 4.917851162530179 4.4224884265170665 7.006190195302291 1.0440648299842277 0.9370071796720767 0.36885688727597765
Ni 8.278479519506266 7.23511153890043 8.976035446210672 0.09577153587537054 1.5253162064042376 0.9599151946185017
Ni 4.353233918594442 0.5131164129490282 10.559832909434379 0.15060493877548256 -0.0031727413010267935 0.877181979984328
Ni 8.302548299308885 7.129481384521396 4.88307313809916 -0.011445779943096417 0.313950207935769 -0.8686294624286266
Ni 7.369188266238632 6.14701195809539 7.018818584524011 -0.36580344516163454 1.7141439361063446 -0.7693545413856878
Ni 2.6834146363561806 5.227648147544321 2.4735530415941898 -0.47753124725594537 0.1927563753325519 0.9778396403074064
Ni 2.538257187750358 5.17971040422424 11.330309064638142 -0.808306497168853 0.3619100236444993 0.8993641725083221
Ni 1.1310055867626119 3.5596726246645245 3.8630691307628524 -0.7086567092849989 0.26397773267238406 -1.5247996717791352
Ni 3.697400540485992 2.634069096481607 2.6059276974852184 -0.7503183506898432 -0.04876174278473538 -0.06420224570952168
Ni 1.1697063681735373 3.3934527230918077 8.021381354933917 -0.7892782768928084 -0.3023383347284535 0.13885885398314796
Ni 3.7125593304824327 2.4447976616488742 6.948244380863529 -0.9295175561632508 0.5360295006021542 -0.4687537581736314
Ni 4.039022810190085 7.024078294102765 6.317905744229022 0.20612842576408374 -0.9052039191185508 -0.46803513484005205
Ni 0.7565689417570567 7.73414362851364 11.632849993733675 0.23382512034840375 -1.1407115693757 -0.30539923304196437
P 0.35861755301226517 5.880829418595274 7.937474863774467 0.1849448497079331 -2.9105368582047486 -1.270917118559224
P 8.579784312401372 1.9154207443675344 8.001016442453377 -0.3999914038972531 -0.5809554145805672 0.7156138573291223
P 1.7164218894711778 3.3337258189476526 10.287506927421626 -1.0969639919761043 -1.2763123214328664 1.4312853073690577
P 4.331036145825537 6.119083090965938 3.759541588657142 -1.2727330887220403 -0.13861691317567093 -0.8082342491700211
P 6.9458138882313865 4.005771563828808 10.345559007793856 0.9509212186500074 -0.3196300319293657 0.6716845029360238
P 6.480178365914109 7.714298238374501 9.999548954118954 -0.6419597221780814 0.7608066518156767 1.2141543598468831
P 2.499601819131513 8.351984664767619 5.474330434125108 -1.1066002295142878 0.8454267990599181 1.0180043854517502
P 7.093005829922411 3.9067807596519306 1.6473381336467747 0.30466029799341077 -0.27370884391721895 -0.4082456734862453
Ni 5.256848572852024 3.0757629948140908 0.5022881868053751 -0.10597444455030137 -0.5453217245373576 0.1025978147685846
Ni 1.670046346198663 0.9511709301241882 6.811058693779502 -0.567212611073178 -0.08906866993389823 0.47061600819335075
Ni 6.458452886182842 0.9407078228288617 9.381107560753673 2.156608421566144 -0.1700267949455201 0.22954423358486273
Ni 2.536031960938418 1.4337999192379538 9.179156874372088 1.698820932596029 2.190765269953511 0.0026739472877373304
Ni 6.250316977519906 1.967663620376838 2.575445723185006 0.8046727570710077 0.368657626780978 1.3055071978292678
Ni 4.314442311599355 7.0296368198534065 10.599207616679777 -0.5824101447492228 -0.1586738318265461 -1.6708768978875934
Ni 8.318633510263766 6.914915024499876 0.43357409110850675 -0.683313859644836 0.29601393517232244 -0.12308796430213641
Ni 7.737849312347401 4.282217394339096 8.088113636384396 0.8162504346062781 -2.7296988315763375 1.530729407000009
Ni 3.2147806339306424 8.20589171264494 12.55259617999406 0.38315479195588853 0.6426999427782157 -0.5249902120688571
Ni 0.1413418658152266 5.049121379317813 10.054037946824556 -0.4656895174260109 -1.2665431578612445 0.8522479357468096
Ni 8.4540272085723 2.425133922678057 5.814770154723427 0.888059031908148 -0.8401390682984174 0.046517941055881175
Ni 3.39284419167793 2.7668742656415586 11.686195492334688 0.17088502918075732 -0.27336637297613564 -0.4880799693060691
Ni 0.8402420111652121 3.1555351053825396 12.717086762444355 0.5230870815088734 0.1910327077732258 -0.44704824817573974
Ni 3.075826572723004 8.33832449690983 8.154619762130315 -0.863587529129345 0.09642356763707265 -0.133750329111989
Ni 5.75832387067916 7.872725304826219 3.6593110152564687 0.1186471549219634 0.26700983463048855 -0.4981067574144519
Ni 3.3471498402866215 8.217953350221496 3.444358646502264 -0.3203255153344935 0.06826433159403726 0.7381837722098384
Ni 3.325569681490011 4.089966880345888 9.234349765354937 -0.17401226195582933 1.2229470184378486 -1.1497901346382005
Ni 7.341395637485422 6.152288924535133 11.312921414806393 0.9828183244689201 -1.184087879478806 0.4712194461053046
Ni 0.52152686204232 8.971551387120654 0.5751602777451259 0.49917762188112735 0.11987742778463871 -0.5199979010605884
Ni 4.622786087266924 0.3298122189956611 1.6359994677201377 -0.9781782545937476 0.23191016271387802 0.7089122769392308
Ni 6.06156324851689 5.4984537092782215 0.478321131657018 -0.2549351628541416 1.1369341046111388 -0.7572752416236507
Ni 8.063667930407512 9.050669553483143 10.774770746095117 -0.196425596654023 -0.2933551573932367 0.754488680017449
Ni 0.025022448436305928 4.64395753093481 5.846434678129413 0.9989810502717118 1.7902419048121878 0.9459638746447321
Ni 8.291948953637316 8.76806574836675 2.5063074720101066 -2.098706149932721 1.155255785738462 0.7266477465457808
P 8.409731571177067 1.7678110049893696 3.716524775486894 -0.7830600638972385 -0.45855599170502315 -1.3369263355704977
P 1.5929626729213748 3.0578885198512418 1.6754804408990047 1.1558383977148095 0.15477038300708185 -0.8878271184030001
P 4.745337047975118 1.1889886396908793 8.274631239505373 -1.3928342024817109 -0.25679587021196415 0.06727419976662607
P 8.257162754903723 1.0701251976996142 12.59690271645939 1.262715299474722 1.4211042530709976 -0.9743501390969092
P 6.547207647024795 7.84889267154242 1.5142069006396863 -0.6080784960496044 -1.5211026825435223 0.06951723016453189
P 1.8253762602304973 3.247396101202793 5.847684438167467 -0.09776928303168969 0.31649405740354525 2.3112955008308
P 6.897322108847924 4.069458463442375 6.054606917026013 -0.5932884822246234 0.20963515336576152 0.055455352754827075
P 2.3651254592230027 8.55324507670958 10.286550534020414 0.3636468038299479 -0.7441214778505121 0.27553844092679
