# total energy = -381173.41092106956 ev
CRYSTAL
PRIMVEC
9.19836358689077 0.00000000000000 0.00000000000000

0.00000000000000 9.19836358689077 0.00000000000000

0.00000000000000 0.00000000000000 13.46273489426213

PRIMCOORD
 96 1
Ni 0.908856269058585 8.586709173314508 3.622539088728238 0.19224524002408827 -0.4239872525912181 -0.05079934204005444
Ni 0.8403726127087877 4.605418268670259 3.7776970851968863 -0.4719473254102646 -0.6617181357519314 -0.8143421618399717
Ni 1.2205308602931557 8.27478346675485 6.090999055003517 0.9615964389756666 0.6502175913114996 0.5901810469438934
Ni 0.6007018915570324 4.253810821728471 6.435846624567738 0.7200250990229407 -0.5966517422699015 -0.5996604471892382
Ni 7.091947500315649 7.362020652693879 2.71073474414984 0.023867807756533087 -0.013574910470957267 1.6776090744051042
Ni 5.671021091583675 7.951341409022629 10.132646861795523 -1.0196177526854568 -0.09377378871905141 0.48037668712454046
Ni 3.818820209148296 4.10924014171319 7.198820526967906 -0.6870350172501652 -0.04351900632855731 0.5496774304028921
Ni 1.9768847004418129 7.309093268790594 11.826003043648864 1.0876524847671913 2.7485702145595434 0.3023578751124793
Ni 1.8120408271483195 4.859109135554615 12.008220786027607 1.3394341895940156 0.10751762066770514 1.4785426976941247
Ni 7.429168706655292 3.9765353506856123 6.756784887739917 -0.6366809902776454 -0.4044532963233486 2.7412019471199307
Ni 3.1444973751952405 6.7070787707540696 0.22060435317213622 -0.24373852280737376 0.5147577357075716 0.6390708306660607
Ni 1.4879548839671546 0.5206071408900442 8.3173985652751 -0.366786120789878 1.351365650924279 -0.2909198084788667
Ni 5.0413747094238515 6.312625346366765 1.7842028996813573 0.41475776357315025 0.9983102494569325 0.14821792660054472
Ni 3.1202872823149064 4.677193099500521 4.860033571092028 -0.1990910593013281 -0.4546965087496169 -0.7585607932042935
Ni 6.693097258148405 4.694982734618518 3.3249996227707226 0.6011023218420873 0.30049228265865024 -0.2983191862667314
Ni 7.454344627709045 5.662291844568691 5.358545322883346 -0.166429564512565 1.2195734739799253 -0.9196722879380548
Ni 0.34969142781299883 8.690236755141319 10.180667838577845 -0.8079406291890022 -0.3368733923908456 0.21883378914589408
Ni 6.514832972426185 1.4260958890506465 5.28468890238028 -0.23712230304243678 0.3435294642547826 -0.699677388604524
Ni 8.063782205135551 8.071186887798419 5.052725490052397 -0.5294071101896302 -0.07913906952501208 0.5573349469481498
Ni 8.790066594818473 4.388631236374011 11.182712728825894 -0.7723992417492827 -0.9489661518061657 -0.34861459208717377
Ni 5.189394775772765 7.802585473589206 12.79863156724368 -0.575914252612234 -0.37242840667731986 -1.227942157659595
Ni 8.021534121321197 5.582965157258659 1.546787617273621 0.2556535290774049 0.3199961570195327 -0.5642203612140735
Ni 5.101265254539298 0.16327923165255692 8.436773087836803 -0.3692037290924351 0.46573759705512696 -1.7849945403703193
Ni 4.2169621773217 6.131564758123412 8.435924998716908 -1.7975014145880788 1.7033159922529053 -1.1911933801753356
P 3.5040798033403915 8.253066130398288 1.7848762198936827 0.6245620955269243 -1.0164079874989076 -0.20535555215380116
Ni 6.599292346600666 7.563225657125655 7.003112464597408 0.12535079219438414 -1.7630982545178602 0.8507075878428833
P 7.364145474675397 7.4691815881254495 13.305638007779294 0.45056963106543696 -0.5665541515535727 0.945943562929758
Ni 6.990645922469477 6.234411661047052 11.424854130428887 0.5220182739247268 -0.5658864360625867 0.47833960208985365
P 7.028101658870966 0.6004792911589685 7.091037782159925 -0.1932130032539963 -0.9180460651885415 0.9936262137177015
P 1.31013211969564 2.7338456325851896 8.033321824218671 0.6262736789013923 1.265264805369453 -0.17926553993496866
P 4.149059857548664 9.324105186173512 11.22020709835432 1.4539971471442765 -0.5667492982835143 0.37335837469075706
Ni 0.26500301438596546 1.935252906985736 9.940762559155402 1.3929015653845365 0.6031000689984064 0.8487422365863965
Ni 5.1889808494127285 8.630907310202808 5.742583440215786 -2.08744728918945 1.184467888526044 0.24237506680094387
Ni 2.681378166859723 6.146236147995803 6.4318756910204575 -0.15566949778258352 1.2742376982920247 -0.145669192036762
Ni 5.724509575663897 2.5563632077652603 7.690694739616955 -0.34075884348818086 -0.8588330451634951 -0.0478680273258724
Ni 2.543135960971217 0.7093032907215299 4.93535805041869 -0.26265361454432185 0.9265872698903334 -0.03207991125368023
Ni 2.8486136146778698 0.28219751538186566 13.27554924075009 0.3741731572825685 -0.15762173641294788 0.5132952922294322
Ni 6.180849590058378 5.83990304647841 9.269388720558515 2.26046402000123 -1.0874807350760174 -0.942722741999615
Ni 1.033307368467043 7.925172064704791 1.1326037030579288 1.543346581543387 -0.36068180766435304 -0.473237762086914
Ni 4.31276313376117 5.658502118783472 11.84586047089433 -0.004122763919121932 1.4572344231346517 -1.235934174726136
Ni 2.38090442292773 3.132355535300848 2.7616642434886836 -0.3533487643380495 0.7866210417756195 -0.6232480047011911
Ni 7.867893854839348 1.8309158691659664 11.47498889115646 -0.9574135112425706 1.6786094906451607 -0.32744027200240383
Ni 5.427751970608672 9.080109394477557 3.4481160396271533 -0.7507369262845006 -0.10881654198478678 0.323667692333849
Ni 1.0100447070330134 2.5930186865373472 12.335513278744518 0.1651725521770123 -0.5513334779490763 -0.06156043721130044
Ni 1.3185026305319258 4.912174494911246 0.9981732990271777 -0.027575595625423475 -0.5710065308979714 0.1452794127975111
Ni 6.335225725624737 2.1144462274271483 2.9534409252751934 0.9830209273980295 0.55930672596254 -0.5056760851212776
Ni 8.367585756674945 3.883365126223261 13.469600677844086 1.3492992553135537 -0.6318491161066409 -1.5569109504913832
Ni 7.310997330046761 8.798731453288562 11.560800424773724 0.5497987864721048 -1.2305770241792806 0.4617063644085468
Ni 8.218976995058425 8.973454369041585 1.41697939092994 -0.7772146608600551 -0.9017534986761051 -2.4227399673567374
Ni 8.373049584627422 2.08150688753183 8.044266957014381 -0.008405707565191975 0.5146494922644813 -2.4301316318351183
Ni 8.364605486882686 3.2098977400809465 2.2365508242923795 0.8768305101821802 -0.21750530014245764 0.8450725010442931
Ni 0.5778954689553981 1.247555652421736 1.8456065756018258 1.9290701626677167 1.4919653988579336 -0.13739461073279566
Ni 5.551653927712816 1.7696547678806214 10.199973364009928 -0.621308107366001 0.7356949443497136 0.5508210570890321
Ni 7.086428482181834 3.5276920025895624 9.426970485824263 -2.054990197102009 -0.4263976618049237 1.8506029223987484
Ni 8.640188459031174 8.336550478035793 7.889014217401102 -0.039061484777835956 1.6809967599304145 -0.016491827007436115
Ni 5.663827971282603 1.0589524060621696 12.549019254760212 -0.026515015571393043 0.7188380206933749 1.0755785843217929
P 4.444520493342443 2.2134666111113432 3.6292575734698014 -1.331712652580042 0.47395998496491926 1.3422112381185207
Ni 3.356979573347113 2.1515156325592715 9.04134381110564 0.7132271022645007 -0.46603275969804253 0.1816687500598226
P 6.037088366036058 3.7135173431551087 11.534992576143651 -0.1903055997992142 0.2648681056971374 -0.5955865342301807
Ni 8.877110709152289 4.472373138191095 8.757320420557837 1.0807830113408678 -0.40321145349644755 0.026831004149915082
P 0.8107244472939343 2.0843675785978575 4.0011520112351375 -0.7378775538233293 -0.12965327622447995 -0.32250041149862524
P 5.5961740073255895 5.18837375741801 6.948750135979332 1.1146660372415578 0.9312376241781511 -0.07990834359086883
P 3.2324153340669115 9.045854688593678 7.273067877922117 0.7390654034838433 -0.9242167127756277 -1.024211028483094
Ni 5.4264182078930014 3.7453160859694385 5.254491594661112 -0.11657921664934118 -0.30314514690046507 -0.7070649393178468
Ni 3.0015272104387667 0.9497586322846425 2.671490845872994 -0.641596939522024 -2.3819113633761493 -0.39543232377166093
Ni 4.252072331016319 4.4158859875915 9.982281212739736 1.54315246325471 -2.181442192780372 -0.7290021057105703
Ni 5.956547494736586 8.87539061516725 1.1800746176995818 -1.0594739654504461 0.6921556263061822 0.15995038454612454
Ni 5.306039224030942 6.590986224309274 4.49141099124369 0.09300785708730433 -0.7894757376155951 -0.2551765894409863
Ni 0.18628525874336416 6.218332921550538 12.69206024691607 -2.514784689199824 0.9617666460049437 1.5048507394610342
Ni 3.971347473639826 4.4931338447377955 0.20628985980573175 -0.9273094927683384 -1.8684024124740144 1.9078613898005854
Ni 6.098423054229854 5.4118755951103985 13.271806426619007 0.8956466144474188 -0.28157539114948926 1.1999037634651402
Ni 8.151157460557396 3.237851566928719 4.8301057754250625 0.6855676886760194 -0.7199628783264373 -1.933809734235231
Ni 2.674828932007596 6.157504143352343 2.577157948257119 -0.24147852312860346 0.23426220788582236 0.8268847743916727
Ni 6.394619559108142 3.4467923951113932 0.9720793812905011 -1.2221648888561853 -0.5213886107605279 0.2096670350449615
Ni 1.7701974713304467 5.1607050798404845 8.325058962444835 1.4213716477997713 -0.8287891905032372 0.336276382236795
Ni 8.697926587074434 6.221993870245969 7.3166331673977405 0.3650490834941132 -0.3708803454639097 -0.48774135501972776
Ni 2.1205171473743443 3.6581523929093893 10.198842885128851 -1.888751665554328 -0.8034067458743904 -0.7726566091757274
Ni 7.342538518681511 0.5413190961098958 9.384750916936936 0.00011801363510302256 -0.48310411335803255 -0.18542770288162258
Ni 0.26506188391272617 0.18663019737672756 12.608161053082172 0.26330127543064974 0.1968778537000932 0.40253345359281645
Ni 8.056874234104725 0.6016014915128443 3.421917260545934 -0.2092438314646138 1.097879047591206 1.7068561441956795
Ni 4.4144786379673775 2.103546166612864 1.189062338730499 0.6768084544261505 0.06015327245112865 -0.09860360600752696
Ni 3.1545879800165655 8.114032865243935 9.532262313781185 1.935697438176247 0.7682785347126897 1.1944849064424137
Ni 2.233960565114909 0.6936145618398054 10.778817184247988 -1.8962885973613213 0.3019950924564218 0.3516050421740654
Ni 4.450389049291399 4.377308050836135 2.8985266948437354 0.007567527934612773 -0.8272275024430721 -0.1533634753572262
Ni 9.196413503284148 1.05048991159032 5.853799014303 -0.1902094405409821 0.5745184007059718 -0.384309474385622
Ni 0.6570924593392856 6.415380265654841 5.078238071212311 -0.25927492788007606 -0.26565254927164567 -0.7345083802407802
Ni 3.1253555806344595 1.9722303284822957 6.743120718676947 -0.27455499396759814 0.07123524129690313 -0.23112983290442776
Ni 3.583056952835282 2.282205981968007 11.697649078583444 0.5323487093164574 1.6431007562155897 1.0135044406988674
P 2.56103597645189 2.6613993212153133 0.3596311794719994 -0.566856770395656 0.5613319839226849 0.10858077182489688
Ni 3.1669413822727543 7.7215294939305785 4.535877720347836 0.08406221785824232 -0.6057174520165955 -0.2920762906808131
P 2.775762575311514 6.070156483021165 10.256113736303451 1.4155064472682461 -0.9175778673028714 -0.7999033607068224
Ni 1.6225269427966735 7.436453810591928 8.204379192094484 -1.0763977377889784 -1.1662341391268367 -0.75503452521859
P 0.3638081563629416 6.627880860533827 2.7301488102718894 -0.09210385721579621 -0.7833056042491413 0.6566664322606368
P 7.741168000123403 1.6075428085633663 0.05912248175849166 0.36813235040512726 0.0018730486529967743 1.9229463091581656
P 7.869485171734599 7.189689311465509 9.834581249442584 0.5351309000472848 1.584031203746943 -1.8918729847921287
Ni 0.697373933025289 6.311282385287537 10.293014811382491 -2.315179152155922 -1.0677881417430966 -1.2138406852612063
