# total energy = -381169.0153399729 ev
CRYSTAL
PRIMVEC
9.23691663001846 0.00000000000000 0.00000000000000

0.00000000000000 9.23691663001846 0.00000000000000

0.00000000000000 0.00000000000000 13.51916116986966

PRIMCOORD
 96 1
Ni 8.2545060058302 3.5222210996372953 5.319194902475591 -1.8579007416117426 0.029662817171755364 0.20869104428493737
Ni 2.5166164456057394 2.976734980264904 1.0682845237942722 -0.14357965649758497 1.4513975047379004 -0.6996467924769046
Ni 6.348957788606149 2.782805912849386 7.5153014207444615 0.08248047519341925 1.2357405706580913 -1.0367688105434467
Ni 3.4434024889082355 3.228274697524221 5.676885267162349 2.024256258353262 0.6441847548538583 1.222963473498081
Ni 7.278902857441206 8.022299155353483 11.54593165587199 -0.3578415100020805 -0.22262282387468113 0.3041766734887729
Ni 3.075754727952179 1.409839842281391 4.549995277589022 0.07357314540146039 -1.0920536991586804 0.032289713271641166
Ni 2.3344644470616096 5.32188654002 2.385618492088861 -0.651396442110949 -0.14301992733937305 -1.0495086267076184
Ni 7.291344984319449 5.969616091029561 4.400149395419543 -0.28126788721139945 -0.23031196498882273 1.1129801648987026
Ni 4.039811730388832 6.420913370181137 6.978267080209183 0.8737906949145919 -0.12336358656102624 0.5129379088900134
Ni 0.5287756132584881 6.978536798178629 0.947799105244081 0.33643399086058184 -0.4518788367951637 0.6089724686187834
Ni 1.6004990411632054 2.979977138048321 10.607363925239726 -0.21015143088054775 -0.13258484804897813 -0.0006420044593730879
Ni 5.928336310020751 1.8484178870518686 11.282510492581878 -0.5276279068020202 0.16616782621074608 0.7247088776518552
Ni 5.742591150856254 4.365708627581224 11.897348306694086 0.2545209581348584 0.5151863386045579 0.5679890842278863
Ni 2.01953177006556 8.606275506872597 1.6713332610433025 0.46123662386097986 -1.3906135406813083 -0.16752999666559534
Ni 1.27177564744168 2.9912092288307583 5.664880046446942 -1.0130493554393198 -0.11752538261269438 0.5668927658399141
Ni 3.0410516316778233 5.237922966654577 11.702956469748798 1.7079799733874776 -1.1223610918929703 -0.33594548125993756
Ni 8.28474767130857 3.46137752892684 11.387703271741112 -0.4218725202410605 -0.32406518488258385 -1.1895239628927126
Ni 8.777620312805336 7.524041391384546 5.9355475709367465 -0.12344534764155513 -0.5567623622741315 -0.22757194034984035
Ni 1.3411356554065819 6.8789351247353565 8.855361899039961 1.2580636596353236 -0.5940896379696801 -1.2814133901048577
Ni 8.97552125442846 7.835260827842322 9.861119885889766 -1.6238534779502034 -0.16054302382480093 2.314647962242801
Ni 2.9076890274699054 8.613591144948 8.76731099000741 0.24425788564595355 0.6409492786356961 -0.8327306916494883
Ni 7.5937062176025885 2.882305980208279 0.2385904836508479 0.9800070802723702 0.2170718121494649 -1.1314951929837544
Ni 6.47089432677963 0.4633514555258199 13.163918027848773 0.6824026606844763 -1.2586246743451164 0.13354901173446035
Ni 7.182506394114302 0.08463417352233474 9.420611325516056 -0.579823357858653 0.21020465271598637 -0.12160803732250024
P 6.186600502682712 2.926929525084886 3.882472861342121 0.31745076488985974 1.1527381615229308 2.9875043739997387
Ni 6.085336184222302 7.597687328726956 6.389506929499093 1.249894750671286 -0.2049835135263631 -0.3933643854990387
P 1.478423949238296 0.051943801410391094 10.356758983956711 -0.518177817132714 -0.8887074641254243 -1.2018904548778655
Ni 6.446878343198761 4.448868589188364 9.113063563471123 -2.081102835028661 -0.23461059236417658 2.2652287883797246
P 7.752073155484896 7.189120026515803 8.005681942098873 -0.31189178274484347 0.4265676117238847 -0.8245224448070831
P 1.6782092218808404 5.426217514845352 13.270367951379301 -1.2173849509690389 -0.3275500581073907 0.4972721773282984
P 4.465134799606022 1.130219898065981 6.951080063103963 -0.9376982922018303 -0.226683624207616 -2.389067771915273
Ni 2.6360313055032294 7.491749130385037 11.060120637239677 -0.157923841034399 1.212132701431164 -0.39616046018693707
Ni 1.7022344423784712 0.6295836280308619 6.689388974323348 1.4998851679256426 1.1288377007562496 -1.0584480952890933
Ni 5.316039571709734 6.887146743736661 12.858479977592253 0.42255309124785295 -0.3472729904576148 -0.4791142754723491
Ni 4.173700838852176 3.452962697756774 10.37572606883554 -0.23478362760693114 0.3665729763378074 -1.3021439377839896
Ni 4.08360395275687 5.063511504356897 0.4487645165754706 -0.5794104386909504 -0.9316837105766342 0.29698349817444336
Ni 3.3024471391220582 1.236878575915325 10.312402385974522 -0.3512851969408015 -0.2453711733147903 0.8365243543639659
Ni 0.9270354400550673 5.683354803662365 10.934216843316973 -1.0846412087446933 -0.5850588952259795 0.4413008041690013
Ni 3.666649530125937 6.266324331254435 9.297830533150538 1.4292564498644869 -0.262613762445322 1.091944427274326
Ni 5.420666127871467 4.359529130267531 5.651536396492741 1.6722845768683976 -1.5051775266728336 0.12041838788977326
Ni 7.492709769728273 9.136114289250377 4.717268450613128 0.018346620827987756 -1.1259349252871578 -0.5185840514321972
Ni 3.6145902672560224 2.9811687003106027 3.0017808800647217 1.2599883874618623 2.4417751296113175 1.562292783628587
Ni 5.5236208020993 0.941417319453303 4.893314847177659 -1.1589504609812298 1.3063579758653372 0.36372573669699937
Ni 6.861375745971036 0.7169805633566727 6.897381247508816 0.7597249887157239 -1.4222874747458214 0.5008236421249826
Ni 7.7482213611951956 3.387214324245764 2.471749046126619 0.544454748551372 -1.1835577180069488 1.254935141308671
Ni 2.9157990403868297 6.86573557068264 4.2328900777705805 -3.126787717114815 -0.6589760542304199 0.2675538800594166
Ni 0.9959520760153995 3.0760872569556064 12.811000378052876 -0.5137452352826573 0.6663222101828461 -0.058010515076512996
Ni 7.614443095732994 5.677027515680481 10.734862934687209 -0.39551459907282205 1.5361966007621672 0.828192951680135
Ni 8.858461808305245 4.714937976514108 9.149214084602065 -0.8606608424008532 -1.0383826919977859 1.315807037093379
Ni 0.19150068199882087 5.504795965738603 7.245256464444408 -0.30646958328800766 1.098617211308811 -1.8446952986650618
Ni 4.865121006145395 6.258288213671606 4.840874099645479 1.5329418412702955 1.5913789023612657 -1.557908281407646
Ni 5.812237503240774 1.548291987625101 2.4903651281684973 -1.3945573558204047 -0.838010451991189 -0.23471832158663444
Ni 0.38909865275215394 7.571777777209903 12.245697377459562 -0.3519621684031681 1.5463858825903432 -0.1545173864560113
Ni 8.815704120614537 7.751158700725471 3.205082646918511 0.6586829484700334 -0.3120049112839401 0.7484836114739497
Ni 0.5218663995206072 4.31557064339778 1.3454880905847764 -0.29189759901110374 -0.14237843710063222 -1.9756148431964748
Ni 5.4001139880763 2.2490783885148584 0.3359189518790242 -1.64770843019093 2.206245882087613 -0.375041933040767
P 1.8450741231840706 1.036474429849735 2.750973650304621 -0.026682651497508886 2.0840722020696303 1.7678640513376198
Ni 3.7948394609472063 8.51681596803386 5.63855852844231 1.0415474628790125 1.20030357000672 2.161636985128987
P 8.551177298388026 0.04222564128522483 0.20385228709279704 0.9803433805658667 -0.14470502835127982 -0.19944972819232745
Ni 9.441329729812937 8.800943527629064 7.89489251507362 -1.0608880721891536 0.5719586103985955 -0.43673426784424135
P 6.166500971808877 4.691042072851142 0.6094028122895224 1.2853065545116766 -0.4490951034024394 -0.047917135396252954
P 4.295415691023373 -0.15744416989779625 12.887058998053488 -1.0425090554613334 0.8244854209215607 -1.4503302398156508
P 8.940938238072006 1.386331889122425 6.2484213391865735 -0.6536973223299839 -0.07709555673242208 1.3549615958056536
Ni 2.9306058179561116 7.298623674727804 13.399530529535594 -0.03238715808145389 -0.26541677911175576 0.5476084636890053
Ni 5.2990159341176035 8.005016884092019 8.54096034475772 0.43733744864587903 -0.5145551327784622 -0.08396785837222313
Ni 2.2244065838438964 5.010103651639749 6.832408775005804 1.5994372538893682 -0.7552816082323897 -1.6351871577954677
Ni 4.945676157225687 8.7794215115739 10.76695752566801 0.27612028157218893 -0.2560692764585848 0.8397773140836247
Ni 0.3249787476662622 5.311125531992418 4.426930911878917 0.3059695037231376 1.1760125586698391 0.09216916323609287
Ni 3.750419128239361 1.2065630151028586 1.6681289746186088 -0.8690503520161291 -1.6150340798863607 -1.231121326718525
Ni 7.211510312746582 5.1365478051930245 7.200859224028467 -0.2849625624541673 1.146730007655638 -1.8102111488452632
Ni 0.5591078005211256 1.7152492580959497 1.2558216448105732 -1.4299313644443246 -0.4698269366331521 -0.6400869306354009
Ni 4.202196727062554 8.711502462623852 3.4548082337257964 0.7176324304210479 0.002864723142304744 -0.9288992058529616
Ni 8.53520666930675 5.4431303094363415 12.85956162054507 -0.14301632779494725 -0.5008658082168278 1.0411204026439231
Ni 7.751768337231754 0.7196020003336923 2.2885237178547597 1.753903989613102 -0.9420270014841712 -0.6752249119891145
Ni 0.3335543011879848 2.9019344283272583 7.940060114347501 -1.2511908437748902 0.249881402480318 -1.310122585114092
Ni 1.6112508122740252 8.925300137994157 4.394741180655466 -1.1567688799488787 -1.484309682084889 0.13225857505781094
Ni 9.056251906927226 1.4907829438656817 4.185585979649678 0.6931277604114644 0.10107057949078078 -1.6502224548620352
Ni 4.871134238957374 8.462336632972336 1.2240235588578268 1.3472958517302798 -0.6648623378078679 0.7224542772897236
Ni 1.879361558204142 0.7189822032189706 12.242438593225973 -0.3850784913411626 -0.6000597395101859 1.8884343914242252
Ni 1.0854762732714696 3.338120111656411 3.282330981798052 -0.1499163973488902 -1.623159280096656 -0.21057026358552122
Ni 9.177357122592138 1.3658074600775438 9.62101916634835 0.5510951366860251 0.52093686793509 -1.4151099831607756
Ni 7.45057095546061 7.641885975432517 1.3054876225474867 -0.7934987427320592 0.7269812186257996 -2.2176651796681486
Ni 8.133751793002238 5.605173540189874 2.100107242362728 -1.5923206974492448 0.5825204450748419 0.5288399248322505
Ni 5.057285822459395 1.3450982926974253 8.854590616490345 0.32358053193668146 -0.531528270297691 1.7633736196664342
Ni 3.413844355270243 2.3972200595417723 12.502074468027073 0.9491157900101524 0.7772881944104677 -0.4187776833658208
Ni 5.616987556728309 4.724507422279407 2.8855167324747057 0.03947080440111266 0.2896075174253464 -0.6580396584590796
Ni 8.563434686931032 1.0321146051381311 11.674944595976743 -0.4905633978495552 -0.5476951098655406 2.398717893410527
Ni 2.0140450415090076 7.491028650877612 6.551696103537463 -1.619989367009107 -0.6779438535821743 0.2723045073705246
P 6.390588572451909 7.368112999527372 3.1059465140800357 -1.0061587989670737 0.6187424035213538 0.5436695336459153
Ni 1.9084301352537552 4.711215499059072 9.050835378938064 1.1755608158444013 -1.5554184251062566 0.6820434775728447
P 5.6742287299016345 6.632180130358689 10.628751082310167 -0.5041560489323252 -0.09368817098378059 -0.17097913155646038
Ni 4.161896059230503 6.521826685804596 2.328621173518049 1.6180846937872262 1.2981121909167772 -0.3296732750979806
P 7.003864423939684 2.321449631344131 9.583097928274158 1.254728938835136 0.3698315924844211 -0.44860787935337576
P 2.3839004255711522 4.675191523687769 4.378275452835752 0.9529580465743782 -0.12878655734881048 1.4450918742348466
P 4.107056484415265 4.322960176807277 8.229586651790019 -0.0406563400687816 0.022323346087548653 -0.5321664181023222
Ni 2.4564564067356622 2.417402722666465 8.335874005585536 2.2007012981203005 -0.05532731181739504 -0.5328652439415597
