# total energy = -340858.7107525837 ev
CRYSTAL
PRIMVEC
9.36386813477902 0.00000000000000 0.00000000000000
0.00000000000000 9.36386813477902 0.00000000000000
0.00000000000000 0.00000000000000 13.70496752953941
PRIMCOORD
 96 1
Ni 8.777877104645878 0.9511629798123775 1.665441637090352 1.5045848873941572 0.23439127726451892 0.09484362474446247
Ni 8.585337251617641 7.424283171444021 1.972651417177423 0.5916838567416649 0.14080595040718974 -0.17051324766363538
Ni 4.68944380294944 2.9747510295409967 10.08370407460157 0.2570745777946476 -0.18987776823317623 -0.0641078862235025
Ni 6.870185648679075 7.552961444973541 9.883514877835431 2.50006589493241 0.04776724008194999 0.20071522516831236
Ni 1.720554554752461 1.0187326510239205 0.988219550883963 -0.26790123609650635 2.6080653403325407 1.2668444911517474
Ni 3.992285105465821 1.204848890630438 0.17366697715145268 2.554802624353658 2.3867581499454893 -0.6353321895592349
Ni 7.517968670400712 3.0581081821359457 7.873914574067983 0.4486996677362337 -1.084286653618752 2.074792319429601
Ni 1.0999642055915668 1.3162227361667589 11.54402269289677 -1.9329314453953355 1.3201298328384492 1.5083343271342604
Ni 7.061826570382988 1.9398001592074319 0.6155816161881872 -2.2442966662127475 0.24874934575840385 0.34133888436136695
Ni 5.063661422170353 7.37248225387996 5.687657410108914 0.784966536891332 -0.39496669698915204 1.3849841103096727
Ni 7.467909432277526 5.993446691426196 12.596235853817706 -0.030295308549431695 1.5608365107980344 1.269547491905207
Ni 8.745637307253784 3.720367743726354 6.202895817219649 0.3112541491608446 -1.179339309050227 -1.6829461703473014
Ni 6.447172913509805 0.6542403450680175 11.550642011158889 -1.506428368360799 -0.3023979843217953 -0.6218223279982582
Ni 2.462500632696836 7.702549235661513 11.895733319084968 0.008039582475024865 0.7979940594992515 -0.14673697117964404
Ni 2.5183654689562687 4.649825277603537 1.1235630256286138 0.5415843689821125 -0.36525091509227414 0.09865734206359783
Ni 2.49302684225194 3.0296139319285285 10.446583922494469 -1.585483619922753 -0.08404807679085526 -0.360239835030928
Ni 0.27553930586704856 6.607248236314867 12.235849603963004 1.309262551106642 -0.3256821516607165 -0.2846211199543486
Ni 0.3014931386964601 3.559393489596969 1.7309784125674126 -0.16113232066936764 -1.2366273441384186 0.7244857058974555
Ni 6.852778218138297 3.8816041861586648 12.989334776396568 -0.3037411286132511 -0.6404402002097614 1.090074721055439
Ni 0.9542249646358496 7.640869437397872 5.648269235914867 0.27115625269869426 1.4434453397703593 0.49026283589000086
Ni 5.239533590226784 8.449804626740164 3.944029348312056 1.7958515376894815 1.6381313280254561 -2.165305692229826
Ni 8.3145622817695 5.2054865663180845 10.327446494031113 -0.5633071053711848 -1.3292235676096011 -0.00645089783166631
Ni 1.876163312539798 4.318054071852958 3.8944860593135595 -2.343712226598609 -0.45010143317976675 -3.2759381828319585
Ni 9.160428566352692 0.9577738705933295 5.099522227303231 -3.2004315678532107 -1.5093216307481943 1.5870507072995572
P 2.441619207142271 0.43054034862367174 12.764970881713738 1.1478962600495972 -1.8810522400275411 0.13132423616899963
P 5.375375222746996 9.134284647003659 9.836410876440953 -1.2060366158357552 -0.5712369017412227 0.5474328573430896
P 9.261680070622429 6.99067990161008 7.406493695090405 -1.3795662817282113 -2.1713359575843056 -0.6112059859349925
P 6.521063195595487 3.931513602394464 9.651777873519569 3.0622440289054746 -1.0884420705480222 -0.8098797551932441
P 2.0020698811526594 3.5239325216260555 6.070875579214601 -0.5237278004166658 -0.6079630535176627 0.5844354027093678
P 8.467371243036292 0.6576188286285947 7.370051393757106 -0.09286567508248522 0.7202999499508821 0.5767298065349938
P 2.7265617092164476 2.930834488800678 2.2322515470000854 -2.3099302450521573 -2.240602248080296 0.8975368894915963
P 8.600384987432076 3.0910783612290507 3.7559560603015463 -0.3007630198215336 -1.7969632826964215 0.28381996420929184
Ni 0.044325741770244065 2.8774698052870162 9.370510689620355 0.3086167115379975 -0.6835866536902485 -0.0013711693159137676
Ni 4.875148032365644 7.118346877399739 12.891714580122375 1.627775695822745 0.5193692663376539 1.157680850240187
Ni 3.2688045751418953 8.581310788394116 0.9429377581948305 -0.45878816232048725 -2.2012132047597124 0.6676445285386953
Ni 8.679284938877261 0.5857782972397255 10.126161724713457 0.7762772366474502 -1.2982751988572028 -0.15201030376344143
Ni 6.386710418081183 4.4482867474641195 6.568173751697537 1.648673622317677 1.8036553500046164 -0.36365168892595434
Ni 5.934117224020939 5.24633175836697 11.185486743351296 -0.7035075609838916 -1.589417921980153 0.7700736789398995
Ni 7.924735094656453 2.493054933855825 11.463711606549758 0.02517804192752438 -0.049321729053263444 -0.8436553089817921
Ni 3.8332491720045065 0.7535235642922066 10.882127385770072 -0.9123595563267255 -0.0488923548253287 2.127043049204201
Ni 6.866936386496369 3.879787595774097 2.0862248352979447 1.3038205541554642 1.7128259886258697 -0.43381323754270446
Ni 8.090166549935601 0.36980723741095733 13.047526533844481 1.5421625885376151 -0.7176612267764544 -0.8684386865740591
Ni 6.357991435042686 6.693676737601249 2.7749682246443954 0.02376059275470747 -0.4863015372494076 0.0862967636157159
Ni 0.7086284993498919 8.631997405670734 13.498831259673196 0.42065021779818523 -1.218144711953199 0.648187191145032
Ni 4.815846656564272 6.91785710047203 10.360969141333957 -2.2394717340202788 3.1879761156986772 0.7153971133326259
Ni 3.7065654023508245 6.17859845263266 2.1872029146231995 0.8369611847910683 0.9743866487617993 0.66526265857008
Ni 2.256767089710582 3.2740764328043257 12.686043775051465 1.4468787909319405 -0.15079648596099837 1.6733965789856535
Ni 0.9931037444127796 6.6634127163490735 3.5967590683112904 -0.28233386658206855 -0.14367247332170743 -1.3528448065729668
Ni 6.8019511428422526 1.010483083349673 8.905199490094546 0.14290834146217324 -0.033522814347793875 -0.11261406135400606
Ni 3.2117037083115196 7.614247960782792 4.063838166108266 -1.7308329667262514 1.0459772165155923 0.5782207892582235
Ni 1.0687076143354513 9.15714184869814 2.993192231104745 0.09783278927977346 -1.3929732991627364 0.5074072088797713
Ni 7.136381687093951 9.112466834652926 2.6542136561840546 -1.1575949753946 0.2618429457175684 0.578873592350874
Ni 0.15946198945357146 4.143989130313134 12.23748078976193 -0.8403833230987398 0.1470215922995984 -1.2293917456219279
Ni 0.6986082242440892 5.245039544588256 5.439227438377749 0.24306078001405879 2.029762532883472 2.692316534273137
Ni 1.3632761726742428 1.8819127274682743 4.076323011261585 2.2860680937225792 2.625727019278362 -2.343728938769157
Ni 2.936640086936925 3.4829843270295924 8.145999549043964 -0.7884110437965067 0.569205987354123 -0.5317074761880327
P 0.7412475333944332 5.081190582994633 14.003598053242374 -1.5579249935781943 1.3787445571578643 -0.9268004143424038
P 2.1199516149223534 9.641693924111626 5.342456544927681 -0.7807625261123134 -1.6758653522411202 -1.4024825242047525
P 6.499722940510799 5.768891773836948 0.8595450229016265 -0.4534004156460127 -0.3563803520755217 -0.718410189127337
P 1.3779587176381702 6.994135168887944 1.4290994825109309 0.9431032652674854 0.8984167209933881 -0.15824342915734682
P 3.3123933805035546 5.588375127271521 4.549748002376197 0.6468443039638924 1.60279691439022 -0.563477826621094
P 1.1456973367164527 4.645695811832433 9.684683441923738 -0.48631824941995605 0.9429088898684923 0.05094049560360904
P 4.088489484904207 6.383826346748983 7.208429159964773 0.5688789430320074 0.03749336895976769 1.6124321234871393
P 4.953476787865166 3.100311135039276 12.139530985335485 0.017346975918879803 -0.7090763133209208 1.6134690493920856
Ni 2.1064301895856756 6.267396012513351 7.739167577712491 -1.3971814237068132 -0.37374738259905954 0.48199982455026025
Ni 5.216339289285681 2.5126441456316773 7.883631459851826 -0.12773163372173488 1.2749172408575526 -0.16689930506013193
Ni 3.1196381585122 5.424142247091469 9.969445221346254 -1.1028646737312555 -0.23792268745654507 0.3860547392115029
Ni 2.761694941808702 7.9228061378563455 9.466130763697931 0.9552265308935807 0.7118816439801998 0.18997906969773087
Ni 0.411158078329773 6.867648040461457 9.662043481965966 0.30685242054872314 -0.706901160046473 0.45413343715729537
Ni 3.3230307345080328 8.838639243849274 6.933493823581254 -0.49464913788315457 -1.636935507945142 0.0014783843177393894
Ni 7.351685103137051 8.367131036506418 6.421421340228366 2.210319795046671 -1.9909974963001327 -1.1533076608731556
Ni 6.238901762305933 8.77157522150766 0.38539058647279906 -0.51996524805044 0.15389209416718658 0.6604531529965786
Ni 7.438441339802093 6.033552137906108 7.972576968846312 0.24087868476107552 0.1584642869189013 0.14543753564193018
Ni 4.741769097119355 3.036252914313365 1.995374715560052 0.6065738864796199 -0.7777458507731766 -0.562227756264077
Ni 6.159271429159735 0.8348965132660744 6.518808376190313 -0.31334188492780873 0.41342361814275896 -0.6362914681487106
Ni 4.229724705370352 4.35217600670535 6.144292985968219 -2.258753465068026 1.6015656130862803 2.0201648618927077
Ni 5.512930443104198 8.35920920421083 7.865911276121127 -0.6639801923132306 -1.1940503900081565 0.6763482269602803
Ni 3.5124243279011407 1.6855055969718615 6.043740026248424 0.7163152542715212 -0.09104841936808836 2.0356596150941977
Ni 3.614715221514624 3.0968558677614126 4.384273473304425 -0.05034065723608105 -2.256296004666469 -2.086314204026271
Ni 8.395718925393453 5.130453892341077 3.7513649558399305 -0.7454383968897226 1.388829452197692 -0.17463344047959603
Ni 1.2452539808851228 1.408878209647665 7.115070459999944 -0.21629122522969849 0.6866030719190692 0.5465615104817296
Ni 0.9410125469419074 8.511905799062083 8.204040548217693 0.39946818440393134 3.566470011843786 -0.45753577797062495
Ni 3.771691104024367 0.7399375282665929 3.5552462324767373 -1.5139313616060637 0.6796513231915843 0.006271177720692425
Ni 4.586141611596095 4.652924717898856 13.734707093628126 0.45318624275267755 0.39188548696066705 -0.5941824547938024
Ni 5.159744071325238 5.277241886508503 8.893893555917604 -0.4604395818809812 0.16077570866089727 -2.879073240378829
Ni 6.501623805707022 2.2022412865696706 3.698175376657152 -0.13861357074156128 -0.8566833458103439 0.5089964077437622
Ni 5.105452364883368 4.5711219673855465 3.915454568840168 2.5599911105331334 1.1786206857166475 -1.389491511261723
Ni 3.530552776274969 1.1099741804426118 8.654906108639006 0.5081479437005377 -0.4322273811128234 -1.4398085143487205
P 3.502180256351054 5.874469385104985 12.08303876992262 -0.6417689463235141 -1.6332192354358197 -0.40213107594807523
P 5.220534302132518 0.7860124405720804 2.0255937902460124 1.2470842778056845 -0.34062668878569075 -0.6723455335587903
P 9.114742254567615 2.326069076495037 13.372279520557774 -0.14052621438324184 -0.4434165649604234 0.8801089238231358
P 8.035107006320874 7.888787205551532 11.76246675025422 -0.10195812430205667 1.520140575740569 -0.5155306093178541
P 1.7111345035830028 0.9940307673409867 9.632837577793461 -1.0094099589145196 -0.6562419431287085 -1.7226838552565558
P 6.498833373054439 5.934398140059789 4.882778648367624 1.1977540641119886 0.08344335332732082 0.08914168926367874
P 8.478926256101015 8.353572155697893 4.2246522980955055 0.7821882028152465 -0.30974516871548585 -0.4428807470616114
P 5.585753244242248 2.6807723948837916 5.7482884551608455 0.061873854686661185 -0.7139822352629703 -2.247562738558529
