# total energy = -340894.9653001392 ev
CRYSTAL
PRIMVEC
9.04094153802260 0.00000000000000 0.00000000000000
0.00000000000000 9.04094153802260 0.00000000000000
0.00000000000000 0.00000000000000 13.23233181327851
PRIMCOORD
 96 1
Ni 6.575114951315447 2.0540928166321786 11.461938090436878 -0.2899152784737523 0.5498049571196918 -0.07643529744060384
Ni 4.5203983097353255 0.28513682229266984 5.992697514410157 -0.2610207069265892 -1.2578057779882466 -0.74129840657942
Ni 2.744558542709389 1.7555790176297124 4.7341578047597 0.5578363120646006 -1.0970691500954008 -0.06577730350612543
Ni 3.3018783266365803 4.312058859005032 4.911246337880449 -0.029000243887091992 0.19044083982549784 0.5696163354186641
Ni 5.216125863634313 4.408200228518395 2.4358339046314677 0.040982870170264904 1.835556312478271 0.9971630232263665
Ni 7.519224284849626 6.123890613244877 2.680950096278298 -0.95979640965245 -0.3738479127326658 -0.946925210116737
Ni 4.904602150137796 4.733863974168278 11.263030149644177 0.32331956496581093 -0.19965130268017228 0.6237861365928483
Ni 5.607689030234252 7.857744248991891 12.437968275329043 -0.5454770191682993 0.06307661674551071 1.0007365995102377
Ni 2.0572481051369897 6.4926344440679005 0.3957219995862238 -0.051226659385460165 0.056370151259612596 0.6890577041071487
Ni 2.8104217998943475 1.6009517990114082 0.5036428114861734 0.33008439449347027 -1.2881177987082268 -1.1409067161056414
Ni 0.4692049620773572 9.087502122094879 4.815946679999745 0.3647050698911332 0.3117981945897727 -0.5786141680419002
Ni 8.69061384108424 2.26893270413886 1.1813571939897851 0.09097257182483043 0.8433205513501928 1.0661300373143832
Ni 6.62999346485185 0.7318723330204351 4.621815068482377 0.7216173832107249 -0.00779609900565109 0.8006890898329113
Ni 0.8078614444328684 7.19969933832515 2.4686371518578483 1.1122180899216976 -0.31426002586670393 0.7593398374621632
Ni 7.559302777519621 3.992497748715458 3.8637484163072435 0.9229095639284299 -1.2093646517677237 -0.004909778596791544
Ni 7.84030427327332 4.02889657828672 12.541762801631297 0.6225512357444828 -0.7014097979145985 0.2915618129382398
Ni 7.909503637788582 8.838903359869098 6.733311533548936 -0.4533376807288773 0.6499627949882162 0.44184973469393585
Ni 6.936445210293354 0.6750545375806446 0.21444027790234693 0.23868656220576315 -0.259246902855618 0.9461960452601963
Ni 1.9051071453691815 6.105031209746205 9.273177741238177 0.15824831425335326 1.8940396534261443 -0.8481094880984039
Ni 0.29538020875671356 4.972119899575994 1.4795464232004956 -0.030189636209502848 -1.3591769194385817 -0.18506723421841031
Ni 5.9839458832564105 2.0113834100512937 6.867844356090468 1.7478829802300024 -0.11786708222282928 0.5330112826011207
Ni 3.414998583863513 4.169564583577149 0.29714228821111965 0.8206776171396963 0.5632849938839976 0.8061459991824246
Ni 6.0537238680132415 5.651655127652297 4.693918383335018 -0.6033479233431545 0.08987188256148393 0.5365578623017985
Ni 5.230193568257484 2.700312176111834 9.472827943309518 -0.2619427045202263 0.15482797571789464 -0.5576879594121943
P 0.3781482179367903 5.754685694416853 12.489667089819195 -0.32941025124458106 -1.1865111442083178 -0.16965218521492073
P 4.081361160502824 6.182041947522661 12.722728090370564 0.05287602206342506 0.3544923910241895 -0.28992916243082323
P 2.4533588651980187 8.474951227921578 1.4730098226590096 0.5743353381608883 0.00047925362926369076 0.06042658071717336
P 6.280090955644949 7.6161070115475 5.873765740131955 -0.5146914012460104 0.930425669799817 -1.1129176870918833
P 4.801851852552751 1.2582639609415833 12.733605246817953 0.3748488431933544 -0.5415167489689706 0.36165137066647396
P 3.8954342031920928 6.061300176801298 8.167127067594597 0.8212070072806051 1.0001357327014453 0.6062650969899495
P 4.672240918441075 1.1211128818069476 3.6712043940776833 -0.0787444051897547 -0.6589295172632006 1.546277124926621
P 0.3064182939587885 5.440847499954057 3.967608941480801 0.2932142609399982 0.29423524600534484 -1.7438162663597965
Ni 1.4951366223342968 1.1020726594827852 2.586946909376362 -0.6962588498412783 0.48361884821092194 0.31491771405536084
Ni 1.9436396370812328 6.514576808541187 4.9443135805920475 -0.6025969041097429 -0.3789271270277861 -0.9651869845404022
Ni 5.9475651355676975 5.66239576588644 9.181848864765247 -0.45412983761286946 -0.04490585937375492 0.32121717391082744
Ni 8.569917275069251 2.2830094497033047 10.086159070714814 0.6311220081326292 0.6889810852329425 0.8390898010982969
Ni 2.2331486585742657 5.2413320079077055 7.070061281389648 -0.29461474083195066 -0.8314770217480455 -0.6066569331117294
Ni 0.519746536084368 -0.012836328421579175 8.9819482286206 0.19542492330365055 -0.07033098431507888 0.23054182161144166
Ni 1.5960244860167887 1.1146214859718342 11.341008268137005 -0.537792506039848 1.0787734371100066 0.3695585413286926
Ni 4.211333732265482 6.910036620830449 1.6305147728849971 0.31169689312521803 0.34905682183091497 0.006159334733176489
Ni 5.612399360638283 7.745256857654176 7.982774138159763 -1.295474496183614 0.761972904209636 -0.0519095443850977
Ni 5.183723130106394 3.003816574697841 4.800915211036711 0.40038529690156205 -0.347265277148131 -0.6167490272404088
Ni 0.5991956157225645 7.195034212627491 6.794140794632235 0.5448488986659971 1.2103632682355672 0.294093578221158
Ni 4.882433762132647 4.3994305154821 6.9866974741795795 0.22720324415651194 0.22175353389585037 0.36944387012769925
Ni 7.828415435497313 7.453478559901235 8.923857468649356 0.15744741561861272 -0.45640089303523335 0.7184626396318271
Ni 4.693215902197986 0.5326280692123199 10.704294554313392 -0.41166884023518135 -0.6960410774035174 -0.6337522466666247
Ni 8.14010188593677 7.150679354734642 4.695797090931865 -0.16434208585591698 0.31895460312889584 0.9646308549266162
Ni 7.04063301754105 5.919429726321357 7.007207753554981 0.19955848585604985 -0.21602383050092472 0.25942148076026933
Ni 2.496375663782237 5.0864154791686165 2.830276611027345 -0.8704323199653202 0.033985355806509215 -1.2670951737099725
Ni 2.5474750638658867 5.304256959178441 11.456817301298983 -1.2494514924862805 -0.18427687710663104 0.04379437147713103
Ni 1.066523678391329 3.2648014264697287 3.94724422125992 -0.8037620723312802 0.5759029397583242 -0.4659186027176815
Ni 3.8225370936955487 2.6830258963949305 2.4604062789215155 -0.24521073647752603 -0.4681089255007809 0.6674007879590055
Ni 1.0293473278704575 3.356060687694845 8.448208123631513 -0.28194074490870796 0.4609237206062514 -1.4832516731340197
Ni 3.64002761218659 2.3485381920611057 6.9371558282775325 -0.787263817565941 0.786784049716045 0.5328613872868178
Ni 4.0103536077326565 6.732617189259052 6.060527176322325 1.0270125024876313 0.7169408036706619 -0.1517061422594613
Ni 0.6547277893131166 7.347735710754321 11.035314153574308 0.3816483826136911 0.7983979798058894 0.09549205696173876
P -0.06212121159143025 5.758265907161567 8.148430401038869 0.38847800394101484 -1.3504709070241516 1.1958779301351985
P 8.515789159658633 1.6316729174622646 7.958016424573588 -0.6012478462810161 -0.049402718802843956 0.3878766229115901
P 1.7979991140898122 3.3454285407559965 10.456505860425809 0.15669793904709786 -0.5979552915726734 0.10697126124593191
P 4.14456638095307 6.095719040233439 3.7517365784805685 -0.32136912610765944 0.13369479328370526 0.12471007328659169
P 6.7850908124164295 4.111087775413481 10.518354035590749 1.148813629657544 -0.8213067660832629 -0.3666215701875557
P 6.225727775761194 7.8749220374135005 10.396378176385413 0.14970093890397446 -0.6817573137909936 -1.1209377291828824
P 2.348158472527575 8.544864826797525 5.852487884842347 0.3029003778795106 -0.8321735335944377 -0.1142971054833838
P 7.138374633660005 3.9654020477156884 1.6024218560626469 1.1090363497596059 0.9527019646995141 -0.5357947588835288
Ni 5.657531739480742 3.1401087644113965 0.2885877495771584 -0.6603801336667983 -0.6984152340626487 -0.35938520034011656
Ni 1.461377747615198 1.06361249530093 6.936057353912677 -0.486408238030601 1.3046093686053468 0.5388556571970397
Ni 6.79576816406165 0.7988512423586709 9.192236002195555 -0.6301791846033856 -0.33293934744376213 -0.9536059645710222
Ni 2.7690323707395446 1.511808118044532 9.20921308172087 0.24829940270517883 1.075831066652231 -0.19292503969993227
Ni 6.384251640068822 2.075375192392425 2.545173240217391 1.1242544522609412 0.05964419402519405 -0.17804220905082888
Ni 4.072229809815547 6.9789828389900235 10.358202801853706 0.22228266692644297 0.6977909702150886 -0.19589774917501102
Ni 8.271511967362079 7.129451224622043 0.5314563632231406 0.5399607173357603 0.26445570075006714 -0.8768965875334253
Ni 7.284503367480251 3.624305415310181 8.339571269182622 0.8427595366404003 0.21592252903637008 -0.3819322324026971
Ni 2.886853917429233 8.34996925574246 12.289553991554596 0.8999755808400758 -0.1432644392500113 0.21528232434920985
Ni 0.2152096620048095 5.014775060509232 10.353042232574204 -0.8572019373179753 -1.7783754923919048 -0.16445624283627808
Ni 8.441590154618556 2.185918781356116 5.833989214900529 -0.000809126164856671 0.8516290712158883 -0.2391591309668075
Ni 3.6199024769094845 2.690882474362498 11.544163643140484 -0.04842929914598111 0.039262030824416254 -0.3907560013419141
Ni 1.2969230258314781 3.422900366537453 12.659530102673338 -1.0742580657381564 -0.014425945617342898 -0.17203199830100693
Ni 2.937013059620331 8.354553012968646 8.126795428568915 0.8845690164770185 -1.2375490846217396 -1.6819655516015874
Ni 5.5567433261522705 7.870528139954078 3.5904082141895817 -0.14082754767374456 -0.002173610612551095 -0.1313931417337221
Ni 2.8948280276333693 8.34675972159 3.745027295960739 1.3409511404591743 0.37047771070885227 -0.7933496187487046
Ni 3.4168971815311644 4.258988533723535 9.21294427818487 0.46415893971409733 -1.081623762074608 0.24540819720031287
Ni 7.380147485223515 6.091062955477055 11.375874658162235 -0.7565010824617875 1.3484996422303936 0.05501697966582784
Ni 0.7099245439823835 0.06667422961728409 0.32875213118926255 -0.25515164974032184 -1.1515788511075071 0.08893574390045973
Ni 4.788995634060368 0.44644891288936256 1.6446068880496088 -0.37644781224935814 -1.3214827473219175 -1.0569434857191087
Ni 6.072004651270343 5.5730260613877 0.35207233511278785 0.072542647254417 0.913380541392072 0.025786622045800747
Ni 7.970502868567842 9.078641999645837 11.139082461146865 0.3498212108007653 -1.2335065391212499 -0.03903783062875212
Ni -0.02180132578940416 4.865590488538195 6.0607911718075425 -0.01146712009933509 -1.3596201776235874 -0.08828294080780925
Ni 8.148365306261692 8.686717195394918 2.7055351278861304 -0.9802351371227762 1.1536475607110777 -0.4505652601900627
P 8.420172164739192 1.7037111375377278 3.5524046175420905 0.24956927055653796 -0.4328166779573901 0.08387247044493942
P 1.9514329284598786 3.1817965446282592 1.6545446906985732 -2.0380021471844447 0.8910957618519427 0.2020704536446262
P 4.668588378166164 0.7993593432582994 8.20847852479605 0.46215039392450086 0.9144763455594122 0.4607059481684905
P 8.784033887273969 1.5319513352041874 12.383755175070444 -1.0797435143327598 1.9046361979950683 -0.1614501090201026
P 6.511222619328335 7.837772809716452 1.4016876451324891 -1.5278096622500525 -0.15165137776212595 0.7242010847775012
P 1.7224710906823797 3.255751444253923 6.149752225760673 -0.10621072893082352 -0.21610841979493103 0.03787183534510897
P 6.832628081637915 3.927556667540501 5.993319531169845 -0.09446515835912117 -0.09173310413993879 0.3810827399182082
P 2.3682203212157598 8.60956180255807 10.096043531810258 -0.052258957304716455 -1.5136266858814513 1.8119281315363698
