# total energy = -340897.95271457016 ev
CRYSTAL
PRIMVEC
9.00937978614689 0.00000000000000 0.00000000000000

0.00000000000000 9.00937978614689 0.00000000000000

0.00000000000000 0.00000000000000 13.18613799909478

PRIMCOORD
 96 1
Ni 6.19138077315247 1.9924873549734516 11.407498911933567 1.0519290632236526 0.14111705388970533 0.2782445270040434
Ni 4.415280696410104 0.44679315105487694 6.041808855601597 0.9828491777068558 -0.6578252284554285 0.21095438639781733
Ni 2.777690820996938 1.6027686234203624 4.722219446705683 -0.30928879790435765 -0.027663013132907196 0.1511970638335267
Ni 3.2474668993050213 4.192550814969979 4.733704603766596 0.33678726043494256 0.3095201971888734 0.14279598425402504
Ni 4.93254521436995 4.518501158009469 2.566285729661588 0.9907517203833841 0.2200676615529952 -0.06094671488670149
Ni 7.376348428936543 6.072709225610631 2.5571349028442296 -0.6885347417241432 0.16991392351673962 -0.32553765566305226
Ni 4.998142506933884 4.445372024134803 11.364643996188633 0.7571019492705799 0.8247474163336957 0.17550735844411708
Ni 5.77442668719466 7.742408529769554 12.366065364107511 -0.9632550576250118 1.2516083909282831 0.06199572497650614
Ni 1.9692701838517301 6.474851891574606 0.3441610019406682 -0.7605983924596126 -0.582206770489165 -0.11119121286455044
Ni 2.6213600669014347 1.4652674726016914 0.4211929990399868 0.4671946412166276 -0.20138036955613703 -0.13414293656471737
Ni 0.47455645510171335 0.009167944638519172 4.793635897526318 0.6818604150277611 -0.13853772319830335 0.0664506754240662
Ni 8.537603397723188 2.360745744418687 1.3959502072181393 0.14120524272813748 0.1453938268881883 0.3621082556982344
Ni 6.8074871942463515 0.7606132654570811 4.8283940838622135 -0.21245719619558892 -0.20935181779738785 0.4366818173397512
Ni 0.8562460275924518 7.243910549429632 2.460493991136286 -0.693556877529083 0.8402503970653012 -0.08927692928996238
Ni 7.565788652908774 3.93035985106453 3.6280600303035158 0.8809280772903215 -1.3323063202999827 0.3926861284850915
Ni 7.44461249784973 3.8662581155072737 12.598167703102128 1.0814823514007375 -0.3487554885404123 -0.5407035090390558
Ni 7.848484964688898 8.790658850756527 7.012335259139174 0.4457776089934323 -0.24168446849182249 0.003119519465588176
Ni 7.027072802220632 0.618246148738976 0.5080317057885075 -1.579606592316686 -0.30588182910533773 -0.08778620367704881
Ni 1.6794564622205541 6.576207411605406 9.20660118338994 0.9363186382454842 -0.06480054141515292 -0.3411866750542189
Ni 0.23608898944916196 4.719122022013543 1.4321066492614816 -0.8152847282588991 0.16122128083874815 -0.30001919967697366
Ni 6.355414546770314 2.031948437438776 7.057220889036548 0.15395868573906388 -0.476200958480296 -0.17996102334009653
Ni 3.3538766812680225 4.366503915481505 0.5244260737707337 0.7846659749317777 -0.40291089153689313 -0.8330693059358297
Ni 6.031518342270115 5.550435492616374 4.687118003008617 -0.31936289431090803 0.5753804915959511 0.373494386047989
Ni 5.265333676494184 3.044539634134025 9.217874620031234 0.07141701829040603 -0.28656564527522904 -0.17505921516310496
P 0.2715985580402188 5.443818494923532 12.456245649734203 0.14374266443801048 -0.07809623008279454 -0.45002172898176696
P 3.973830107433295 6.171542119365108 12.402920934004575 0.9136250533027105 -0.3862455150660703 1.294080958270197
P 2.39213442279978 8.389146841361633 1.3639606032205076 -0.06365588628774843 0.855909443758797 1.1606396757581945
P 6.260284508014296 7.766337441876381 5.7866965612150985 0.2326328998125155 -0.2946895599339441 0.4573563149699672
P 4.601333393668417 1.0075099066243716 12.601239901531505 0.5523732320675002 -0.009339532233371013 0.6075295655246699
P 4.001642062129746 6.127972759821202 8.003801262646139 0.07288820351929383 0.3024434928477501 0.8064452755903982
P 4.846965117945723 0.9877613466325929 3.8596091933932533 -0.9786554513404824 0.14625694621943197 -0.3773474412454921
P 0.18754194769929897 5.482027273630254 3.597784911235827 0.6668731975903096 0.043002728813771096 0.10492697712239349
Ni 1.3308295108328398 1.1117754562524989 2.569675058251418 0.6021803853976144 -0.7450367905759298 -0.03661867966429822
Ni 1.8593197157223198 6.4840144305853915 4.603979448444687 0.3825683233247992 0.25553397278040507 0.90417856317783
Ni 5.938496498330737 5.614203881129973 9.091393742288266 -0.13661428092334535 0.17530244152216262 0.9811208821618393
Ni 8.511737469011328 2.208009732766942 10.259434575758217 0.7377911647571099 1.09849508390865 6.427757903214736e-06
Ni 2.317176384874781 5.1610591174864995 7.065501409788575 0.20714735394690129 -0.07621803922347518 -0.6994989540451307
Ni 0.8758783665879286 9.101095042196638 8.884529378250296 -0.9392540667247243 -1.3233496253273274 1.0922596445218995
Ni 1.5549738648636169 0.9952121035273014 11.23599996641372 -0.15019999002758003 0.23345051061780442 0.39862383412576513
Ni 4.097159504206771 6.7723506139690075 1.6612025582974963 -0.07604346131882388 0.7923636006863516 0.15773383651077993
Ni 5.553777972432501 7.8308265807546436 8.060870276520191 -0.21159664796750657 0.5662826430597409 -0.17352426657581727
Ni 5.285424592909179 2.9749601958053264 4.777443339646198 0.09622636402460202 -0.3224667300472124 0.04121169835161935
Ni 0.879237964225216 7.119193708204179 6.796623684374961 -0.4410292956751695 1.6920453044350923 0.15741553393941277
Ni 5.140283488225076 4.60200008775573 6.9010703225322105 0.11536899839132388 -0.05724381211381755 -0.13034104632012392
Ni 8.203697772533724 7.274758665037228 9.246330745366103 0.15346400549083247 -0.12488336563966235 -0.4618380048904046
Ni 4.636803320989418 0.38723935029864714 10.435535512356442 -0.9010132780759709 -1.113444763239947 -0.01577783165954702
Ni 8.134676915737641 7.097102709527244 4.792409720968434 -0.308829598879752 0.056535987413515544 -0.1381494866209492
Ni 7.263532978107595 6.197840498295766 7.144895666208078 -0.03847450192611439 0.601127518653068 -1.1603339715923178
Ni 2.339726861909189 5.199628271375552 2.484030995232327 0.18860610060960423 0.040993668803542306 1.2266357801433454
Ni 2.4091351220262798 5.055910648661659 11.462221883370638 -1.1663246419581141 0.09470221407059173 -0.23079790348630572
Ni 1.1593900272180786 3.2795763280507786 3.745944158071959 -1.0671163124870526 0.5497039127654533 0.5657897625837224
Ni 3.69044908280674 2.556600646636423 2.5790105773497216 -0.025047686997247187 -0.4486029942573693 0.18781754327003783
Ni 1.0412680518292963 3.331740635693296 8.09882048603359 -0.99429444342932 0.4566353776435426 1.267425560466198
Ni 3.7959399080547955 2.697696539898853 6.98695223317164 -0.5392837458733938 0.014168835301214308 -0.11535434310330456
Ni 4.140891032582726 6.849723165615629 5.890353076785085 0.046164671481520494 0.6436517651685237 0.039864697405421666
Ni 0.7421043960925235 7.370681529194376 11.368560373482623 0.7304030998231549 -0.39652529972552353 0.19207246189164986
P 0.168829466356724 5.469071785825427 8.048502200262567 -0.1200887724644964 0.5200956029807172 0.1604584345307946
P 8.541468421553695 1.5940835815261678 8.07264553560288 -1.4771730710401074 0.3520477861384389 0.03357912150702604
P 1.7833526272867917 3.172869236562353 10.449763124554897 -0.4830444637646907 -0.5303633034553125 -0.9711331748215082
P 3.9609106571467025 6.062907020651208 3.825575361173845 0.06747603136478701 0.44715803428072665 -0.6454525658226884
P 6.980368178590439 3.9469551282109063 10.358449458979772 -0.6266220633797467 0.4052881335198182 -0.24871103632130068
P 6.32698094488434 7.732363071562057 10.235120062206297 -0.3607244879768304 -0.0590960348312079 -0.5759196519288726
P 2.3994140014828815 8.53253111703187 5.813161613667585 -0.5111589626127196 -0.30227534270100204 -0.4205589436359596
P 6.935366327696764 3.9766049963372496 1.4856295713413898 -0.9706909450777671 0.5408012109591848 0.889478537963494
Ni 5.268892381419711 2.8925243728469434 0.4130151852149241 -0.20417181625834516 -0.1784597562042217 0.03255556533851813
Ni 1.2950622739864162 1.2299695066777476 6.849750193754304 1.8117790075530151 -0.9213892706291616 -0.24848477924310752
Ni 6.779161704915077 0.7675531905308344 9.305509755932707 -0.21929915881808681 -0.15058231306766326 -1.0655422831317134
Ni 2.679839949614316 1.6733751310187064 8.941374959511302 0.666940046272503 0.4396319011070106 1.320335263981036
Ni 6.273095845746189 1.9859195172754562 2.551543681890353 0.8455453269156535 0.3377714787250828 0.07599589591034009
Ni 4.0099847476007255 6.719771874866808 10.238231901905731 0.8305889627161372 0.4723281057884511 0.004945516930733419
Ni 8.226014005699618 6.953276974258651 0.387134841495771 -0.3127932115131903 0.5020919673144449 -0.0008255812250889008
Ni 7.394033841009472 4.0329316373356985 8.04355695182302 1.3717429290290504 -1.2316463459840594 0.590094657877674
Ni 3.1499403655864975 8.236996439381176 12.504374656272558 0.8171382365278701 0.8161236792204266 -1.188193417006747
Ni 0.16838890769632345 4.933112805282122 10.229765787934802 -0.41903942166763963 -1.2224950185020946 0.16939944577416632
Ni 8.565109033514657 2.329275981621569 5.831754270262035 -0.34077478432778086 1.1157556707613108 -0.4491709509456974
Ni 3.622329163966485 2.611765077671852 11.427146566874292 -0.29369145768673294 -0.3925141216836014 0.1006967410911298
Ni 1.077611888967451 3.1764279414878795 12.65857379116457 -0.32873225134094997 0.46930294580888204 -0.5260304804079134
Ni 3.0879648436049982 8.446140176447395 7.99635050575143 0.42151667956353855 -0.7346533904590766 -0.3081752531252048
Ni 5.663656365525444 7.833006850607751 3.5669295881245846 -0.36988558565080815 -0.25397537004403353 0.594535467257847
Ni 3.154219820876687 8.363100725058606 3.5662169462015236 -0.014428259610188055 -0.1266044620958271 0.2310419011763118
Ni 3.2797114687441526 4.4290650471342925 9.26649193494165 0.15866354741390096 -0.3884479220340278 -0.20708153370597238
Ni 7.238297705964815 6.071069518531022 11.360371748402091 0.33559349723715753 -0.6656632364426084 -0.04586590929417907
Ni 0.4542574220189229 9.009010173731323 0.30720813074437275 0.7054690555856366 -0.27782312319590863 0.31236975082252655
Ni 4.6141627501594265 0.28850105502953266 1.6871666892465416 -0.14678993590476655 -0.15118729364151381 -0.9394039620390273
Ni 5.845357532457102 5.7355782425393 0.43812162323001974 0.5688989976366654 -1.1696650191852564 -0.22959874097188201
Ni 7.986445593865042 8.855976852554154 11.2225507646091 -0.11922385336103983 0.16077699421247796 0.5698654753149928
Ni 0.09373989149017338 5.022062409661151 5.800410638778733 -0.30367170882789635 -1.6562311229499604 -0.2854544144889213
Ni 7.904703493132648 8.81381295622134 2.735358449266386 0.283124480804164 -0.48474447717493285 -0.3954444079565189
P 8.517710687658477 1.6450226135487576 3.6938456189002165 -0.42001155577292176 0.6317002492336025 -0.49638000453133224
P 1.857508830431103 3.185302180352798 1.6425576473016084 -0.39407041042712776 -0.5866331816916349 -0.589974587360042
P 4.720644607158895 1.0775398139309846 8.289452650921383 0.3993141753245704 0.18950855781921555 -0.8056901425919286
P 8.442374255792028 1.6076156696227242 12.45574472823076 0.30043546127878584 0.5637387935919645 -0.6522037685035929
P 6.353909980384079 7.731263927255945 1.468869422549097 -0.16878572344956735 -0.2870346144918476 -0.5045368293105117
P 1.8187504795713254 3.2200063104113434 6.071622694435901 0.013950805753137263 -0.13943606664285665 -1.0948670002377596
P 6.988873032893468 3.887583316921754 5.823723309323773 -0.44191426938328404 0.4163014539111863 0.4420034866629807
P 2.591142607862919 8.333441847552704 10.218795066446669 -1.7782963024145375 0.9248857138181941 0.2374570606740362
