# total energy = -340860.7002643427 ev
CRYSTAL
PRIMVEC
9.38766234196592 0.00000000000000 0.00000000000000

0.00000000000000 9.38766234196592 0.00000000000000

0.00000000000000 0.00000000000000 13.73979275692166

PRIMCOORD
 96 1
Ni 4.151111667902976 1.1460646029311765 10.498190960487909 -1.5490731996145193 -0.8060099878251926 0.5232637162960537
Ni 1.0401717708915337 6.352631156137081 7.190253783999313 -0.8659244047926377 -0.4393876463066885 0.9074364079934951
Ni 8.822299833589303 9.374716828391856 13.149943676905034 -0.004648811625921026 0.9075688198063014 1.342813904699526
Ni 0.7147540858777932 5.156661739808499 1.2864139110983286 0.031043242459049762 -0.7876358561933791 -1.8714062322973446
Ni 7.689152654140977 7.908072941655558 7.029153986830349 -0.4002366871388398 -1.068486967582334 -0.6780279286555485
Ni 2.653019112076891 9.141686884267738 5.022869713838127 1.5103711550586312 1.633376329838974 0.7938769520070844
Ni 4.5595406965863745 7.78623985883548 4.2291766522462435 -0.05329408343745015 -1.2249002855094777 0.05644497036160601
Ni 7.7598417521248875 0.6710639049990256 2.3420302641947934 2.122521250074448 0.47783463742897714 -2.7899958286941824
Ni 2.141917219562147 6.9184725081928855 3.3608629396511045 -0.4891621466266544 1.9042698157945845 0.19264684633788112
Ni 3.9713473203207843 4.135706513880188 5.1123022185995515 1.8676603921016675 -0.9122155745496934 -0.7125408748307535
Ni 6.295056622546733 6.035008985992643 1.9232691742575974 -0.21758603278172203 -0.936318124024852 -1.722856119168362
Ni 2.0972037834801593 5.627715864461442 10.657173839782319 -0.2376087557605521 0.19834929603929707 1.651019496842034
Ni 6.116634710689866 2.822907638798648 5.001984981263784 0.07711175468233816 -1.453652105100032 0.672606500529661
Ni 3.0668460466488354 7.828127608530593 7.88407150515948 -0.29748126374646827 -2.765759838964953 -2.974755816084819
Ni 5.365790695424378 6.3533258431557815 11.153840323801731 0.5573303189624595 -0.08885449704056311 0.7879258766299719
Ni 0.24716964125338325 1.1865911415761357 5.5794689122465 -0.8368316011917394 0.8393116873011157 -0.03808600823844408
Ni 4.2914290580179175 1.2205838671803506 8.19933173944034 1.6443158595696132 0.23002888653076514 -0.5087238708086658
Ni 4.001162536150386 2.7346354491117006 12.345519578406721 -1.316560627429952 2.151741837502462 -1.2012440795431183
Ni 4.50237922014228 3.8019563397070155 8.425392282987666 -1.3035151070999034 -0.5291440863362306 0.35419697127095773
Ni 0.26892179383485987 7.305150323061049 0.10957936706995908 0.07088171461222631 -1.1565999584711824 -0.5980712483252475
Ni 0.5921859490906312 7.865640707540382 9.398760509368799 0.5416573883118929 0.36790249378250833 -0.9990329865555698
Ni 7.964830748615813 9.11255696779442 4.316451872184732 0.512701110288859 1.9618147040885892 2.536105305054471
Ni 4.453018891164936 4.663433956531652 0.683348600035114 0.1662218193771331 1.8637497441933515 -0.42314547341621317
Ni 3.4004835688730295 5.466388885862039 7.0216391630672526 -0.33265421210317553 -0.6319247065395827 0.900345819695301
P 4.864667888056633 5.489135191893249 3.4075646826325596 -0.5509902356770446 0.5918003277148711 0.4645898566039289
P 2.2688102524238363 4.699614007478529 8.77583935353191 -0.43450409296214204 -1.0101476084114926 -1.1900034736322924
P 6.60603232770145 2.8196688952655204 7.708532544430219 -0.09761141729758674 0.709496688687791 -0.3932527996218389
P 2.563704891861894 7.279690982591943 5.905513693109553 0.07143784422601246 -0.3663798864903948 -1.072787651840217
P 4.523961456034048 8.420338904309745 9.291329039459361 1.973886804761775 1.951026098113517 0.6820437346831608
P 8.530052514952237 3.887534270280897 1.8871876937660754 -1.427828973389341 1.5581975305132905 -2.7211496564547457
P 1.3608824819704626 1.1185493643932163 7.362042373593837 0.8821683774553258 0.5050297097865302 0.7239969391864951
P 1.0429505189663328 7.493157038243489 11.57811103281021 -0.8876823652950196 -1.1631452157888678 -1.3061615435838152
Ni 8.304410661148614 1.9128676443019303 9.212640714331746 0.7580722836036493 -1.3315203340635777 -1.7896839754261888
Ni 1.104561747395072 0.814599385789782 1.1758666760333973 0.5933823274900103 -0.35635798347801856 0.017838313733001536
Ni 6.5258241400288695 8.037294114796133 2.9624777709853665 -0.32020030261053883 0.5801450028641298 -0.8527544430695829
Ni 8.518102020698116 6.97534296710212 4.136240671871593 -0.6781551982620321 -1.1553822840139971 0.18518550496382946
Ni 8.253031984752075 3.918203763390251 10.132465469363474 0.31124309341725104 2.307652504761574 -2.0261159372698203
Ni 6.632205130514086 4.594950959215234 11.801754253285706 0.06410582934097346 -1.3026193347585113 -0.30110111988724275
Ni 2.413586782185837 3.0488123471498856 0.7215620186610511 0.315333975657173 0.8774522029265791 1.334560149331166
Ni 0.366325362752743 5.136140309769611 3.480179190177758 -0.46049100394420694 -1.152082530216803 1.582652064011229
Ni 6.510503474967815 7.301798927578944 9.410370231477259 0.5501289161180138 0.40733138920209205 -1.0530950585072962
Ni 4.072001836732935 6.330110154003828 9.298913331924329 -1.2489254447794815 -2.4750827426245117 0.4989899313503536
Ni 7.308792736078016 1.1228395261168083 6.594688276439331 -0.009057225106261823 -0.7836922981645986 0.5194181172977184
Ni 2.910316163543427 4.830787814401395 2.7861549404444634 -0.3507882026997249 -2.3561352828533098 0.5906230195773182
Ni 2.4903121471025034 0.05034978859587058 8.942049794119525 -2.431493030959019 2.3491920187662574 2.955847923436722
Ni 6.101820979399214 2.585615695938182 9.806543666878055 -0.3303620736348891 1.0361905694424736 0.2613577785510337
Ni 8.476627328149258 6.7057950161841875 10.654096564042728 0.2238926917260402 -1.9307922875651458 0.6901365389936244
Ni 3.7710897056869492 0.5113985426470536 3.00290010657752 0.26688333635495326 0.40242495303941017 -0.5414241892551643
Ni 5.895865053679559 4.771636153525351 6.511260120558453 -0.2645747428264347 -1.8502956755709747 0.2013250908381694
Ni 0.31833938755293467 2.529317884436255 13.720475105103302 -1.9244774010907115 1.214459806902444 -1.0967408202217048
Ni 5.234616888501513 8.921180081805044 6.293278599285358 -0.10971282854681104 0.8303318524000087 -0.3085398355534751
Ni 5.194390755053829 8.72770035943474 12.591586169326357 0.22561095996872757 -0.04486652149538725 0.34474713871196755
Ni 5.184580647830298 6.771855996597572 7.37101416256372 1.9420313508140747 1.4236380752364448 -0.30624692575424034
Ni 2.6563705075589965 6.233464169442824 1.033943056879273 0.8349665229585427 1.9399125046988588 -1.7582985191363716
Ni 8.815653368599582 2.5207281733266567 3.2620606090334068 0.5614394560348266 -0.9695213502496979 2.638572507782462
Ni 0.06269268713893107 8.24931447043579 2.249204119470397 -0.42102791285257807 -0.36758007744608306 0.47948837098231617
P 4.29434862102894 1.6508485986407186 6.113727351639984 1.0325100352670928 -0.29158006777068496 -1.6386969707209391
P 7.46183979642751 9.561991305905936 11.617269789041321 -0.0989339927637522 -1.7971630574120534 -0.9199772207729834
P 4.616946252253256 4.142606445755111 10.758505206654581 1.037197670550749 0.5953708186749489 -0.8254902080369914
P 4.380255119787341 6.736398795656638 12.922233721071418 -0.7130103582680043 0.5557256934795011 1.6684901428229717
P 4.74653354422801 2.6606888322698334 0.6179982656665355 0.5311297493076917 -2.1376920442776153 1.4371929311027443
P 8.984631292067096 4.525604296956649 11.967675553870944 -0.02970832569771013 -0.11265597033553502 1.2590707607435996
P 7.4281662513454005 7.667823885134411 0.9100390557304759 0.824896026096418 0.3313712316256938 1.1753859808294338
P 9.435821123050193 3.542237271337445 5.296827988558562 -0.6422641407923778 0.704070118355581 0.21364967384179334
Ni 7.721934371293675 5.361707062273913 13.69849107726018 1.5682184050844024 -0.35462737394015703 1.3393609131539193
Ni 6.26433080346289 5.0023567326954135 9.037555177697122 1.732827628558777 0.4138288240009776 0.3085143816321783
Ni 3.3740009732007037 7.862955836089731 11.094525317599667 -0.8471815769674959 0.06553921935339035 0.38019956598230653
Ni 2.0030267541342646 2.7773117624496635 4.9151359611989305 -0.1810802245462043 -0.5003140494784157 -0.9740909718982516
Ni 2.124916162928832 5.317791577497189 5.1613809177044505 -2.3048201775191015 -0.08227658671272926 -0.7873743750018762
Ni 5.900981329695658 1.490807729792152 11.846462995536488 0.19664336909178393 0.6682582508632943 1.633414639276077
Ni 5.744526547889569 0.6557469950029369 1.1130801122703176 0.076195670625972 0.8200168436272457 0.00888804651824921
Ni 0.5653071940643983 8.216194797436156 5.365663961981777 -0.3439914914928656 -0.5531466198984151 0.4912203147072637
Ni 0.40106159122021523 3.717242074075301 7.721914657202604 0.1641903907694011 0.21231681396298274 0.10507481555416742
Ni 1.1731104583483938 0.6908033427587559 3.500981311322851 -0.10681493817372571 -0.007638490381864264 -0.27438632960021775
Ni 3.4946418228940948 1.0753004036479472 0.09140391386854486 -0.360827846323914 -2.750821986708198 0.27895852235193247
Ni 7.380730393163103 7.350943340320746 12.598634426267436 -1.222226081111424 1.257704219413376 -1.2404660011582187
Ni 1.8950874116881817 8.785340606661991 12.882388726717778 0.6355887856547312 0.7934149247690013 1.5225576698224939
Ni 8.237354588519255 5.061508393571458 6.370509959206187 0.37803546845145214 0.9108870855462571 -0.411738260020536
Ni 6.678730385442141 3.2168515043759145 0.28726622495974163 1.6949920457682421 0.18470625133456575 0.0951560137785587
Ni 5.131239949989053 3.373184246570611 2.9553328211214147 -0.27952287949583476 -0.5662960127961795 -1.258331825695046
Ni 2.057052751331795 2.3841752358400745 9.06444332038577 -0.40317802915535084 0.15707254877769722 0.5937309690786806
Ni 7.041450885827578 5.131455866224595 3.921638709067849 -0.034544056523456636 -1.3690977780967195 1.1063624024718686
Ni 0.23624240220248394 0.7187184957155894 10.844722437038914 1.2742276709896956 -1.1640463874468987 -0.4134632131314428
Ni 1.3089968718035205 3.0558530939610318 11.113802882368585 -0.8729705130061417 0.8197725888269237 1.44888913649375
Ni 4.487593651838872 8.091029094458802 1.279253002208272 -0.5623632534006767 -0.9561860665933726 -0.33896729880539683
Ni 6.556653223399276 0.27632772071394446 9.607097146276866 -0.43996357341481646 -0.4835805387738188 -0.3044618088293595
Ni 2.8043670055292957 2.9034537823181634 6.981106053058603 0.16543171937566992 0.6034834204797542 0.24094861876706244
Ni 8.117887196627722 2.255292018546435 11.69105212179093 0.21779352080683784 0.9608788440833517 1.3377922831152187
P 6.137193691378414 0.9617378514153622 3.53148370404122 -1.792701422096274 0.6047103509083198 0.8892890476605072
P 2.3487461978863857 4.709330238077912 13.108627635850986 -0.5832349546433633 0.4904235298375812 -0.7028789262609573
P 6.327106102031072 6.608820463438664 5.485392330888444 0.7658146465532295 1.3940382500921409 -0.3780971749273231
P 2.350295162184838 2.5132368187195966 2.8639364173828024 0.587525097378285 -0.9758812310294549 -0.9795121429138228
P 8.93916684299192 -0.06908756277593504 7.928396292017492 -0.34725422140453743 1.1225068734422152 1.0738027233682925
P 2.2324048975790016 1.2440717985423353 11.936417454328176 0.7424165793442633 0.7710735809593237 -0.8608860710377819
P 2.286947216209349 8.383482941668998 1.5159112778557342 -0.14663361283256038 0.01634475990661056 0.3124589681022232
P 8.40909248473674 6.018758942352516 8.529388807219505 -0.13634971440804905 -0.15424896328597307 -0.26640331139474116
