# total energy = -340867.3161018422 ev
CRYSTAL
PRIMVEC
9.19535734741729 0.00000000000000 0.00000000000000

0.00000000000000 9.19535734741729 0.00000000000000

0.00000000000000 0.00000000000000 13.45833495891076

PRIMCOORD
 96 1
Ni 6.032099217074356 1.2654466809991232 2.624697960429239 0.979201039431307 0.8858044315460164 -0.6385794928519389
Ni 8.570863804921949 1.971438628470164 13.425711771474786 1.4148379604463115 -0.04487809145961303 1.2460501801142154
Ni 2.0305371898413607 7.256930004876565 3.3077622040068704 0.16161980182874747 1.197104346343132 -0.4483831649370794
Ni 4.03552048174425 4.244337850684426 7.897337905472268 0.07292625584608085 -0.9340375555207913 1.3724047309827656
Ni 8.91320695722468 7.711217436957257 11.127700948008213 -0.523038487659125 1.420473047244902 1.3018055806079645
Ni 6.36784010283523 4.362323480208905 8.607546843801382 0.7598751411403429 -0.10402374858183375 -0.8001208760342673
Ni 1.705490504621128 4.361725781984363 7.0848582032454654 0.2943892550847059 -0.20202803044246498 -1.785853288826189
Ni 7.247366833283902 2.9097512781418096 4.214733397855023 -0.20651743367238626 -1.2799352628974345 0.973020364541892
Ni 4.499040052554782 7.9424530869963865 4.6291561974302615 -1.5098656761771223 0.1791999768043559 -1.0693981665426937
Ni 0.6165689367938018 8.513503166080572 7.077549733262919 -1.3004087002604376 -0.8032488801402876 1.1135072410467661
Ni 5.239588152761618 3.4170499450606764 10.437638117989065 -1.1445715665517384 1.4168588475310824 1.4430894990928371
Ni 2.8285378824625798 8.937050518705234 8.238613476792397 0.2595994010990303 -0.2868656930141511 -0.06630463676450517
Ni 8.187233498339355 6.114921800281198 6.124726809770868 -0.6353710132169703 0.09233602783126034 1.5746682744748042
Ni 1.4391010036216614 1.6605895749221153 6.908984121370554 -1.3156517424624374 0.19517089831131548 0.9524507679206563
Ni 1.730639806838371 5.531641895987164 10.501969757200056 0.20452277183986067 -0.1455820316395944 -0.6095946755838147
Ni 2.9522062427988525 2.0649278261457447 5.144381262342279 0.8712905542005575 0.7565509618631164 0.3080909209415146
Ni 8.553309867835033 2.9450522548189566 8.61603967580425 0.3158062873079013 -0.32517538722762707 -0.4019978928043206
Ni 6.334240267258702 4.825512018156614 5.200340528731038 -0.3629698323675813 0.4295248945799957 0.34933115853822416
Ni 4.387463587068847 0.2867572174203786 6.403449123981949 -0.3252324657178077 -0.44839987710762774 0.2515896434206764
Ni 3.64025804817635 4.5297985227254145 0.9984466082748943 -0.09847556507009492 0.6485695141851152 0.8572050226417688
Ni 7.737001218828244 4.00103789186686 10.573782739110847 1.12062508303847 0.6753195285854499 1.215279988810894
Ni 1.1111853669236296 7.62659256371949 9.4964160572675 0.6444817172689868 0.8663092989358823 -1.1201232037013868
Ni 0.7339559485580093 4.738312444874669 1.419262020245536 -0.501656165328607 -0.7828471765554841 1.0797674255921599
Ni 6.667994955842638 3.0816768735918276 1.009074602242971 0.3243202383161834 -0.5026889774684956 -0.46645184951333213
P 0.8982696272345598 3.609030614783385 11.427431895044062 0.8777033997054368 -1.2810071558053746 -2.0589733501194734
P 7.595990414622969 9.190189509834482 12.345115680147456 -0.42843628950150736 -1.2477653630331091 0.6112687208521278
P 0.948445933416948 0.6384364159904476 9.124858335284912 -1.1165406285564514 -0.08063030935855792 -0.5891801164832046
P 4.546138672648647 1.0754338177387512 4.146122239356317 -0.6711499705887926 -0.657748609581222 -0.7224164820732526
P 4.605200452590641 6.903386907381656 0.9781073974616142 -0.6657514252810405 -0.07925836871169575 0.2589792510165282
P 8.300078923132778 8.963128552009842 5.462159017616357 1.8423599656636656 -1.2500045367762729 -0.9043932502917973
P 1.5892152115545675 2.8050713306313533 0.922001924891775 -0.3649151290194102 -0.7956078186552621 -0.10713992561331226
P 3.8728178296667712 5.010614560618445 9.99856072641936 -0.16660002865215823 1.6450015727827283 -0.6886794948321237
Ni 8.937032127990632 2.8125471561167714 2.713025804051972 1.0629030457366533 0.20326344551146283 -2.0989606891456885
Ni 7.460211768721756 0.15832014478799505 9.610691360121171 -0.20860722632187947 0.44477770697400826 -0.6630491958585291
Ni 0.7429278586762412 0.18883401845443035 1.3097250850088828 0.2064179319800445 0.666108294399827 0.2236849465906083
Ni 9.094263542474232 7.273637969091823 4.290988656877749 -2.040160074067712 1.3675913687545223 -1.914685097590638
Ni 6.716528051675403 7.780605603147867 1.2872102526582718 0.5871985672768016 1.9054584367860476 0.7367362411300343
Ni 1.92406414765728 5.067487845522888 12.821809439362612 0.015287008066057543 -0.43389499862323344 -0.5581021641314775
Ni 1.120178426363653 0.3423256811238607 12.335519405268512 1.9968472702126898 -2.0302147899295426 1.882417495806184
Ni 6.416391589382597 0.611682523924243 5.2474722521111845 -0.7571757399313088 0.5962699334504505 -0.20490869442436968
Ni 1.9533421653025094 6.6481145933586605 0.9093969291040611 1.0556839022803948 -0.5310181634304919 1.282049738137276
Ni 2.0165602467443917 8.954659627935955 5.324547737005128 0.5651917239884072 -0.8928196865215848 0.06975222899347343
Ni 7.199017644597149 8.648261127321414 3.3595504563240604 0.09422090355879902 -1.5289836279534958 0.79216048353661
Ni 5.907069943857589 6.562331105101014 3.14518552832441 2.5612339818012986 -0.5021325907443933 -0.23307127290151472
Ni 2.292080737543391 0.5764312021765193 3.2104054390506414 1.5591524382273922 0.7504186237131334 -1.1774333502767658
Ni 8.958861906222346 3.4781163128942096 6.119330054571123 -0.18741593695624495 -0.2990864034500591 0.05291510283147661
Ni 5.604469125808212 1.8787126454505358 7.964117348796688 1.463967628093427 -0.27999596247751135 -0.224488159218194
Ni 4.221708076367557 5.806417562844812 12.33967846537559 -1.2357467413056782 -0.11975735726700665 -0.21827765953210795
Ni 5.397481632970864 0.18309427642737247 0.016034864060851566 -0.7634854841994205 1.0624250776589703 0.7136639326916032
Ni 5.994582159287756 7.235642752725589 12.738327549037315 1.2236288749962219 -0.5004917127068605 -2.0463070675057144
Ni 4.065028383321995 1.5080294019472396 9.699166329460715 -0.8154726758999892 -0.3566698582914825 0.48863069960321653
Ni 5.902086060200643 6.452032794279868 10.259718988650492 0.9269274268385713 -2.1979844134097695 1.1606851842841495
Ni 3.2119199143980564 3.5794767364191364 11.525610724942968 -0.1656813734926308 0.8498349554299428 -0.35606667748984483
Ni 7.663640658283758 5.774114272647672 0.8478588394410052 0.16157583596468947 -0.5019466999858323 0.3491542666407277
Ni 4.550773132728168 8.842595808513085 2.2241785410925643 -0.8700883063623402 -1.5404276081243793 0.91943883177101
Ni 6.27869111380555 4.700988489591381 12.57034032511916 0.4058938854246171 -0.10910167732537339 -0.5207908292755289
P 6.696987917411548 2.1915203101036207 9.941631349835385 2.2000541514546046 -1.882051627826333 -1.2997782657652905
P 7.9293037260564745 6.023547534784764 11.724336189245692 -2.0230568387285226 -0.22853610403532254 -0.04071727521370407
P 4.815884479062847 3.246393308918146 13.269043112857986 1.0903164047525997 -0.06425495332432804 -0.93515469984437
P 0.3622262733939002 5.586795649076387 8.133907782281497 -0.8600273225819124 0.9176547432873938 0.12075983038959201
P 2.25744182659189 5.263909872821804 4.046490543003911 -1.9867806300053072 -1.6396871025483502 2.0825953604137872
P 3.437141800762569 7.168755723720752 6.454226806531799 -0.3111834438239092 1.279930377801428 -0.25282762959283556
P 5.565664717999522 8.102387936526373 9.064875180541394 0.17186899036058143 0.8993582589710511 -0.3594793027158196
P 6.215243148431153 7.010926611012611 5.270661104151932 1.6317339091395446 -0.6247690693314079 1.4996092885564367
Ni -0.009223862908269416 0.7233573797332945 3.50508905446417 0.036009585325389594 -1.801277593801059 2.486020729693254
Ni 6.608271110174998 1.9008090890439677 12.14550102479376 -0.8424486902682008 1.707693809605627 -0.10294619924693883
Ni 7.975997750429111 7.182052210377473 9.046665614478943 -0.03944432203855142 -2.1532598168088852 -1.2569645130338738
Ni 3.917277382215353 5.837644996237778 3.1429519760360853 0.31027970106271724 -0.5466710394764004 -1.5454533434737447
Ni 8.837768245930251 1.324894665947744 11.16803546327173 -1.1905398057517367 1.9250044772387747 -2.383502619122669
Ni 0.021619204549528686 7.503613855180765 0.032806276241484196 -1.1325274909030107 0.4733748018854106 -0.5370013775971203
Ni 3.2762138526441134 1.8416461601716665 13.065068938608055 -2.168844815731336 -0.7545323887711909 -0.5181112255608368
Ni 5.488653600606685 9.23186286912097 11.14811739982282 -0.014994159415987078 -1.1738757148324945 -1.5544115811082972
Ni 2.8102115353624093 8.575029301779137 0.6828601066455572 1.8174043241595925 1.9986889514071193 -1.2134887012384263
Ni 3.9073372009733642 2.1110333476511407 1.6799632732188283 0.27549576061431263 -1.046453127710746 0.7782207335270662
Ni 1.8995861065229829 3.14085819317873 8.903738497812215 0.6139712073849555 0.16016198633629838 0.3958280165481828
Ni 5.546602742315301 6.322874805635114 7.628346118356721 -0.7793466196013933 0.24723522310672258 -0.7878806252143334
Ni 5.200305586373296 2.689035116854609 5.5811175159432445 0.5227716071509836 -0.15751477852143841 0.5254933769575207
Ni 8.779009912779177 4.655545033811631 4.128627152556125 0.7829636475286903 1.8821891818454617 -0.5959511166584511
Ni 5.297757983045451 3.356985871172913 3.000737499560157 -1.0721533606903277 2.363815682216703 1.2829871623498807
Ni 1.928422747017782 1.7976923522746195 10.67251329044779 0.19481840006790319 -1.0192058619590187 1.2890431387359738
Ni 1.2811891326978146 6.503811851239757 5.70310404542923 3.0110837039815754 -1.2727261467435047 1.8069260503360882
Ni 2.4859188694408285 6.34907237858463 8.187580163309589 1.1087645841554583 -0.48963060162264066 -0.24492097315124914
Ni 6.766826656109889 8.372731441165113 7.248524528768051 -0.551230890932941 -0.4974274719592401 -0.6483846518678188
Ni 8.015022846813016 1.0860912368501898 7.0160585399220965 0.5873428061641498 2.106527445749353 1.4134032848823144
Ni 8.863395706727127 4.460033346885478 12.775526447461313 -1.3904466760861407 -0.6409857883005864 1.124598208753605
Ni 2.312126616458781 3.3091148410657945 2.931036691221325 -0.3758844835467204 0.6958582719687499 1.2585251726527744
Ni 3.719770302754962 7.330189416490743 10.272639385193617 -0.6464067022058415 0.5116736974656091 -0.08465228603375745
Ni 3.8623535130586455 4.550543248795652 5.681140014980928 -1.141583430457692 1.5211631034678126 -1.670914435993748
P 2.108191982245244 7.414897047944216 11.966963047908854 -0.9070024057798702 -0.815930332262698 0.35031563393868054
P 6.967864752773726 3.1982648088066097 6.850427166544365 -0.05813752757268052 0.3265077328858054 -0.7311559188287795
P 0.9538895849389254 2.2135891676251505 4.70977097534922 -1.3705422238527298 0.6781287158994708 -0.6358186422773502
P 7.105133046557642 4.544078912613305 2.5123619584302714 0.008078149022444152 0.03201974743970614 1.628262919871809
P 7.940117466242024 0.7791152677971698 1.7505790196090736 -0.6121544658911909 0.41379359988766795 -0.7699710919237642
P 0.14439009801325942 6.745530208601613 2.1559177257070123 -0.5090555431164717 0.3881609869212283 -0.31790019372245254
P 3.484056513710421 0.11297599886709171 11.950570484449006 0.086286993423703 -0.3139790042911754 -0.8514539790906046
P 3.4706680734806934 1.8097474656957553 7.571511453952942 -0.1141549234785647 1.4157162492862072 0.4101855708214356
