# total energy = -381173.9328135069 ev
CRYSTAL
PRIMVEC
9.17559375777808 0.00000000000000 0.00000000000000
0.00000000000000 9.17559375777808 0.00000000000000
0.00000000000000 0.00000000000000 13.42940894773850
PRIMCOORD
 96 1
Ni 4.832078623283414 2.9038368058838966 7.86671902115262 -0.35036782733285465 -2.381921647788795 1.9513526282150007
Ni 3.5557810816590396 6.015803601175657 13.585727036939014 -1.2453382416488552 -0.24011686689438644 -1.1277190137707738
Ni 6.872593003853352 4.0798818119410925 6.806588371361818 0.004082654709805872 -0.9898294656794309 -1.560389653068603
Ni 2.0614897875172713 0.23506586195143103 10.258013592000115 0.054205539508126 -0.5545987789639094 0.373348347388428
Ni 3.1464486760039576 7.14939313569072 2.403152190444187 0.09826884837592753 0.7831202277112126 1.234218220476294
Ni 5.911055024749251 6.187387201313517 0.24186222412373654 0.05963853759823922 -1.506919963285237 0.04492334287525167
Ni 4.51059335066148 5.745646599097636 11.060769759143486 -0.8501185481086326 -0.5176296579387278 0.411164132684621
Ni -0.03944312416645003 6.679777080147631 8.107280146105257 0.24565733709664145 -0.020261321352197364 0.6344536436090235
Ni 3.6601901611226064 4.876708710506438 8.990021797693643 -0.8559369545626226 0.6135217785523628 0.4079499966226974
Ni 4.961500370874029 1.54414229411765 12.850601417471369 -0.2683293247728605 0.7873149825188505 -0.9717139870256426
Ni 5.202185366340136 2.619063083216592 5.70974158381959 1.013939471353757 -0.7741491345608538 -1.4187267539777568
Ni 6.316937407214396 5.401598541837253 4.326875028000503 0.08915043101442711 -0.5435561479965025 0.4395159443544366
Ni 3.553349549357621 2.404455124734004 1.126591309283772 0.10366636524241502 1.4283102839011337 0.15492182098328156
Ni 0.6738822024900953 6.278629303975061 1.0028721931095033 -0.0716522742296637 1.4303031459614464 -1.1438979375234815
Ni 2.6957068164760325 7.56605684062442 8.552989192548925 -1.6450745921125085 -0.45981197559931136 1.6748682784351734
Ni 7.433634673929791 2.9778104414085713 4.746383166947183 -0.5914727691721233 0.9844082946638594 0.6925520904136524
Ni 5.82097822247367 7.698607465629314 5.715543311646712 1.753094349227613 -0.5806936762787483 -0.3446656347417548
Ni 9.007551769247833 0.5721478085580892 11.06255624721551 -0.7511470172387258 -0.7395040336831586 0.473421595962946
Ni 5.2066905827929535 5.1678411195317935 2.188953463435725 0.1608142752083166 -0.76832301479738 -0.2937328524476296
Ni 8.479138509978359 6.562577223219242 12.099359785421793 0.6750261657147472 -1.401608092019599 -1.0683864374487277
Ni 4.588815286018445 9.08196583326484 10.816140175992928 -0.0014693854566748888 -0.44673405936943056 0.7709067163641562
Ni 7.933640295443821 1.9559154076677414 2.781874815882163 0.4701686362432871 0.24950550719813802 -0.7934804878996141
Ni 0.0022948159569239892 4.06039285115538 11.61630423794705 0.41743762439815846 0.5845043082740902 -0.12753391588863197
Ni 2.9977214794994356 1.7218643663673932 5.596652392819639 -0.9005201404896361 0.08833153465755754 0.10397258362892414
P 8.130970611195949 0.7340419818646341 0.45745564135791816 1.1548971168474627 0.6595491531250706 -0.7347842596099862
Ni 5.878509194284599 4.365251948191764 9.344370376318452 1.2980720817074611 0.4549060536572617 -0.11271716259077362
P 4.525852362802082 4.131843198442733 13.410527335367233 0.24384830891236067 -0.22993221305190079 -0.1433541707503402
Ni 1.6248416397439853 8.643803712549163 1.385001716447542 -1.7747453518384855 -0.4267774137418456 1.7296656858910275
P 7.62183527405961 8.159304844202671 10.239292628397905 0.40438439075862614 0.10177274776412797 -0.587285213453337
P 2.1833508459895126 3.184646672120209 3.5028333188464456 0.46501177463269594 0.2799399124285953 -0.11081351781015754
P 4.389071789152078 6.320671873805632 4.393927513280044 -0.12620337000266652 1.1846923458320242 -0.5035263857681264
Ni 4.391218878052199 0.5305502550166462 8.605403853373925 0.7378963228764065 -0.8863201948401704 -0.44357288803262956
Ni 7.134675483571944 1.3694022897847413 7.256339266781994 -0.15344652198933575 1.1065575492018103 -0.9167990801553177
Ni 7.5451364872386275 2.257673154070617 11.904552757906986 -0.0671844682662972 0.022278351782226147 0.8632283460177133
Ni 5.886776404109423 0.322846930710729 4.279038988377041 0.1606057587419363 1.3622079929554216 -0.7745186020851307
Ni 2.8399196209341464 7.561450692642111 11.665952457304588 -0.5833131161794664 -0.9325108344636198 -0.330001862081993
Ni 0.7479365832383645 7.428055913026912 10.309005118259266 -0.48362681863072193 -0.5541534638963745 -0.33723308972310956
Ni 8.002769217552839 4.889527014752032 0.18462120107025948 -1.0207222986035454 1.6705030594879426 0.49971086867677805
Ni 1.1729069530493268 1.832522025065927 2.02295229443818 0.821278998169121 -0.19941733229249528 0.46491175871972196
Ni 7.548834251455503 7.728180403770722 0.2849113565711587 0.7998210854056612 0.6865537067383725 1.8674032817855386
Ni 8.236600044607021 8.141109642113186 6.587286179198453 0.2550752879764317 0.26966912663020653 -0.22593646162894637
Ni 5.689216698517538 2.725316456991801 2.9906351685696775 0.13183177193303747 -0.19852875903995484 0.2563104459351134
Ni 0.7344007475740132 2.4218520501811365 9.64308090809 -0.12882615233749425 0.24681561907080074 0.5754866781565121
Ni 0.2828248265887336 2.2797496322487825 7.354535551825597 -0.15290813298736247 -0.8984997676254978 -1.5381310987807186
Ni 4.06146639560544 7.426587818052471 6.8701229340588545 -0.5929591239096628 -1.451722749287803 1.6158380638448948
Ni 0.7200180046212808 8.268953187606277 12.633917939718666 0.6305075144770819 0.9251271404050391 0.9098313905882329
Ni 3.0874037312506353 2.1190941640769227 9.504502835655668 0.17124986871934378 2.0719589637458635 -2.589731832130675
Ni 1.8309805253427633 4.147331600423092 0.15510790428718865 0.1987979535409415 -0.9763895381244408 -0.7681880318814125
Ni 7.81003587418943 5.906825076104141 9.910701776099675 -0.12215876761964767 -0.41586873724914186 0.2606656375800156
Ni 5.6080493976181 7.480989912449122 2.5959451751659324 -2.1515163517552174 2.267980897203565 0.49858292571992197
Ni 2.8481042504166583 5.011837677310195 2.048347584817942 -0.4247372433833653 -2.876980105295226 1.6411911978977027
Ni 0.5528423596441825 4.433793632311005 2.2934882485314785 -0.08323406552999213 -1.7988615281603986 0.2960941535909546
Ni 6.556429575513769 0.001981010656137102 12.337866494969573 0.7781052909951244 1.4487963196696272 -1.155233674251275
Ni 2.3523744555156894 3.492662173351642 7.657099832905056 -0.5803033828188652 -0.6395701388999824 -0.7608824993589348
Ni 1.5618420141532614 9.067862945916612 4.03760526447397 -0.5221820531961007 -0.3466119598348482 -3.526697102821223
Ni 2.878402060451696 0.47621606001256345 13.399944205720228 0.04229567544441748 0.4414126471565173 -2.0508193535537713
P 4.856577458169408 0.5581522756548658 6.544875668064913 0.38693431360297875 -0.026627372779541237 -1.3580808581609256
Ni 6.276785009663418 7.077116984980244 11.578432892962612 -0.6568790624920752 -0.035616720762345115 -1.2207649231848654
P 7.809558743322736 5.875453721619043 5.852415641232618 -0.7295438371466533 1.4098222523992752 2.2276976242034863
Ni 4.814571590713199 4.827977132948568 6.878543376296634 -2.0558265769603756 2.387945485385371 -1.5204496223405557
P 1.3871478877883041 5.872233088268861 12.438465867974463 0.667487948356173 0.8093822467315351 -2.114527433235694
P 0.7306249908116214 6.8352024599730425 2.998545447803841 0.07475302464217448 1.6727363196938352 1.0490651114122966
P 7.338144271435956 4.168123495498621 2.3811821491516687 0.20784772244803557 0.19444456166825225 0.45352819947312856
Ni 5.19385392736018 2.2597560138156063 10.493861214525435 -0.052636395248793225 0.911508778290656 0.3606851500984627
Ni 7.731272578810639 7.654610494364018 4.330983858810221 0.48829054265497845 0.05366560784425596 0.6511429313392464
Ni 6.24436763750903 0.7014566963475443 1.4291574254819497 -1.6638850399507925 -0.4671460473668793 0.7454610225975419
Ni 4.987173681739576 7.008511071705871 9.110900150092366 -0.9228779393595461 0.49131698818612807 1.3475568187011502
Ni 8.308417415637985 8.834674410413747 2.430010988001596 1.12217648668599 0.001985405861144968 -0.19939007859898566
Ni 6.311808250397441 4.309877240874545 11.759085649805083 0.04143049923064478 0.4033297242418667 0.5859068450485715
Ni 1.105961822214791 1.9323616589215444 12.48246100412104 0.5700647358099924 -0.053371473642604854 -0.03935947563422899
Ni 4.1727112922937515 4.083570400564377 4.17762023486454 -1.393732031705632 0.18383516158352212 0.21519182151793262
Ni 3.6723019446617493 1.486299352124652 3.2953217644465647 -0.1633270143278413 -0.8199325114435557 0.18714699956557446
Ni -0.03741348286428455 0.3162827110562571 8.817548164977527 -0.22130564772515432 -1.2960895040597935 -1.5977580664147324
Ni 4.532559721716562 8.003420684697748 13.178318753259807 1.4478185291373906 1.3797298038892691 0.3898167773570964
Ni 0.5846697411307169 3.1087736887223505 4.998747775494331 0.6934715169041282 -0.3996900706067503 -0.24011840955628322
Ni 6.6024176505881496 6.256919849540505 7.828646730668554 1.4854371108211126 -0.6857867466653609 -1.3954292169023967
Ni 1.4252082500007017 7.308103378021445 6.272500925016127 0.9206233389974144 -0.18957926315615092 0.2716984983554095
Ni 7.469346084183082 6.514102562281899 2.3934701040877453 2.406591125511017 -2.6632149889214904 -1.9713331851019857
Ni 8.296287280911661 0.8373839397936537 5.022303359359245 0.3997389215668148 -0.10411553696469164 -0.3583176783075506
Ni 8.866614651701443 2.9885458859091756 0.6028209003709689 -0.19279442765933893 -2.838192700114383 0.0044840039132826
Ni 2.260673573174632 5.898190842535707 4.377369237087061 -0.6170210499548728 -0.5199930159645819 0.27342807945200653
Ni 1.0025161800782012 4.900693712151378 9.515783310415532 0.9955956787392467 0.9617229372512016 0.2067354632204633
Ni 8.478129194683431 4.161241800305927 8.183424727073387 0.7963328697467447 0.8426345810267617 0.1910306508906968
Ni 6.372569031152142 3.1297857980440456 0.6536858034385743 -0.5557586035999654 -0.05476552577665408 -0.23870507414852435
Ni 2.7864259103029316 3.9399264829088585 11.053706387197703 -0.608651594944255 0.5907736862225695 0.8970949168581711
Ni 6.543473637364321 8.545835899785958 8.123785203855416 -0.4331108121590412 -0.15842186371674008 1.070702487176414
Ni 3.5106371611949614 8.456474793810417 5.005140411548664 0.8759478504669108 0.289632714236327 -1.2579705857008852
Ni 7.0273393897530845 1.184459025379464 9.723952754875834 -0.12410329294052819 -0.2515060825679346 -0.3559098401970064
P 7.850114866991686 3.285394689741262 9.907667407299375 -1.201497590314821 -0.401462846236457 1.9895617922948703
Ni 0.6830715594707405 5.141186020152088 6.407506938865773 -1.7794173033928582 -2.143344357467386 -0.6508755366104726
P 3.080274295031003 1.821722351410191 11.481110124428804 0.5740350333116502 -0.9932552035315281 2.576843920424414
Ni 2.147988108292651 0.7254508735860737 7.673684718319451 -0.2179606425123214 -0.22025586630440133 0.16628712539742976
P 3.9679670969206926 9.023416370565393 1.761938771372853 0.6028249609601489 0.7539418063750435 0.16429889132280737
P 2.5704783151561656 5.532525086776671 6.985199558630456 2.725122525059565 1.0118262816654962 1.3125183390397783
P 0.9871654120016965 0.058603598701630656 5.8965851136574114 -1.2069843244610052 3.0295221131924213 2.6956042038854737
Ni 8.803000261340172 5.303933523662527 4.148411567788666 0.37545305243625665 -0.4496283501980902 0.09948549439184802
