# total energy = -381173.94251368503 ev
CRYSTAL
PRIMVEC
9.18299382242877 0.00000000000000 0.00000000000000

0.00000000000000 9.18299382242877 0.00000000000000

0.00000000000000 0.00000000000000 13.44023969035970

PRIMCOORD
 96 1
Ni 6.145709286711923 3.985602884156284 5.920533100539865 -0.8450537319912155 -1.002238380866745 -1.011428274896129
Ni 5.195802062291632 7.2872104896931935 8.349050141456162 -0.28275475616957113 -0.04856916715795506 -0.06320285791072985
Ni 8.565951532091347 7.598908841605355 11.617688963354764 0.11978512518114853 -0.5874158254939302 0.35296772684954697
Ni 5.454110489388154 0.7402741732229412 1.283023072315858 -0.3631300120945295 -1.095672012637558 -0.29238353750858675
Ni 3.833863097838145 6.154782084393012 2.158556313235226 2.214469555548986 0.6474230592854978 -1.3795513693298755
Ni 7.207134785463335 7.774625424224429 4.739525740773358 1.688809056885982 -0.45592832427418895 0.6513787014991362
Ni 9.023090136709069 9.05746208177012 6.306079250419422 -0.3655496772796156 -0.5870985513638276 -1.0991838824455586
Ni 2.8629543670447264 6.005824745136989 7.927026386082081 -1.4856322575510543 0.7771051318653842 0.4226479649545044
Ni 7.0367443391347795 4.688515129600602 2.177036169564603 0.10316448590533199 -0.6875898613123707 -0.10286829482115187
Ni 0.9139916181343501 4.226160584615613 3.419882726562107 -1.335955744127112 1.267773687834236 -1.0796162447262763
Ni 5.623307146548146 -0.11442101860945511 4.090281664850893 -0.6532031563023847 2.2511921077810007 -1.0686877707392304
Ni 8.203801813316932 0.932615647463315 12.901567890674547 1.7179779651404543 -0.8838455080474327 0.2980667039362931
Ni 2.891173706390868 3.085972549719763 4.415508402940971 0.7272473278029926 0.4116706400073942 -0.729499357061963
Ni 3.369387281330554 1.1487374019414915 10.94149739270036 -1.4455749845188521 -0.03862799678484315 -1.4217452290891064
Ni 7.772568433657057 7.594923422381071 7.574999999457092 1.4526876843042338 0.4798843208691541 0.6238437293036612
Ni 6.5414044811229966 3.2207605298442874 8.189930901477574 0.9818207364423412 -0.05005397923359767 0.06469178375143052
Ni 0.6083632249946574 2.8175720126520707 7.517582413646586 -0.7084762178430767 0.9249219663727682 0.8760954317883686
Ni 6.852634500361337 5.703924647400659 11.236335768354952 -0.5769259817062 2.1471375059612314 -0.4217305953465576
Ni 7.0528329439295865 2.4766074601228723 0.5284822002292119 0.47641358871173434 1.6660951602282337 0.23876858039660814
Ni 8.471706468729991 5.676136908753922 5.07620367188805 -1.7725581143791795 0.14118210279968588 -0.03652534861954355
Ni 6.762613614057978 5.469170598899273 8.8290681746391 0.5660023928151606 0.5392400371196521 0.2390699136871109
Ni 5.460758976757696 4.620239572152322 12.743067584464892 -0.31826837569514865 -0.4067050684720027 0.4709232550211244
Ni 4.976108123301367 3.1790881048677853 1.1859450554275623 -0.9596948510775795 -0.22418116950073647 -0.8816420726382107
Ni 3.6743544989307337 5.7460745880445865 5.585508108273955 0.8263268450056737 -0.25161741133481824 2.126628330264286
P 7.280644649266089 1.0677158493703867 8.457122956586936 0.14312508545866964 -0.043069063275332276 -0.7467116071751914
Ni 1.348458329842314 1.9950420925176011 5.606676745130684 -0.81187107459166 -1.6511614217365371 -0.38546929902167804
P 7.420400628930562 2.351103486532337 11.442360821365154 -1.449430867929833 -0.8817405458892879 0.0208156511937706
Ni 3.8070028415454464 8.384091526750968 11.835985250718448 0.09259005282359538 -1.6038456673697086 -1.072613845266514
P 4.897694540913896 2.1791611142846476 4.630861540854464 1.3891930061846978 0.5451360908891127 -0.20307035566405027
P 5.276566491041815 7.199760841599049 10.955770519659588 0.691973335092047 0.03195315586782884 -0.6585438517890078
P 8.744349548842889 3.0788557296763988 1.947826812601519 -0.5355394483396132 0.16693890004881573 0.4923189470880812
Ni 1.89061308924903 2.6336274677635068 9.58255483905997 0.06524868469616504 0.4242955278602564 -0.48699959175769675
Ni 7.555252890010316 5.930606844523828 13.652595349408172 -0.05063839098215796 0.905232458363641 -0.10452922746334256
Ni 3.345860451716231 0.7060895612314197 13.384905576045456 -0.4195053055604646 2.494804389423155 1.4024665833651524
Ni 7.861221053913369 0.49292105749639953 1.9992221912062973 0.9827759012667591 -0.27589839536937005 -0.554523959861916
Ni 3.248943137216011 5.618513623886679 12.986778724927952 -1.263021260750915 -1.3699796664810406 -0.470184577082887
Ni 3.426487135562349 3.3957241069878052 11.309235881382376 1.2181182295906376 0.7087919493112825 0.4979450350256069
Ni 2.7385799016675256 7.754000420589079 0.44974445816750686 -0.07665718364342282 -1.1471845786945534 0.8706326089015843
Ni 4.980846548001207 4.05431922529757 3.3368886669647893 -0.7305198279066774 -0.5498013575752659 0.6348318528840486
Ni 1.9897251392206874 8.81696866226602 6.950364509795541 0.25524163835096686 -0.06379986806478044 0.24936872450995762
Ni 0.33887358488549013 0.7031877352524479 8.58112275582508 0.35766796053869365 1.3246261780469057 -1.416443871480851
Ni 5.828831726406912 5.938963368703778 4.17168890315338 0.5205139214650584 0.6221426874521543 0.186988105390207
Ni 3.6885422240494417 3.6289078635828482 6.566914837355857 -1.2809212809597876 -2.084103826638514 -1.3703835867876786
Ni 6.52057745162835 7.16086168069106 2.0922422432208347 -1.037003552262072 0.326504904672328 0.5789119017879771
Ni 1.5421092989706668 6.55418720822024 2.2032453516107537 0.9327856853915613 -1.0318814005441583 -0.2794858556103122
Ni 8.277917754697572 4.5650038656222085 7.061071925791401 -0.9516264722471481 -0.3580019468393447 -0.09431629148608273
Ni 5.261166610767336 1.8784180737424647 12.119534054035862 0.5630206844790174 1.2465129786832467 0.4193047595138843
Ni 1.1883987513186423 4.390453523190886 5.641768636890314 0.6556194790533612 -0.03144433455221036 2.1211248839475534
Ni 0.8218090551365288 2.40781765503275 11.556173007498641 -0.4648549373398575 -0.6644974982692815 1.5499409469314533
Ni 3.5961337594089535 1.2682724296892045 2.913910798555217 0.1791711804489495 0.1288724321943974 -0.20508918586629193
Ni 7.83423223571021 1.789499146671626 6.128641774798894 -1.3162405250863718 2.037192763909272 2.9642238062052435
Ni 1.6132958653915221 4.673252994230186 10.97699333617858 -1.1223713763056153 0.17828389274798975 0.41805263227433803
Ni 5.211440700399826 1.521612857245777 7.648074589363 -1.8657680601749609 0.5970011551895202 -0.4830112965339102
Ni 7.992069529781631 4.116469726011753 12.225550796898625 1.7748749354378144 0.17758892356349415 0.6126216353355965
Ni 3.2134325009480227 8.448675520770303 9.065643210772226 -0.3918206951610026 0.4851175442436355 0.15401216468481863
Ni 4.800308893739854 4.912029193930272 7.833441579960876 1.502758632818696 0.5074545171779389 1.0700036613371764
P 2.8995394135644226 3.062629379977527 13.360673492522318 0.14240543368382572 0.004229978920947553 0.0011731943724947536
Ni 3.6810397182746946 0.6995154561100717 5.587537549860514 0.758209580512462 0.6305615076434689 0.6615774964090091
P 0.9123478622791731 6.44151187669497 12.64711723919121 0.83814054981115 0.11943931180595557 -0.5222599576218877
Ni 0.44222358640555115 7.650581546616985 9.169011578279497 -0.6198862873178099 -1.749754743331419 -0.9397785717696266
P 1.358724916691968 -0.11058803707900298 10.305774356560926 1.3224093729012452 1.448729470987434 2.1187856942914154
P 0.7799548068866612 4.98730219250506 8.198478431924496 1.8296075510940037 0.11937503422692344 0.02829910405500933
P 3.9528930609376194 3.0607744152694503 8.724220426862171 0.8419627517707178 0.6062193313536786 1.20116360401417
Ni 6.499116795575004 2.19676491302417 2.883858533685649 -0.4499481954313541 0.1246545374583079 0.9859134184544763
Ni 8.167822844375122 0.5918329182074824 10.475282317204107 0.37190364452210145 0.4548302061140038 0.08371486182115259
Ni 2.1764153991969493 6.861881774920909 10.636834132188483 -0.3980191106622306 0.7156215706386063 0.9839910046207828
Ni 6.349213607977734 9.060391456729905 12.033624393969166 -1.080487848697952 -1.3900738661277543 -1.496992933979512
Ni 6.130318589431046 8.964025121845944 6.675713108981373 0.025766824551458848 -0.9326411893938971 -1.1361236928947016
Ni 2.6996899237531395 1.7211317592873039 7.644929414053513 0.033537983856445464 -0.960591908970552 -0.29043746952580946
Ni 0.7612095620421191 4.686283662154747 0.3861072307887809 -0.04214269480632097 -0.7496568058464443 0.5819784565284428
Ni 1.5070853613637087 9.050106503893042 2.100521630254509 0.25208946587523035 0.17270999820463806 -0.917855289333974
Ni 7.84510490013775 3.4317673568848455 4.338146273321197 0.9178825430274837 0.5345446885265116 -0.17176048980717518
Ni 8.436664165135824 3.2351594638158945 9.742090068648833 0.205405174444814 -0.6720886803529781 -0.3136236778342857
Ni 8.317303614266592 1.0069336147032506 4.2004913625933975 -0.6255856516954323 1.1804685375586639 -0.4178654559641965
Ni 7.124175621241714 7.795672845565581 9.736001743889155 -0.36956856863102155 -1.1022146988520825 0.8285163964578248
Ni 4.105275656808062 5.540320433345711 10.083754365290682 -0.044046082476620924 0.4251907859810161 0.4844061199989077
Ni 5.753200591081556 3.834239600575923 10.390098113632154 -0.018368732315174812 -1.604279669583334 -0.1755253561662461
Ni 1.2001988981002212 1.942515369100768 3.119157133707772 -0.7361975950177451 0.09515652799919096 -0.021686483834498137
Ni 8.825417016382016 5.505728096438157 9.87842813809377 0.3743310230166714 1.1454537120463757 0.8179064821524623
Ni 8.618239497674468 6.548493752185548 2.92912518235889 -0.9924496769110973 -0.17582900344959396 -0.12166125915793885
Ni 1.080764883282156 1.9983387872215597 0.73472948168464 0.0879893208267904 0.04590627561381126 -0.5682022286799568
Ni 0.8437389621630567 6.8039003533030975 6.806338438105049 -0.7803881734920302 -0.9725825056735249 0.447314614463249
Ni 3.842513477813435 7.604023769042974 4.311172147907803 -0.2576114241347241 0.17627200452428352 -0.2502215594285562
Ni 1.3106519451732401 6.527253487978706 4.57513821736396 1.1568640107658463 1.202596736916271 -0.3455827472393855
Ni 6.545959245950749 6.220991468280314 6.54054495292163 -1.5581648775031423 -0.666844144124587 -1.2883049750183684
Ni 4.990314214407284 7.052171768390073 0.021893175052110494 1.9124814050710999 0.34074058865573575 0.13370302081382135
Ni 5.533065868398282 0.3788838880196059 9.67566855760927 -0.4060327249953265 -0.03199532195967393 0.7319431906167652
Ni 2.8292435975231887 3.851393432628833 1.9792363239258086 -0.548551544328565 -0.47794133821017054 -0.6393963323262796
P 6.977312004527482 8.4875930476655 0.45925712124224416 0.6704156635259293 -1.5376168781484614 0.3943881987778627
Ni 1.9002276835527756 9.076131107767745 4.338778063281175 -0.24957466987317659 -0.13670375531335813 1.04860462683611
P 9.140402880004531 8.419262392255597 3.8843769090569067 0.8210234305148892 -2.33499284444774 -0.8375831346457834
Ni 1.0793323362798788 -0.2632360214646108 12.729317888141113 1.3408729789230716 1.4414712467631239 -2.140525914181984
P 2.9129282182395526 5.246831957750958 3.755283303266435 -0.8960387076795148 -0.5268668602662797 -0.17284703800313456
P 4.00469432785971 8.385964857446254 2.279182280623135 0.06993349176634407 0.399403392604267 -0.8094694071287027
P 3.92359931133977 7.962748231202968 6.679247643219685 0.6610913008012098 -0.8218950344865652 -0.1663488318733006
Ni 9.236714116926864 7.71743374005659 0.8653860329865708 -1.8800752208262523 -0.6251305664358846 -0.2785319763374751
