# total energy = -340874.49532247277 ev
CRYSTAL
PRIMVEC
9.18696408169201 0.00000000000000 0.00000000000000
0.00000000000000 9.18696408169201 0.00000000000000
0.00000000000000 0.00000000000000 13.44605056611548
PRIMCOORD
 96 1
Ni 0.4695218450035714 0.010779983582166001 2.1541244131657336 2.0307853177210315 -0.2503675980881172 1.4235632561344516
Ni 4.248869803078551 8.183214705936347 5.689884613707613 -0.05612949600371624 0.5280426257419358 0.9878522873484019
Ni 0.62551190059705 2.4856709203244796 0.9777548003021598 1.0665383284963954 -0.2538329309288983 0.14905687756207234
Ni 9.755545224191456 3.492415185594702 3.403907974217007 -0.6453548639025595 0.897610680152325 -1.99913118115086
Ni 0.08338547893602327 6.948477554558561 1.1794132540437097 4.9366479103785625 -0.8082674164008016 0.31442560491029076
Ni 5.242008174633767 0.23377240517313302 7.513531882326638 0.16026817289685946 -0.46591706005578476 0.4907364330923097
Ni 8.31795072026739 5.902697879163382 10.731346875942766 -0.808266645069853 1.591625728264749 -1.2971626825193143
Ni 2.9208298451041426 0.6199482751859712 4.119735080711072 1.9106284110227612 -2.81539344283168 1.800757459631531
Ni 7.4782070869697375 2.5688772534620945 1.376821818229175 -0.4214696283756871 0.5233256798822407 0.8752094296389894
Ni 8.15005895278479 7.324490804971441 3.3144517494559493 0.7255336875459957 1.8514017641509597 1.1691685391648123
Ni 0.83043080786963 1.8301442895746305 9.346726243956219 1.6190370303981665 -1.1139042193748685 -0.06510650269134594
Ni 8.66256292765671 5.11390514832584 6.712161279048031 1.7857512160306857 -0.11597243630327769 -0.5902648649069512
Ni 3.360012660124976 8.804666887132544 12.89706156291731 -1.1687293947448645 0.8379112074091634 -1.0127729618494814
Ni 0.8927726270192979 4.385966867162975 9.147576750088787 1.0583478222658032 0.7432305906051264 0.5367784629530369
Ni 5.324617355110022 5.5155224674650665 3.8526562561764384 1.1102072301392558 -0.10430888392242035 -0.06377724235696113
Ni 3.6174681398476793 1.9979350004530008 6.50277934465408 -0.03643381734700177 0.014735249327645592 0.4227541515150654
Ni 7.298629501252506 7.44926815030379 0.9572311226793893 -3.9582233441019636 1.9441743652990064 -1.4067382141573128
Ni 7.4377936322416405 1.0365284026260961 8.257314001640008 1.4057023166936307 -0.8199430529665169 0.8600221803755898
Ni 6.632023391893408 7.990086348288235 9.832047829682994 0.022595368802012697 0.542483226647298 0.5327266614811664
Ni 5.833464918301611 3.1418406385557938 4.1174365023130335 -0.6277615763008286 -1.004444130268812 0.03891338923574588
Ni 1.7603141760514978 8.702599716859948 10.73587788659789 -0.39006900257721855 -0.6559753197308831 -0.2627644290905733
Ni 8.30518084027829 3.122823623032457 9.956746167124765 -2.1164182225005033 0.7522546484806076 0.5642807821383636
Ni 1.7527900525183513 6.301963335513251 10.706202155417465 -1.4391374564236248 -0.5974521266840098 1.1342447307044337
Ni 8.918438249567814 7.3979038344627375 6.493595136722352 -1.6887987724733367 0.38128431440605304 -0.14690537843670828
P 2.4161531635780586 1.7903463614359367 12.861738604953217 0.20600038482665164 -0.15732014601212904 2.149838192721846
P 4.487620624054629 8.94168126854078 10.003847731660102 0.23821836432009294 0.27084617765744323 -0.20267517710816066
P 1.5031710531055062 7.517490545123258 3.2455403323349103 -0.2191765171972935 -0.5997530069030444 -0.2648354526869891
P 6.814595927881465 7.8953963101244495 7.456924566118837 0.4008475812499613 1.5516653858217277 1.388895786659253
P 9.173982840774162 4.56420315613315 1.5599703768613438 0.4250002672367649 0.059806173524355064 0.17689446859963084
P 4.898875068451818 7.077499277268583 2.2358498077031737 -0.7956808379850425 -1.1202761843394835 -2.136705769104946
P 2.821178846369053 2.7102830036723375 8.897560873830237 0.0757153885554438 1.0752942203121545 0.27314063011857476
P 6.994302131094989 6.9012106246708464 12.165515560983424 -2.329944740500871 0.47902968617834263 -0.09840717372600472
Ni 7.37966771088118 9.021607855522921 4.972793380964267 -0.38592541272249015 1.5116716190376096 1.317865976504937
Ni 4.06810709900262 6.835340092640737 10.68201287915034 -0.10157760103418637 2.6976700852755666 -0.7873316946893988
Ni 5.009293189019444 6.6109484964293825 8.156992354531388 0.27682244984553617 0.05497995578030531 -0.6598201473982701
Ni 3.6866092310692418 3.968079434742671 5.10238653283639 0.6812160965755428 0.20425974798646113 0.26880780707117574
Ni 5.836386372860269 5.393464463482914 10.319964732745685 1.1492286057077756 -0.6896174332653607 -0.4151750536162269
Ni 8.1350566405386 5.406693691673062 13.261611319624867 0.7784966128962721 0.24375703475013502 -0.286325504239965
Ni 4.513454366881501 6.948606172054855 13.162634644048914 2.1913450537163808 -1.0869870832690505 -0.2001174436833134
Ni 4.871534663525513 3.2797369685100395 11.43922725855872 -0.9465032920879699 -0.4830218380568714 -3.554875879248284
Ni 6.491766012185783 4.646885832321571 6.301786945804048 -1.8036347811793259 0.2572537836849892 -0.15107853597779142
Ni 5.541852306349069 9.003059375164652 12.082352406576709 0.7026614109335125 -0.466941387555241 -0.6075444779230053
Ni 0.6535128482364599 5.940116383620653 4.627377314223114 -0.6758509756088877 0.4398872116509263 -0.17642498516238003
Ni 8.97026191360991 3.0332323499002913 7.5646812232095995 -0.9822675941717729 -1.0559813789161554 -0.8588662123942757
Ni 2.039818369424447 7.453861632314257 5.956398439954959 -0.11163987036619481 0.7263713529559427 1.0391162277297006
Ni 2.9821068951237844 0.5042972599120195 8.458897122276586 -0.5012771847226335 -0.2615778649816398 0.3194677953198885
Ni 7.824353517350554 3.2638710816458834 12.547679483808322 0.5223345196135649 -1.5208831103335485 -0.691681514883241
Ni 8.501763496398272 1.4305021676999046 3.5975719318675385 -0.8895533570654874 0.9686186359297706 -0.08258280509923842
Ni 2.7042104204544986 7.129892533079979 8.635766391000445 -0.7236758084016505 0.5371183627909588 -0.18226447466229256
Ni 2.154462493441704 3.510384887219652 11.481919080364008 0.4516500086138093 0.5651189617689428 -0.165785760280979
Ni 2.0028500262042015 5.2823021988295915 2.6876233569146994 -0.2536349559854793 0.04739185902040226 -1.256384729271004
Ni 8.752907531838591 8.16498776931881 12.03941896761767 -0.37043425906542654 -0.6438124591161042 -0.5583124803700706
Ni 6.541871713955966 1.6303645699753617 10.660755163102298 0.591496166210891 -0.9307210895530488 -0.19800168289189127
Ni 3.163843417385935 1.360525062752437 10.997901124831802 1.4750547391455242 0.07278510228252626 -2.298128881541855
Ni 0.436510327187143 8.58039472145346 8.38207940391913 0.6149783084932312 1.3774713468723956 0.5501895941526203
Ni 1.0735518676304672 9.362802512296453 13.52766763506397 0.36840874399496554 -1.2907688631778287 -0.03765303446608354
P 2.0351605786658324 1.9935711925430564 3.0528051767468956 -1.7470987937658105 0.7067342954513054 -3.002621175036519
P 1.9984310965101313 0.47008776198726104 6.379842148215125 0.5876544238672976 -1.324864776420273 0.5102680753673341
P 3.9888235995019437 5.932509577411319 6.09599527694948 0.9215317097442968 0.4076139534395173 1.3447664004402067
P 8.688056752814807 1.226266770550482 6.2842132023284005 -1.4905885731150652 -0.15504240572154587 -0.1544929609759791
P 8.762755957269036 0.2502473877518771 10.284198044419378 -0.9110295246613923 0.3659379138569698 -1.3688779487764295
P 1.4584489122515911 7.346493583801581 12.745121121064262 1.178511670942609 -0.5738576271935214 0.17896883463015628
P 5.026583055306846 1.0507865707865884 5.125607503095708 1.1604913231057885 0.041603791583715445 -0.5358376963063224
P 1.599312631584599 4.147785637956195 5.181274074187764 -0.23776122217801632 0.7274751275430826 0.7771161876089778
Ni 5.233069258641397 1.9647976212294855 1.9998045476312611 0.736081638265171 -2.148582465937874 0.7136873297303709
Ni 7.769755390174133 0.7593714785604961 13.171495470847107 -0.8082093094693564 0.048388675716032795 1.01354943500419
Ni 5.034153113660096 2.2804800789168795 8.83999811336426 0.2896604821504689 0.10320433800433193 0.4327652558941643
Ni 4.187767305375307 2.845459992276386 0.17083435205850642 -1.5170148856273937 0.3777727017083687 0.6150510707126956
Ni 3.3228054558401863 6.558279631697357 4.183725041206096 -0.6596365706325543 0.6821378370588639 -1.4875101913000577
Ni 5.94410352600574 4.735677839583915 12.94314153705352 -0.5537289747644464 0.7269308250038384 1.0044590426671476
Ni 6.359381860644098 7.060044045628804 5.630439444313746 -0.4362105341302875 -1.5692355334950072 -0.11349903506212065
Ni 2.0652111379783133 5.208448195065289 7.051969622950804 -0.38025998690659674 -0.08520558743406616 0.18478004199529466
Ni 2.8339211654660907 7.39950236620238 1.4107593820189137 -0.9166828662924277 -0.018585990532303472 0.5372741716425328
Ni 0.5493979036835972 1.4294824146935807 11.816496366953261 -1.284003519429537 2.365784633017616 -1.3546278666153186
Ni 4.400803814056786 4.256935957488932 7.579350048661826 0.12286093589299485 -0.22620539901961687 -0.530232691414719
Ni 1.215297535509485 2.086892373067722 5.100611611387545 -0.2739435856358443 -0.9650391461086284 1.7773187689926166
Ni 7.9594202623863515 3.353701215842593 4.89951264375487 1.1317954978329927 0.36579393207993777 1.0146002448662075
Ni 3.0587353620224094 0.7044334337153004 1.50915819755795 -0.4116662691320201 1.221090424845084 0.4699315805318165
Ni 5.330745060111986 8.9793845688827 1.0583106943197347 0.23576193235980042 -0.3302620577219151 0.4824541384788594
Ni 7.529553028882747 6.120640226632042 8.490966057584467 -0.891613839138942 -0.5455860339423378 -0.01354148612986055
Ni 7.258629459905352 5.54951423434253 2.325279390268571 -0.6673743055964442 -2.625044648499357 -0.758387757961539
Ni 1.4713565967010058 4.997451192396459 13.349615085374214 0.37105466625824485 0.6465627681677316 0.2598292577216493
Ni 5.51438328392647 8.309829444072882 3.7420488841499804 0.0238580375645202 1.6231924473274368 -0.49916245237247586
Ni 3.6070133747918542 3.3488229379474763 2.789369902142965 -0.8144128671769071 1.0035349881909812 0.2620514621839487
Ni 6.386630395930194 2.2311093342683708 6.490421959349519 -0.14378688741238463 -0.011856642228269904 -0.3279382946847449
Ni 0.47529309580152324 8.803812499478598 4.692173890159176 0.9625996834292003 0.44846158358349864 0.148434413486725
Ni 3.9398478943063355 5.142008071265882 1.0860599191449714 -0.07749921992874395 -0.012201170051882213 0.4910380234931285
Ni 3.345708557144379 4.837000865770815 9.61396675905762 0.41260497889620557 -0.9589543733671292 -0.16775676796442077
P 6.749019378700026 3.8534536846534557 8.366939287212627 -0.29123451150580815 -0.5049122103720595 0.25600448465892045
P 7.603875567812117 9.411585291247624 2.0776429376914436 -2.676719451165829 0.13173818377796667 -0.7802333930817209
P 0.4906408378948985 6.456129778748572 8.473109355616973 1.363334393250381 -1.03085655882407 -0.33651858015458813
P 0.17974846324802038 4.424395937662549 11.539024330021743 1.5226281180491132 -1.7115710331728455 0.45395860214232786
P 3.9844138567718947 5.108282726345027 11.842581832594307 -0.9923907986487037 0.17082152293267355 1.391106421157327
P 5.972491244830432 2.14479780729168 12.72389004721188 1.5870417084384925 -2.0116632521796 1.1589106088822299
P 7.605226051523195 5.563340615194037 4.544939929974052 -0.030159554302515802 -0.5244399959923419 0.5139033581270762
P 5.57711187426142 4.018938467562571 2.0714582735125497 1.0716064870479223 0.7335503872028851 -0.6300940810887471
