# total energy = -381166.0126475744 ev
CRYSTAL
PRIMVEC
9.29323088305689 0.00000000000000 0.00000000000000

0.00000000000000 9.29323088305689 0.00000000000000

0.00000000000000 0.00000000000000 13.60158277153518

PRIMCOORD
 96 1
Ni 5.673786871701603 6.57291623922387 10.21024586143964 1.6535219515489137 0.3399129505481178 -1.0280494283925778
Ni 2.119349150412455 0.040772191234513755 10.587185805597949 -0.009408694908409601 -0.02324328679865674 0.614038313177465
Ni 7.46277096246559 2.3874402708585727 1.3635585738552787 -0.6215379639886199 -1.1821970902139962 -1.69854325345461
Ni 9.140533667708945 1.1769690870167753 2.0684064474538624 1.1512782891479527 -0.12325200068382644 0.25409106968629147
Ni 3.438337389628952 1.4267432496703492 6.213719860521323 -0.9113791946913272 0.46959168069389445 -0.6546524871544016
Ni 7.095465310617546 3.601879664227218 11.44604481634577 0.00031341747536075057 -0.3829223642301083 0.6228985917815724
Ni 8.469943430594713 2.2802800271722106 4.265605921115387 0.40539920517638567 0.438309068530529 -0.7633355888851177
Ni 3.9495208398251234 9.25209890276703 11.947847679430936 -0.4247195027715524 -0.6675830791731406 0.7449725129968976
Ni 0.5948355373974917 8.301401397857232 7.618695575824613 0.4391084245033728 -0.1630768459902482 2.044154797049402
Ni 5.3041672053987945 1.7722005160438774 9.207809223696659 -1.485491618208132 0.898036197725518 0.2558854425825529
Ni 5.217963197035712 6.580796898893112 7.279934082200718 -0.01698085082871269 -0.5313650052469494 0.37823935693214217
Ni 7.9040228513279756 3.4206988376805767 7.923261697610129 0.06925883429682266 0.8213059947523146 -0.012781468035384439
Ni 1.3076783774034448 6.4179330301390145 4.767395773677514 1.4138380584268875 0.317583176702666 0.7187413472145106
Ni 6.534247106106278 6.952265918113586 2.465409547461141 0.855977577992571 0.5860461988399133 -1.0061086624554285
Ni 5.924862086659061 1.1000676026264664 5.033510223944802 0.051544704846511226 0.43180520597374017 0.04457161596278776
Ni 8.017502491918918 9.242889311101678 4.061623223620098 -1.085582232501724 0.620964350873337 1.7272915292318962
Ni 8.349410227870566 7.02498544866998 4.961802726216215 -0.5859747221720295 -1.1917088863591734 -1.0726796655074429
Ni 8.879654094318644 4.013634838714397 0.30594988384300476 0.23002862942044902 -1.0062104781406156 -0.5165747343116524
Ni 5.357612575396216 8.824861205863627 10.070774913109384 -0.6040506058371339 1.047974449451279 -2.0042322498228518
Ni 2.436118213485333 2.5840106875140183 10.392574401982923 -0.04728130158446696 -0.6433848846603822 -1.0367976068988531
Ni 3.686587462440833 5.420862303826481 9.018365785697275 -1.5529362821143513 1.1233373397633104 -1.1190538818966083
Ni 8.528007536270922 8.9552173534821 9.534845448093332 -1.7161630234189023 0.2758618857044798 -0.5994251912499806
Ni 5.271613018109459 7.132796218508286 12.648914137440586 0.418338281835557 -0.4489254105937946 0.3545420133152023
Ni 3.9162975399223616 6.610265733576094 4.182731677327175 -0.7774812842578803 -0.6499928768952031 1.3058321852688544
P 6.287558296059058 1.8158415276084563 13.096283760100453 0.21527821058415184 -0.40909182353662454 -0.2605854191613835
Ni 0.3095277776786868 3.3748460371993945 11.456504347545925 0.7762900921632565 0.32780099777593225 0.4980036561776843
P 8.564604278933041 8.166454394252197 2.4644709311561956 -2.7561454558036402 -1.3377807131509927 -0.2681372633667124
Ni 4.739185242437004 2.1376846946664827 11.616091423140384 1.2388120104945632 1.1712146230605636 -1.9841429352721438
P 6.670987703244527 7.81912918849952 8.222456332026752 -0.7860181180842979 1.642474178375184 0.5606454993786215
P 3.6654174828104855 0.5954646891187272 4.158888035212346 0.8539983427790131 0.05182186976729785 -0.5877855501285232
P 5.695756069175766 5.577090805830768 0.7250039617549753 0.0713707384335029 1.5528141547141903 0.06600716012874439
Ni 4.255658446929117 2.8909568056925687 4.216531157535943 0.28086242424286467 0.7957309744966876 1.8158189819503439
Ni 2.278012478871155 2.1106506864379138 3.2581778891408595 -2.079901101411076 0.6899976994229148 1.0386115201791402
Ni 0.8790150989042141 8.280268591149854 1.3446905274797327 1.357993440653442 -0.8107490451720746 -1.852118073491694
Ni 3.696401114104418 8.003311728575838 6.5441564780465065 -1.0433991713757709 2.172652362402884 -1.653253271268559
Ni 7.410254915542371 9.099262429983584 0.5822608668804492 1.9915901355788088 -0.3699195242125371 0.5207535482796902
Ni 7.451191596961019 4.563217918336642 2.026118530285323 -0.9947595559911965 1.031820979619868 0.37403406060154293
Ni 2.6349747649033173 3.6296757173766334 1.2809166608356173 0.6221825395511543 -0.17441772492436414 -1.586142593662991
Ni 6.950686068887441 8.477154977650528 11.509209976376281 -1.9184263098006251 -2.3864982114158835 1.1557772054595707
Ni 3.659302536982229 1.7692266822064273 13.490906863714697 -1.5685151103892148 -0.36451583669846255 1.8052895431739293
Ni 5.412070907544519 4.066476148713587 8.148136507136579 1.7843947020027913 0.4744292112918539 -0.917909025390045
Ni 3.3504977726552725 7.049194314752973 0.6211316631051433 -0.09388203216214154 0.32610252702758674 -0.06981522102092493
Ni 5.296565342651812 0.6194226379716838 7.072618832161337 0.49199241698659785 -1.8005314596636541 1.6761294045357842
Ni 1.1198993570299611 5.671584376015741 0.8954167218408251 3.400295757875137 -0.06047080369154747 0.7530259794289935
Ni 9.289188186658478 5.505802432808647 6.696888866645641 2.412536544461174 0.15482720438694625 1.971337813087676
Ni 3.6178547278727695 7.295306944494186 10.748174300388303 -0.7163324806627018 -1.205204349742447 0.653883470198861
Ni 9.219563301939179 0.8282210876374938 5.884167029239707 1.5737254509455607 0.45414860666594686 0.511691438077422
Ni 6.137305341421897 0.3314560849375838 2.967892675036623 -0.21056692115141157 0.2405156449947019 -2.1991002721817674
Ni 8.402837011406504 1.7671728782124383 12.65530695086803 0.08832330712744144 0.3051256676656035 1.1357578249148503
Ni 2.237261662067348 5.080488434668844 10.886692692567504 -0.8016190578463485 0.49611338113350684 0.26705585737707555
Ni 2.3294412177975556 7.085614486030993 2.691739676921793 -0.31656347718889993 -0.4885574231631199 0.1392056957996054
Ni 2.0760519883853314 3.40740022448873 5.554749879126925 0.27551838632213194 0.6979794320768108 0.1197344744488712
Ni 3.81001085992575 5.147566974164826 12.988912560076246 0.15472975957713353 -0.4994316468734624 -0.2758341177903379
Ni 9.183198890045611 5.958196905330728 2.8748302623859217 -0.004994625001113979 0.9453804913374363 -0.26594359814950325
Ni 4.5205898689229445 2.050281859537679 2.202450149030773 -0.28404802105969795 -1.3257111835809685 -0.9995955439272591
Ni 7.866617597591301 8.566695255849998 6.444198488185218 -3.062337102839913 -0.7991693107542753 1.7720737185435933
P 1.8713499948306087 0.04720961216951881 13.441124885275784 1.310282507730724 0.44883619331409796 -1.6337247143173284
Ni 2.7401462572108852 5.95944219825016 7.0017951206763165 -0.7404250028355313 -0.647325357365369 -1.7339702268036523
P 0.46011900591485816 3.695797054106186 2.677621400778499 -0.4531196511808003 -0.21047230455507623 -0.401225019194038
Ni 2.8336454517064618 8.014389259620339 8.781643965620885 0.18662995071983987 -0.6301969252151985 -0.9944271123524422
P 2.7856087420009024 3.379966607338254 12.247518127261548 0.12348288574770992 0.11744773529722354 1.4690656114416247
P 1.3126781355426576 8.40826425815985 5.773069243687947 1.52165804082636 -0.750747724917778 -2.016438562081056
P 6.9252690828079855 4.767139280509034 9.67175889932338 0.4350864478281733 -0.3552110143577689 -0.5974279583142936
Ni 1.8097730479339098 3.47703440243877 8.19224682685363 -1.8568383617854987 1.7179285999597576 -0.47836274201830514
Ni 8.88713514506598 8.898695924109065 12.063148793247317 3.623583211917011 -0.2885564504530127 0.9044284744051069
Ni 2.7476273079582207 0.4375364552117222 1.9143544200893585 -0.08319395632067607 -1.2287499982728711 -1.2823747255768625
Ni 8.348759701718624 6.578557230284283 8.610400390706697 -1.1422658012366973 0.6983306447686425 -0.33197724064080897
Ni 6.4187973005980234 2.820467650514262 3.244371865550498 -0.3381622864055982 0.8256586152940554 1.7480727276433055
Ni 9.25584407475607 4.762957326675119 9.537293285070783 1.3041475984775799 -1.2304374132776228 -0.14791685042035815
Ni 5.979236779730687 5.5105698601793085 4.147516838076396 1.5151868312797196 -1.1626258529502882 1.3041383425061992
Ni 0.6685132000433898 7.467900825835191 10.32270324664896 1.2076155302871008 -1.784181557550721 0.05708928881382426
Ni 1.9198885389962381 7.1103530662662795 12.402032028193933 -0.6714474472245533 0.6384110855948747 0.30798499149126957
Ni 4.878611583259699 4.491994597929715 10.501632323386808 0.2517842759299857 -2.3260045249062005 2.344642194612046
Ni 6.763418176204769 3.2351408994544384 5.728564890987432 -0.24880822402079725 -0.21913383688481614 -0.2127970960335109
Ni 1.0391318886509675 9.180011311901094 3.715136267280353 1.3951224842952554 -0.5771404117098512 0.4512838835236421
Ni 4.575773073069126 4.600632465304059 5.8866836361246495 -0.2453241221269388 0.015505808945082973 0.19168473953492793
Ni 5.734555307523745 7.878838196017071 4.637595361257415 0.7730636148061589 0.7192375701246388 0.8417236391767181
Ni 0.19928032273982155 1.6862660113723142 8.511326187088976 0.5461912716265045 -0.20037378266849365 -0.8939661414212023
Ni 5.423455115203508 3.4592936249522324 0.6722713825554671 -0.4350931326963926 0.5928215698905338 -0.669965206252072
Ni 2.671664439872857 1.0894733195805508 8.508769619311844 0.11048287394361618 -0.45825568685578494 -0.3497199093362106
Ni 7.978257178495321 6.081694648661581 11.090988571938798 -0.04935361073246339 0.8627784029644884 1.2591602351336122
Ni 4.450017074667959 5.051828111060419 2.499073346501075 0.9034576258514053 -0.04357994147347978 -1.4883578840123335
Ni 1.184645295609693 2.0918690671082687 0.16982078128758246 0.16341006095995084 -0.11704458632153392 -0.08239177213435489
Ni 8.443717933440698 6.585963935185682 0.549607242022174 -2.6657938053922607 1.0013408087531401 -0.40712055874286657
Ni 7.225589127467467 1.213212686910697 8.184861496382938 0.4044183293203551 -0.6310132504689068 -0.3896802517792321
Ni 7.120891589927743 1.242923145592971 10.77297049865419 -0.46965801515545574 1.2571576028812865 -0.7483625125150531
Ni 2.4708841896912714 4.423782284283205 3.326905977093552 -1.4605984545108783 1.8547179730083863 1.9711076993547405
Ni 8.92438241388004 4.631179314753116 4.722809640546471 -0.5925901706060182 -1.5951491680369754 -0.8669443614167199
P 0.17852946781593995 2.8389890593831297 6.335209336688823 -0.5803108390180328 1.971468168017953 0.6994992111554469
Ni 4.557102972508385 8.239155338347107 2.0703375808020565 -0.14991074092193538 -0.9393219438481822 2.0978229759968197
P 1.4527921754402628 6.246835358947477 8.650606624189022 -0.4702640241705707 -0.6365575773259037 0.3996191081594988
Ni 5.257682465227154 9.258111623057125 0.2311728320003244 -0.574732573599307 0.7120490227959995 -0.14054266944347407
P 0.36311254613723903 1.2169020995152835 10.589022147992573 -0.6994609017183437 1.1666750833189972 1.0861571311685874
P 0.29220612489861475 5.603613686368526 12.557402765000731 -0.006595136719014448 -0.16407494823745936 -1.806148034519483
P 3.714355635898022 2.9048223059596796 7.988631211972651 1.2612785670281954 -0.9733278684799819 -0.5782328734430816
Ni 7.070159843306994 5.347557299733338 6.56007020636916 -0.9049411523754675 0.7133505152162424 -0.3489035840825023
