# total energy = -340862.86854400916 ev
CRYSTAL
PRIMVEC
9.34134538212632 0.00000000000000 0.00000000000000
0.00000000000000 9.34134538212632 0.00000000000000
0.00000000000000 0.00000000000000 13.67200320440384
PRIMCOORD
 96 1
Ni 2.2772891617525515 8.362811195849993 8.394281253429297 0.06089143616873383 0.25711211590080235 0.6039901849128436
Ni 7.123756496264364 7.520530130293553 6.204573741130952 0.32595314593391606 1.888271897704432 -2.883904600329201
Ni 5.035190529998374 2.352561720740361 5.928303459167133 0.5587009740577411 0.7945778347288509 -1.287116611137222
Ni 3.2019608912792665 7.167212433768868 13.141692964274354 0.24045265296725038 0.3054660817241578 -0.1830964836452847
Ni 0.7500231387344868 0.0734005534254914 4.445738574958248 0.8840139153044968 1.917978423629929 -1.0170420215384806
Ni 8.72426520397537 2.4293102122573424 6.674330370458708 -0.18877425075635232 -0.9642433896802102 -0.7364163958967704
Ni 6.28081219520431 9.19730157957523 8.544851593036743 0.9157508413964616 -0.18902544753520992 0.00857257216035943
Ni 5.59957591953988 2.0937597541534587 0.7400026778228184 0.40162611128719866 -0.3722916239891395 1.167158707823635
Ni 1.4233033907590642 0.8981376387095308 6.614323437668203 -0.35422731028826093 0.8305673654495825 0.6172683900789885
Ni 4.062635065379638 4.239793675605972 10.439189509136163 1.1782172796306418 0.5044386131697507 -0.33102541825050086
Ni 5.264408456585972 8.284568089113595 0.8259804183196906 -0.019639371497482305 0.35888074989987223 1.1463705674336904
Ni 7.978069214337099 4.5801362437571065 11.793770492106503 -1.1287911637890302 -1.0120651371491796 -1.3063451203495309
Ni 6.3427639960490785 9.37179790644198 2.9094702976467413 2.357620866259901 -3.9531071059213216 -4.4265271592223705
Ni 4.409040166514526 6.085624788893776 1.2154696714232525 -0.8652883138705356 -0.9067789769151544 -2.1121352788544336
Ni 7.1520047239113165 9.097862960758498 13.003920267483151 0.40227402928384265 0.2761426501696922 1.5169701484323874
Ni 8.81279313169037 5.35021805287066 2.5208852867509255 1.0882250694412097 -0.44937509653670343 -0.21436469763094693
Ni 6.272582470152403 2.548926136536183 9.603159671734929 -0.5260952722075778 1.2284550927402713 -0.9286058429822588
Ni 8.681556574080574 3.3404276500129844 9.133800049574829 0.390597878497495 -0.6869470855220492 0.5664384519113148
Ni 2.172880947331263 4.548992199122537 12.63398338385308 -0.337384013478677 0.43700629055870543 -0.3150221008437091
Ni 1.3035006395777968 9.160179074062999 1.9497778652600983 -0.4806749350912496 1.9758634688721717 0.8418367677158147
Ni 8.007046066903515 5.569011038302835 4.93968088093968 -0.9838758191991571 0.632805309372323 -0.9676830114893785
Ni 5.473916144967529 5.446153667266888 5.270502750143138 0.17648926274141216 -0.19215036631743682 -0.6952561196083769
Ni 2.0077072828956157 6.789186879398223 6.620749348977177 0.9579570424508663 -1.0656453843684808 1.1761285154224133
Ni 5.104774209807284 4.518259173673308 2.954738456104786 0.4792330604384005 -0.5761168555413433 -0.34325049956178305
P 2.9780675314108365 7.945701453491633 1.5779680419331963 1.3789885548478702 0.42346377598758045 -2.3562265570155354
P 6.954958389921635 4.71524945959226 9.491951892199811 0.3014291926506228 0.009404324033035419 0.1513904107912554
P -0.028814313161305078 6.76246129100605 8.057321186346602 0.41044370957882864 -0.1635489005306603 -0.255231868158954
P 8.219907298183635 1.0520503116013946 9.41362471335732 -0.5690247245812523 -0.23455737052873799 -0.335996389102531
P 5.14470846020104 7.392796577104263 9.418478476282374 0.666336351250233 0.8067059854509526 0.15492593474833966
P 6.806104055412981 0.6657259062249448 6.607405237471334 0.6879636997120216 0.1624314990967654 -0.014258052580910929
P 6.12568047677411 7.287061891675742 4.208584241555553 0.2690574611881366 0.2177277005659089 -0.6371391608609865
P 1.0293508429565228 4.2180190001281135 1.3052063691969547 -0.030035627130141823 -1.217690912245232 -0.3758284334978043
Ni 8.080534428973149 4.657071562176515 7.211557667328924 0.44946662780924523 1.3455662706336824 0.6911670371406676
Ni 1.8641494910707643 3.28059633451076 10.399020790979861 -1.2420379736310285 -0.8053720971308775 -1.7619942228204042
Ni 3.0283986989246507 2.3590072488740894 12.029147167532606 2.4942359185141947 1.0458422335996245 1.1226552260946214
Ni 9.178544158571567 0.5252899919396473 11.37054030042464 0.8737184469157597 -0.5350985041474526 0.8863327932456607
Ni 3.6141384034135546 5.997834827443363 8.591609696041642 -1.42232475574166 -0.935712629230369 0.7214538610496671
Ni 2.9999729857203934 1.165650409622088 0.8247006540380661 0.6224856726138699 0.19589929183690777 -0.18430644479298583
Ni 2.4685999098377254 3.100028133315135 6.212654004660917 -0.36501797314586165 0.07789131316084005 -1.5503672358355944
Ni 6.156506915674552 6.469348563788444 11.775613719594144 -2.1528116735278733 -1.4770450301026754 -1.913713220595672
Ni 8.546051021750323 7.533878912471957 3.4902572209523073 -0.5228417982672866 0.8966159203392234 -0.9752741935730751
Ni 7.8727362067487965 0.3746421191676941 4.590606957503623 0.46162126089390826 0.9393990769430209 1.3087989812066623
Ni 4.720069593674875 1.5516254486909997 7.925564315813547 0.044424805972278325 -1.7416858502803554 0.46343723105672446
Ni 2.8966296846429382 1.1341981005985147 4.638131050808473 0.24178422729448035 0.9457579292815131 -0.5311138084680918
Ni 0.24506084791340124 0.3503975920397517 0.04847691050722709 -0.3434908977073633 1.3226924513593026 -1.533246774105224
Ni 5.879181061712021 4.205249381347233 7.573222789854044 -1.3864316413894768 0.04444563190788474 -0.03798213567072813
Ni 3.4290956979048044 6.824842793726401 10.810493965692 0.01831679603131684 0.22197079211297902 -0.16475654768551626
Ni 0.8525518745173604 7.243008108083473 12.383730616321234 0.05253020868823211 0.7076475512941942 -1.1119586656127236
Ni 0.4595231857473202 4.39519629304469 5.678242189210276 2.0694161427193523 -0.7796433249062057 -0.13990966384516548
Ni 3.7858136440536585 7.713400883013992 5.223115040477061 0.28557474211686945 1.1805914362897731 0.9761694516938348
Ni 1.3741865981110248 2.446255412307465 2.642812259812787 0.4335517563512017 -0.6588999495768458 -0.8257879417830681
Ni 6.033089063931324 4.981571209001847 0.11979060743260972 0.3680701297086242 0.5264580548636353 -1.8204621371493102
Ni 4.749943215372941 8.541931488551809 12.282134146781472 0.8614967080385872 0.21880730678333285 -0.8099622876047212
Ni 1.144529628302724 1.1085280842050549 9.524040346826148 0.1130992285205407 -0.265537106739704 -1.4175170499403715
Ni 5.934911526705973 3.127304861069466 12.190559072287888 0.22999829040314584 1.6104413183093556 -0.46103427804218666
Ni 2.440239586049318 0.3467142996584048 12.13160584322707 -0.049609435497011335 -1.1897911005111703 2.032800034158215
P 3.8016752480697047 2.1941325074823257 9.780841397288057 0.09326162496932326 -0.06350933340755514 1.3721795023458367
P 3.9195163167754896 2.547300742485069 2.4766829757712268 -0.04712009341625433 -1.1082493350819367 0.7523942593822655
P 6.9724080226083105 3.6989764998056227 5.4625393207442405 -0.4703519558986867 -0.4832655786365613 -0.036447187083440455
P 5.0929107015031745 1.2813242862597205 12.476700353641434 -1.131767987029167 -1.2552662993958446 0.3826940502693861
P 8.411488945277329 2.546422656043662 12.540781047039358 -0.6742615196345807 -0.8277165262643487 -1.5497792245426083
P 1.8084377087670545 8.46146514167653 10.725289688571173 -1.148645736621112 -1.0477165678042022 -2.2954567340263305
P 4.250769756123554 5.2328253687307 12.283843612938677 0.5954605501752777 0.13489729823223867 1.7777491716618157
P 7.049857115009393 4.121952606900187 1.6703903764292856 0.04900934001916721 -0.23834126305120246 1.4819239554615318
Ni 8.799640517759514 6.335972838145859 10.46217202053821 -0.23775145198600342 0.2854461869588052 -1.049925659640379
Ni 8.037031784743037 2.98641869394932 3.307873062265092 -0.6275165501695579 0.7577629798933466 0.15489045352471387
Ni 0.2822833058184302 7.576027061659471 5.514356696266861 -0.8442242941113848 -1.4805728407502758 -0.20773330835735834
Ni 5.990660674390169 1.9434948765314806 3.575980876861879 -1.7646545432613867 4.394786890696295 -0.05816478126619015
Ni 9.174368577302324 7.591617766666999 1.0378337184612174 -1.6701163655724849 -0.8323702229862762 -0.45529686133777714
Ni 2.040047019705717 7.7336062125114635 3.455448566626634 -2.278491309816586 -0.9100897864559423 2.757972224599734
Ni 4.990557583008582 6.889036517400293 7.148543755543857 0.9069432704071606 1.3900227011748447 -0.24021328326293467
Ni 5.582621378144637 0.18983574969051348 4.9022332966172275 -2.329617439068439 -1.6367192781692779 2.66889866956983
Ni 9.245652381923318 8.723872867480274 7.399192596108848 -1.630497208518966 1.2767434954330141 1.1372380090048029
Ni 1.7264300399467547 6.156843204098921 0.7406201407353393 0.8510161202222375 0.3576880151433517 2.328534490416906
Ni 1.2553740295126203 5.1677535586154 8.514581898305533 0.0450405851794063 -1.0549822482276798 -0.3254124429390976
Ni 2.906568875852051 5.393655307684921 4.732303953380303 1.4075792220013694 0.35371951741390695 2.573197324810762
Ni 4.510926217753052 0.29359941129842926 10.249790934397328 -0.03788263397838637 -0.6550026714049687 -0.486388183425943
Ni 6.9680736384720054 1.1988495501833532 11.238673202019154 -0.3793325899963209 0.6261860042835925 0.7752889045922519
Ni 2.6184537682743643 4.553634847647847 2.8219288159765554 -0.12423416209143766 -0.7303010270276519 -2.621908931083852
Ni 3.961617759237398 6.859872837931451 3.117804713081057 3.34795452526926 -0.8706570343816166 1.7449647781419433
Ni 9.199347334156805 5.367116546195176 13.490369880542753 -1.508483451117615 -0.3999631217624789 0.5188488750578096
Ni 6.796809417017241 6.51449528475991 1.9734712530258813 -0.8239789135987874 0.2060320093955355 0.12146714086926176
Ni 7.204979492094472 6.807533281216546 8.188545600207739 -0.5336023792179004 -1.242695918930002 3.6766420394152033
Ni 3.488936354752149 3.482332023751357 8.170963320420341 -0.3482209561931809 1.6495256859053269 0.6034278846514705
Ni 3.7784993708236447 3.692568337052379 0.6932277603967006 -0.45009680519407647 0.5734308240687478 -0.8091806722436903
Ni 8.467994741916353 2.5591549094440573 0.9477476543799772 0.41633719224512816 -0.32904129794093656 0.7447035756062271
Ni 4.009744369302574 0.09334432525956596 2.929896082889077 -0.4250298349231196 0.2086900158436729 -0.6308584700585975
Ni 7.134172096074665 8.311788768797198 10.716061373725797 0.031150971681507645 -0.6598589710560054 -0.9476217219631292
P 1.3369426551122168 5.228696494187066 10.646799036189062 -0.22544486670450853 2.2147693461775924 1.5569112076016993
P 3.4225474149747406 0.2755276450266725 6.484289111175525 1.0749682044313036 -0.784268739493359 0.7877646684617594
P 1.0062310137811905 5.868886899388297 4.126716692912074 -2.451420108900249 0.5009830505209824 -0.2702388830907475
P 1.2685359847885973 2.9224865279388252 8.067082891998409 -0.4075064813273756 -0.8589551725636562 -0.4142270878806608
P 0.2851632425193413 2.3237249883507642 4.4561569771720855 1.2765506626959175 -1.027042070173986 2.5135482456895613
P 8.349499779052074 0.19692209409956687 1.8627968642971937 -0.1927491762437003 0.10674937504311292 0.29201586975652294
P 3.8141926505323087 4.983738401069999 6.618301916555384 -0.08618620617978061 0.1514202355879263 0.3836818681039521
P 7.4744679575001935 7.038451332616229 13.135062477507221 1.970276204592381 -0.6272658676113325 2.0999086548812547
