# total energy = -381169.89096407377 ev
CRYSTAL
PRIMVEC
9.20639458680690 0.00000000000000 0.00000000000000
0.00000000000000 9.20639458680690 0.00000000000000
0.00000000000000 0.00000000000000 13.47448907441563
PRIMCOORD
 96 1
Ni 8.133941471878769 3.3373639837278732 2.9437584028991686 0.1408090357309833 0.06325530841522009 -0.7909304677842507
Ni 2.30629384853635 1.9368320368896603 6.117633394486695 -0.48099478032451354 1.658290062361518 -1.349313910601573
Ni 8.652813857426287 5.04857491429012 11.231929996120819 0.628626238293969 1.1942002853224594 0.6349375252239775
Ni 1.4730599215249298 5.654180741005898 9.893427972492391 0.1188520718439179 -1.0699023598726218 -0.6536502711421324
Ni 3.0564400665419797 5.274499831631073 12.426173344126495 -0.4129703326554243 1.9461901101774546 -0.684517135924318
Ni 2.0613577268633243 1.5419237512604766 10.976817126133666 0.5600343481571838 -0.22772543520856908 0.13863336823590316
Ni 8.52866562962096 5.7285407881682 8.513464951910215 1.3661065566788797 1.749242836692007 -1.7761710285414183
Ni 1.8851381326162515 6.329294845061701 4.3659097255887165 1.069464501004255 -0.7739426749770025 0.39956408655184733
Ni 8.965932535652984 5.099256115185065 1.4329844869208073 -2.937760212697076 1.6488528282080184 -0.8005011421918213
Ni 7.418577011726201 4.251862753663849 9.5552181871051 -1.5181705964983918 -2.9044168613499397 -2.9724896457584618
Ni 4.938503263445441 2.603826101129052 10.491115379428017 -0.10984421191835275 0.22334556097331856 0.07743005725370536
Ni 7.728206466494372 7.858495359330931 6.57987540711051 1.9414891051573595 -0.9879700438731889 -0.6011763696131324
Ni 5.993777009382252 9.01686230919537 7.228860843362509 -1.687172292613507 1.3679752344565022 -0.14752372874699754
Ni 0.872264435856855 6.355928943915303 12.638517909162248 1.1238847276263484 -0.21203116440176387 0.4194153169498196
Ni 2.662249879672071 7.779209891191555 2.499463335420604 -0.4779991880312994 0.4058584042009914 1.2998420291236905
Ni 3.735743080026883 5.277197305175527 3.120354538675143 -0.7553829096969442 0.2615395555445367 0.6239432309960028
Ni 7.504251717544249 8.505760120478975 8.916567849150042 -0.011404385182199713 -0.8435655774814633 0.36977065733949865
Ni 3.408731952726531 3.241092718013353 12.101114893067708 0.8048990141492008 -1.3342274485820955 -0.5311549461186723
Ni 5.122760039959777 8.199233220606644 11.110658766549763 -1.5285869067357094 -0.11969693634271644 1.1866520406615564
Ni 0.1360300003530146 2.9942876982873434 10.074874957451208 0.6597468709581734 0.30405865985366987 -0.21228930315915698
Ni 8.448128091850029 1.0987463400559627 4.678706180013175 1.327478045673404 0.270687797702708 -0.5565864988178996
Ni 0.4923257474402384 1.6098117031949586 1.5148827297766199 -1.719285113987652 1.8286356740990377 -0.38651290979484404
Ni 7.917066440183544 0.36347397276166304 0.012463616670586047 0.04219591664175959 0.025659609549633228 1.4180883490628093
Ni 2.5032830684362835 1.3276080971944606 2.493036351525098 0.8099658871491471 -1.2025062340849935 -0.3409295647380903
P 6.210762517809673 5.9507647349805834 3.1927932113366677 1.261873263189401 -1.3129744527405904 0.46687171065957017
Ni 7.430775484239516 7.4204919417509325 1.8397662593427626 0.05459711851958984 -1.4300514349619564 0.7791049359042325
P 3.2639429887892386 0.19477139950109726 12.330599002464245 0.3150257003881349 -0.5992981787538131 -0.5437566940430829
Ni 4.009513628803082 1.9855983077598731 7.8957407483119635 0.5553081463261083 0.6801130933193512 2.2131150984036205
P 7.775904795620023 5.732066837204124 5.997414455789807 -0.16773079982249178 0.024993436720544052 0.4661435742442939
P 5.210800789125692 4.01375777659828 8.887448944461465 0.4858428524454343 0.4469297203200045 0.9336156374920245
P 0.9554764311863659 4.049055092534923 8.483161184268836 0.4836350461608381 -0.159617426686738 -2.009090092135785
Ni 0.17635216632570833 2.186214847033577 12.27738788440201 0.8627295520044239 -0.33817694169361756 0.30586228872131194
Ni 0.5351410050028234 8.783084337474147 12.24060281513846 -0.3806996455471766 0.17143833058106603 -2.4014823435295414
Ni 6.718099291237051 5.454346745251916 0.4718498057671327 2.2624396556703616 -0.36079236510028834 -0.06208005716019631
Ni 2.496820179602813 1.8458268287431518 0.0627259266226207 -0.8214553758459852 -1.833676836067371 -0.27008590245265096
Ni 5.750010099791635 7.023079516858638 5.184875582637015 0.19900261335257985 0.7595781787252144 -0.19712365116231212
Ni 6.1082493167260745 6.127886555873925 7.5830510880619615 0.29289724392021166 0.14602194739049043 -0.43190059390102387
Ni 7.999233509754368 7.097411944837891 12.734469712992833 -1.4892482570370869 0.4761492793067541 0.2097688507301484
Ni 3.7876395249759844 6.562511226727594 6.464507317596465 -0.8312548784349103 0.48589530294992445 0.15596646019771204
Ni 1.4820637751989088 1.4301397110667586 8.435663554540007 0.9567879618434295 -0.0015079520040941772 0.8449035795665965
Ni 4.772189749518615 7.428289757765104 8.92264499006026 -0.8388789706390715 0.9778465822859417 -0.9274683869437059
Ni 2.1540384987814734 7.550421785207854 10.820849758177003 1.4952219581220183 1.679700152606178 0.7434344790858164
Ni 4.6167766065018006 5.337931888700313 0.7066478459822992 -1.5414516785135195 0.20536686500771084 0.9975995965431528
Ni 0.8045606118093666 8.091371104405885 8.54242182405824 0.32429015640919634 1.056462175207316 0.30524548107291943
Ni 3.4109322809761027 9.398715927636719 9.620973938108197 -1.0341424286641931 -0.3156430222571597 -0.5253092859711728
Ni 5.526331542672002 3.3278998103364104 0.23426498998232048 1.5738452643528766 -0.8082350205009693 -1.0592124842589434
Ni 8.646397000564566 5.672142416382108 3.870465772382244 -1.4165035210741928 -0.3695287165320217 -1.438400321147284
Ni 3.5064578287483 3.1952724933350347 1.512295732964362 -0.30485544472335235 1.4456508320621102 0.2783766817065335
Ni 6.225640051078743 2.371567184475525 4.231999957854431 1.1111150866655057 0.0813299065287438 -0.33867599281722316
Ni 1.25884553779676 3.972439478756952 0.38837082500148123 1.09436023580467 -1.483961811827167 -0.8957348032858509
Ni 5.5979388779237516 0.643375980174743 9.60488484334271 1.381634991331782 -0.21053812479600517 -1.1133002672422827
Ni 3.7508599795490443 2.795116562926538 4.024465733866384 -0.7081820836414254 1.2132691290284523 0.440488335570035
Ni 1.0028985684815268 6.825031561608492 6.629691206936585 0.003925560306651304 2.873567480069251 0.16156657999330884
Ni 5.899614007973805 8.154757129503377 0.338771375442623 1.4643563788914138 0.8502926117926518 -1.0213025965870475
Ni 7.4121233292870805 1.215244054156713 2.3944027250204516 -0.5929735220873659 -0.338025760827734 -1.0590026822409826
Ni 9.048173256378604 8.732283453452656 2.5359261808819156 1.5917671389386199 0.6002733981828888 0.6239928532870157
P 0.6173734399735292 6.994033342685422 1.3918199358651184 -0.5730508150215098 1.0798463584592113 0.1430628647621665
Ni 9.134059709266696 0.7428759283876938 10.191726197094985 0.4919361098273657 -2.119332825044137 -0.3742037534101878
P 1.3106038868306165 4.1605905600812 11.695654238234932 0.7836491036314891 -0.6444750324007675 0.019486905080018053
Ni 1.4703992735578744 8.888193741764352 0.6638031279577953 1.5253766273285279 -0.3012952381759198 1.3760204733584818
P 1.2883612380818088 2.08337942214774 3.8926992147367026 -1.5059408872014193 1.2358662976026782 1.4204365375800116
P 5.386357522979588 1.8226267149819781 1.8134645113251846 -0.617976986110239 -0.5372183787039329 0.11698262273534692
P 3.064412804048796 4.539709879400696 5.363735570783573 -0.29283245212054726 0.3350918750103906 -1.8364711109830565
Ni 7.714930845842145 1.761763241936296 8.540359591723913 -0.5835792253566595 -0.23665384804645048 -1.7796440746916833
Ni 5.591190590865442 4.7142815290591775 5.088034441112249 0.09324568412972328 -0.8764163054628971 -1.0118026275164123
Ni 4.8006743336365 1.63222927343641 5.844263323864707 -0.1050151659608256 -0.6965226450256262 0.2678266741048291
Ni 4.997359742522894 7.373428853835409 2.4111252197171957 -0.7137899167465063 1.0024571817457704 0.05570217865831053
Ni 9.328287010861725 2.4634009681135036 6.970218241781691 -0.9111783915344306 1.13258199829003 -0.4643306894052713
Ni 9.253899344516377 7.619340853309499 4.566935028771546 -1.884115966554529 1.7816341085385188 1.0623209479809381
Ni 8.527643719848147 3.8213993730562317 5.153857398794099 -0.37352189685181475 -0.957274414561545 0.7042174425667226
Ni 8.996543796865643 7.310052035132267 10.412209214735848 -1.1300479190142667 0.12929897820885475 1.0690580095944555
Ni 6.504510942324659 6.25997990200302 10.115446616710779 0.18273575787175622 1.385984526549729 0.6381745441040363
Ni 3.1875667412643587 9.302140850908657 7.0169480582217565 1.5426618967715366e-06 -2.975299604403431 -0.1537995344533803
Ni 6.562750592980685 4.292941685252085 11.46235684029876 -2.754162878155973 -0.4081821672381615 3.7046295257670647
Ni 6.885683287584133 3.931019910577777 7.131184681870228 0.32221733304056766 -1.3903733996460441 -0.3044517815270305
Ni 1.1509742152016522 4.327981222146938 2.8612672682472367 2.5785593604536237 -1.6112239621116509 1.7124161547819605
Ni 4.312431622090341 4.276453032971823 7.006302704435231 0.06220269878098965 -0.7020877978182296 0.6917604477502926
Ni 5.568073334653416 1.1769914856338255 12.675154755476767 -0.5796292395699759 -0.5044416984935441 -0.39291572799739427
Ni 1.6696440600734772 -0.033219432731921725 4.5955687564778955 1.6965907577139296 0.5588662959910117 -1.172253091627407
Ni 7.269101993064925 8.955280737390414 11.37621444964775 0.3918564334949445 -0.6408983707931026 -0.33628640953912403
Ni 3.9547724079999313 5.623827258835029 10.360750073518355 1.1168067377336446 0.016532964658016687 -0.8566679191913762
Ni 4.594966658287428 0.5670512884582216 3.6374114232569057 -1.1507000480469796 -0.5102444212182503 -0.13077299165121994
Ni 2.460860003272994 6.018339669507177 0.9737308699028957 -0.936952158064425 -0.5864066675031255 2.0970878976030076
Ni 0.5879700576995466 9.376988836971492 6.5125168228511345 -0.7996079409535906 -0.5473037879643929 1.2879789591375173
Ni 2.951367487829172 3.5310481080562743 9.427210638788388 -0.9002820563369012 0.09624616151894393 0.06920098447569371
Ni 6.595654246386413 8.890329625253477 4.066438606345974 1.3240343100991776 -0.3755816075943209 0.05691316824727618
Ni 4.014973020652437 0.1280204372687999 1.283803152239286 0.790271236933697 0.5035451548212038 -1.4019119964132631
Ni 5.469187452943588 3.879961247514496 2.612783922831283 1.6633163119315162 0.8465827670412323 0.004040488617960783
P 2.704157386751778 7.098903380722537 8.314783596728812 0.021083045922544334 0.3512576861369757 0.7151898824178263
Ni 3.903907079217993 7.380655873399901 13.261268804075419 -2.508131445549364 1.2053223633775498 -0.9521700034554441
P 3.641635316984535 8.077184050713042 4.792471436270942 0.13866113615004505 -0.2323001990634451 -0.35398639792204845
Ni 7.246445056570382 1.9708496640116984 10.704740553917809 -0.7165420255703466 0.9430112197743115 1.9340879275972822
P 7.78352769014155 2.5007144844127245 0.005637995899739175 -1.984454810085608 0.6704958819445613 1.2402718828695414
P 6.994990807697788 1.5697546813795353 6.128763004616014 -0.061521099332932754 0.26283359176561183 1.6952416998852031
P 5.606583682218093 6.486576886131498 12.347226671299186 1.0960381377277255 -1.4791780172852784 -0.7522991285652979
Ni 1.157271388936828 4.778404065704644 6.3989135991339205 0.2071895200387464 -3.089402334487821 -0.2047999367606473
