# total energy = -381167.4678206812 ev
CRYSTAL
PRIMVEC
9.23285610926838 0.00000000000000 0.00000000000000
0.00000000000000 9.23285610926838 0.00000000000000
0.00000000000000 0.00000000000000 13.51321818731022
PRIMCOORD
 96 1
Ni 2.5003866257802274 2.2443595328940185 11.723945919194634 -1.3218360168962782 0.29909026010480105 1.725789747875389
Ni 3.7981753106078964 8.877935644016224 3.3240081488404756 -2.0872973938751476 -0.5129697905692133 1.517625265517883
Ni 6.710735087510595 6.164510102215211 4.028681866622602 1.3293354105971171 1.934971615753816 0.9017812665902469
Ni 7.598206425242844 1.1517433708978437 1.5437094936939264 -1.0695205510531711 -0.59484142853404 -1.3261467284564903
Ni 4.473521785049101 5.533001227378178 4.374539107273941 -0.7979680913573225 -0.9595105029809152 -0.5695343172278191
Ni 8.317335102153086 5.912600863040768 7.106804291449073 -0.15848922661956574 0.16568420170610823 0.4377326272017687
Ni 0.4845929025999885 2.391041913877906 10.042644714392614 -0.0889606836011242 0.06153704017253273 -0.6029895115624713
Ni 6.106629328854099 8.883447658962242 3.3463461202984233 0.18039656821561836 -0.9457383888974874 -2.6311633598025845
Ni 6.472213489327316 6.345704898388735 8.245454549457557 -1.3747583188166066 -0.016097934003127114 0.9715700052486106
Ni 7.146941362426171 1.5547852275787548 9.82008210755639 0.9058675208444787 1.3938762705929801 0.747416603662016
Ni 1.4760658985507054 5.225390168824633 3.9083195878273447 0.41152614400973 -1.9280211525779114 -1.0839359551475525
Ni 3.2643685164388 8.112550359267543 8.214198562528322 -2.3591658421495176 -0.26679951839189536 -0.9581035953310596
Ni 2.694267365899863 1.9851101733140746 5.9336674702473475 1.2078389591518166 0.4444408924598797 -1.0139752096876988
Ni 4.979648477361982 2.6729579345842707 5.814386358872825 1.3865763944974572 1.6061465475887435 -0.03512821116170079
Ni 3.4471790623871206 1.4043173756939176 0.6571559018337615 0.2577746891854657 -0.6484700124927736 -0.20546199582467842
Ni 5.084884568408394 7.65699201847784 5.056970875299022 -1.0049457524955792 -0.9377358303079849 -0.38004658534421
Ni 8.108321711285505 4.219498221883639 11.124770505565229 -0.9828975144462879 0.5852650976995146 -0.14786260014365504
Ni 1.0963093043385652 4.627608916429481 8.494786898562598 -1.515085786925481 -0.6302126089444824 0.6679497184839399
Ni 3.9318855291141377 5.217172927112815 11.577070571523358 -0.01589841639781133 -0.4493491283947745 -0.7577208138015016
Ni 4.447549761526242 2.5794752690425162 10.594876595707895 -0.554070160153949 1.1088095784607805 0.5725304237416655
Ni 6.896287791648139 7.232557634778634 0.371967757012039 -0.8099738575689469 -0.2597104727555979 0.2058222073775746
Ni 3.066702305418214 3.9465934684927073 13.696186414731065 0.7741766453646796 -0.9702554002022451 -1.2820790487133147
Ni 3.0383851365079364 4.312242258956916 6.562721328712276 -0.15637320871782748 -0.6577851192461123 -0.5445092559383912
Ni 3.065935978382168 5.805979843615959 9.06646409759615 2.8226215851490033 -0.37822727274728407 -0.8046125932570337
P 0.5918713013617424 7.267420898490799 3.319305855353027 1.048270383425143 1.3710495025064517 0.38334248248666236
Ni 2.9706898373719217 7.699749373946865 11.031744866388346 -1.0917037720184295 -0.3494980231333916 -0.8623012062177536
P 6.018806403952056 4.016199968790908 10.49024341014888 0.09710233887165212 1.3821088456444068 0.20357609165587523
Ni 5.1954203187161365 2.8260479175322053 0.6581373544112518 1.232983062517612 0.14093244868272503 -0.028150494292287
P 5.109148513597899 1.0590824295272707 9.309606740135344 1.0245298452750937 -1.5968823486779982 0.47412402134660925
P 2.24460882000213 3.678055855921651 10.117292353988178 0.8121659801242594 1.0793185109801993 0.6709537954175864
P 7.279839089617086 7.823063396759278 5.617119930510803 -0.050716295407944915 -0.8133036932731282 0.6978467631536884
Ni 8.568053302922108 8.068168021167867 1.6075860836479092 0.2366916432629214 1.2580094093586205 2.027149006520025
Ni 4.407626892805002 8.146121023159871 1.3550379308482323 0.9596071764597797 0.17955478904061334 -0.9292915561953737
Ni 8.61515010064344 5.734480607867282 2.303747108330826 -0.9327733440963872 -0.9582797158976077 -0.5162114374349627
Ni 1.7796606648069013 0.4928212237388341 7.2874081848478145 -1.1353976133619543 -1.3222774753090711 -0.17844355825430558
Ni 5.9828444303930315 0.5250882083842983 5.43474609864447 0.9827126521289915 1.0886811831420218 0.3452284492237603
Ni 1.570767301065449 5.924843629905791 10.640943006715702 -2.1959059336141857 -0.6209090721553694 0.34319033574780894
Ni 3.7350595079764455 3.737838597589094 2.447595002566929 -0.03181740162091295 0.37602023779363625 -0.32740916165415224
Ni 2.4481009630678368 1.4960919629023166 3.5264902174755384 2.4788046715607885 2.9745079617400707 -1.8805873845759804
Ni 0.7389977827123021 2.276240584164703 4.955243269477881 -1.475028256782963 2.071649145814929 0.7024678068654676
Ni -0.03369530744638364 2.2952325686604453 7.490430375550453 1.0901724229755676 0.41130734313070455 0.7031499205341568
Ni 4.318612929497539 6.066281748763484 6.847958407670035 1.5854820772608567 0.6324499829154334 0.48677462023108425
Ni 8.757179122275916 6.982735021027641 9.40251050561493 0.5129183685059877 -0.9489173008461012 -0.5869034046338859
Ni 6.283937092712258 4.068042454422213 4.141193448083523 -0.3311529449673007 -2.3040416474818644 -0.6010233889750358
Ni 1.1900412569884313 6.750242477718315 1.2637979259938938 0.9552797527290193 0.679182868195598 -0.6883259681474468
Ni 1.7520544257975335 9.45712192471744 1.5859248805242043 -0.619172806190553 -1.7724979505652056 0.43540397906859213
Ni 4.902821883784408 1.6788101802920776 3.4014930450405814 0.09786492806928952 1.5201817133911495 -0.1234576889367293
Ni 0.9523690815439027 9.088453990388327 9.418996693031358 -0.5945408665744857 -0.9455494128151327 -0.13787772101680126
Ni 7.313566712058966 1.8835579917541967 3.6960950096930567 -0.6175185584165818 1.0768057718606745 1.2556419375677084
Ni 8.544915766147033 7.101091000245395 11.686203851026576 0.28678676014709964 0.3364818133793818 0.0627904529636596
Ni 1.3356895581164494 4.22754927219005 1.5266019350783888 -0.9677709432174947 0.8074207521297901 1.0871925144116372
Ni 6.454320214678435 4.714794774277461 1.7199083915637827 -0.1706862829063899 -0.2274495558393631 0.7992101912945397
Ni 5.080886741822757 7.307648451455286 12.388702307969034 -1.5026303347709475 1.4612821108414642 0.1754669921244849
Ni 8.717884087752882 1.943987033331558 12.100735073534663 -0.10121070461307086 -0.8884524106918247 -0.3340955725353924
Ni 5.296067680402128 8.261513255647856 7.211936974509898 1.9190274337197335 -1.188171048409244 1.000903464105405
Ni 2.4188143442926813 2.5544265311052534 8.21713091754818 -0.7480169562501763 0.5250714589287538 0.3234769164792816
P 1.4410179777214212 6.773675465880781 8.106092899881872 -1.2302072995446875 0.7938440418866198 -0.1922735221588624
Ni 0.8439411922280797 7.675633154451057 6.097474952272899 -0.04455927466761358 -0.805892745521038 0.9601537929918691
P 8.579123497093423 3.740525358643183 3.0957562562257985 -0.5824767363211001 -0.34804483562663285 0.5071441850263718
Ni 4.587261336338867 3.319590227313391 8.362493000144664 1.758120598797611 0.9689963309841635 -0.6387707829271385
P 8.47714660416417 0.011822671923576998 10.78812857834374 0.3354916815519706 -0.06171753161445499 -0.04793898977312389
P 5.564946908639855 6.577227991833184 2.4468249823885406 -2.1280110695444256 0.8560593390730998 -1.679353825010353
P 6.217691351945631 4.382144210642509 7.090844376816434 -0.19139574753959943 0.12701660993258124 -0.7888936398598801
Ni 3.1036798931213974 6.274759633991418 2.4619465537094576 0.8416971568141568 0.269804109546174 0.2086596768263697
Ni 2.9430466669391304 0.8994574312044765 9.813866548994147 0.19617697097832668 -0.8416513911778859 -0.12742875776933538
Ni 7.97764910235588 3.569865251001327 5.63348516751552 -0.34564702481841764 0.4286064965307844 0.7880935125560878
Ni 0.8461035270695493 4.844968808990863 6.270782119688664 0.9622117039621622 -1.1307439166400268 -0.8359471417042572
Ni 6.893360976341796 1.6839528810038562 7.424350826189233 -0.7592691321252278 -0.07032249967464663 -0.3204407007561191
Ni 8.853948684502399 6.090065585448478 4.856542193806329 -1.3380393661290182 0.559592375523759 -0.5683266700729632
Ni 6.9844430993609965 8.614125253643428 9.025640102143367 -0.9791149074754041 -0.3654015817375255 0.8391813323708387
Ni 6.200869088576043 6.326749845316418 10.807047623278217 1.1988614382435547 -1.1181645373131195 -1.668251030228972
Ni 1.2827206640707163 9.310134859490306 4.556954486991627 0.16706308433150585 -2.5459045505330797 0.3270399512401916
Ni 6.325263355523605 2.404761937679886 11.987278047634092 -0.08949444461740716 -0.3242896421885641 0.7210684526857903
Ni 0.2868177438803023 1.7858005139511253 2.814911246798727 0.0006155220968118431 0.020262864014094134 -1.6306208785810241
Ni 1.8781844696460188 5.758993840164899 12.830935791187391 0.4830218380568714 0.8144833154035264 1.0202443305258622
Ni 6.142683630971684 4.9436772709471 12.876407606278073 0.8721104789986915 -0.9898772881982307 -1.6625894610678207
Ni 1.2514212827189584 0.08333206381369508 11.822646994866187 0.9146185275642313 0.32641080229662495 0.004663724024256484
Ni 7.44488562089851 3.720277705751028 8.787780499724963 0.20760758141277147 0.6944989297273781 -0.38353917187850073
Ni 8.611032246931675 9.099201034604683 13.16263075424125 -0.5225332658879324 0.10577595538625009 -0.11890117991429845
Ni 4.405900348759935 1.070041829428314 7.383014407236444 -1.333452260978968 0.5226613068253644 -0.37489666571215435
Ni 2.802531833667035 7.954982441229459 13.173712027839592 -0.6053567262430671 0.2916867685518783 1.781167196204429
Ni 6.365758661307915 9.01443418499097 11.391480012676801 1.121064998789366 -0.1217607608502806 0.7738290322172738
Ni 4.723750644457756 8.032861580374615 9.80547480630665 2.3501584964445845 0.2707631310253337 0.2812617165638124
Ni 8.645193813598786 8.470729769344267 7.559875300871174 -0.6282161473397438 1.2507586413334781 -1.252032108729263
Ni 4.192418255658062 0.4208197206315925 11.935644224545133 -0.16888882468633495 0.36702574760450984 0.6980120850869592
Ni 0.711746085367804 3.9038915101588185 12.33200057030073 0.9227475844292689 0.10855223257980659 0.8574598189650523
Ni 8.249002735963009 9.036371450504769 3.9837233983175135 1.3383005902102048 -1.0428435559826168 0.5320373487236256
Ni 2.610359171880755 6.7088423520601195 5.176967533002383 1.2088910545654148 0.9349616099969577 0.12309722027351701
P 3.4707874748108507 3.529009863838634 4.496550374125076 -0.3479964988872007 -0.5233110245942213 0.34051870245291677
Ni 4.499530739995385 5.8716808458870835 0.476735742266553 -1.5225512420645908 -0.5890531039870371 1.751026668065307
P 8.390200800568447 1.1774476416008803 5.877506777932203 -0.7777581920683508 -0.4853761972216608 -0.22766218607080146
Ni 1.143295307789626 2.1738205141543636 0.5072318651588411 -0.5514311798692052 -0.4784869263009953 -0.8955003186775415
P 5.680246812569281 0.3749702817364023 0.3682146011065848 0.2436359357912385 0.9422781982630288 -0.8044997218282532
P 3.4095274762064514 9.048438793108527 5.76545499269291 -0.24903293843709368 -0.7413367160165233 -0.307076106523755
P 8.249187393080128 5.662141182235713 13.180981978540586 0.5203707110189748 -1.6744995822418451 0.71102623795844
Ni 7.704116514766742 3.2610446883306485 0.1708475346157328 1.0194370041332184 0.7247579857222357 0.9104983347482707
