# total energy = -340869.2290466175 ev
CRYSTAL
PRIMVEC
9.32825103760455 0.00000000000000 0.00000000000000

0.00000000000000 9.32825103760455 0.00000000000000

0.00000000000000 0.00000000000000 13.65283830759788

PRIMCOORD
 96 1
Ni 5.366552220888472 8.413448225694692 13.370866149158855 0.46435408644403897 -0.19099054168138077 -0.21188358308030608
Ni 7.043491932012078 7.191102178375875 8.177954659497564 0.7577393257442627 1.6539410413642033 3.1740656762651724
Ni 7.23571920367656 3.6055276538040952 3.44586717259116 1.280995842951465 0.6905432875137397 -0.5443015108029594
Ni 8.25872985194659 8.938815331054215 13.26184874349629 -1.543826092282967 0.6865418796638306 -0.6502867539865381
Ni 8.294764886179614 6.655231462209626 0.5546615453039659 0.2791161309757193 0.7624228472628611 -0.5994976963591289
Ni 9.357168739100448 0.6820360164252848 11.043071033939063 0.8086808497891362 0.4448566398410596 0.2999281826250641
Ni 9.11124805375611 4.855205477023185 8.83722321331541 0.26982622103336107 0.06746420429024509 -1.0442121541953693
Ni 6.93653420420575 0.7056224994846164 8.10201803092549 -2.5174871757326516 -0.37010824318457547 0.12222535919152498
Ni 3.3237118579941427 8.902444479779414 7.121184137452557 1.1520082253354418 0.8431624285057737 -0.5263104735421775
Ni 7.785824831113737 2.144508972292651 1.2989832275530446 2.027341067926173 -0.20650637792879276 -0.1454727597552398
Ni 2.1011232761451524 3.0580899061988225 9.165751159636697 -2.0979718428698577 0.028996901452982317 -1.1935870772184927
Ni 7.827176968508246 1.459516833074603 5.99576701511741 1.2779781391710636 -2.4790990628727565 -1.1140286607678749
Ni 7.201922949722058 1.055846092355001 3.588567027544069 -0.604954605708642 -0.023284424449237315 -0.1978240196634464
Ni 2.0461705485586297 0.2538030575749626 12.338220350265143 -1.7433033312791204 1.0634231799061815 0.18563416246547382
Ni 2.5302135012771245 5.889307415923055 2.6951248550683067 0.996799983459993 -0.5040138669275062 -1.3702357483559044
Ni 5.903271807910327 4.807528785341855 5.227617248103942 0.3010666671048815 -0.4441778686064802 0.40997911123758424
Ni 0.4204457347815344 7.253032437830453 4.307607283497952 2.002749494629738 0.7024364394068999 0.7662003120274224
Ni 3.432535236032569 0.12273086769362045 0.5312112547115777 -0.6989227698266867 1.5222087711235075 0.26076488216204124
Ni 8.426339868798506 6.593161278987639 10.592322475262636 -2.335435331301797 -2.1361709796473987 0.22379087604085326
Ni 8.992583370743352 2.950516513815903 7.378853755133549 1.7469830941235525 -0.13148235901341873 1.1247910414907016
Ni 7.592188993524017 2.219815943911391 10.136946171185482 -0.027942492046538973 0.9402287719331678 1.0726354425330689
Ni 4.2386920295743895 1.7994662901168097 11.937768789021028 0.41385016415721626 0.3968302325604521 0.11457735572796397
Ni 3.7559270472648834 3.8889945500694574 10.323074632241228 0.4960506462163715 1.264028618969507 1.1526371171686922
Ni 5.369220100720376 6.934258110922588 4.353644068625266 0.15552217357144182 1.3240978163472614 -0.14597978129864536
P 7.184684341577449 3.3147100956242572 6.3720257569767575 -1.7534450476988124 2.8245002902289547 -0.48292824990180055
P 0.7571163115408244 7.777989100138915 10.92781396107524 1.6617703076006347 1.2207569527650652 0.3461185651381975
P 3.8487338180607265 5.033682906477088 4.331540777500455 0.26582507029376795 -0.13102598820229047 0.51659016093062
P 6.94912734327243 7.228769656561985 12.18031171462015 0.9523021581579342 0.28590564309372696 0.49496589779262495
P 0.36984556918650247 1.3234083203917053 13.36129536346818 -0.3328074498515881 0.3920446382463506 -0.33045154802490184
P 4.6613830744102565 5.67163267509272 8.708149134832647 0.8439129335185531 -1.6591254137786202 1.3583194565342929
P 8.622960746759587 4.2934581921377015 10.765782238417303 -1.3729410631022096 0.0958890352898413 0.8098537870513149
P 1.7022099435174067 8.908423888773296 5.409882880354124 0.6641210887664692 0.12931054817308055 -1.0033557823006398
Ni 4.614247421296236 6.564057135366871 6.788150645820748 -0.26666659235845686 0.09811278241403748 -0.5789363272680094
Ni 3.0984532489703187 7.182464217801249 4.710351728877317 -0.09151327481964884 1.831739766945658 0.5292387029325659
Ni 6.748719195340185 5.130547466527749 7.8474603178316436 -0.7215183957390154 -3.1593139718772942 -0.9839670933613828
Ni 0.07566051233772289 4.9926199448685535 3.0799030887125425 0.3421816919776365 -1.1023052016833594 -0.9316646844132407
Ni 1.6620891352760838 7.23960908441049 6.771370987633235 -0.47243043569427023 -0.6546584006916726 -0.16067363586539424
Ni 3.320297718069398 3.0426889635328327 5.1867679034469845 0.8965858384322366 0.5139059292302375 0.06849753065076589
Ni 0.5398324244341145 5.997123342836147 12.402320360939653 0.7077161997486006 -0.20153077909107225 0.21411555773461835
Ni 4.86011213713361 0.12514968321953884 2.5485892232381993 0.9980922199088552 0.10504910452255456 -0.12523637810370689
Ni 5.01833793331806 2.9214123701951342 3.596171417890111 -0.9709547402621149 -0.32009565871187456 -2.2111788006128563
Ni 5.590700768024197 6.058353983453688 -0.08453541049182534 0.3722083202467138 -0.5196379466180083 0.6958186769800662
Ni 5.0628057066001775 7.065049520443999 11.174957580146717 0.11659644304052177 -2.332761641124376 -0.2784787545020365
Ni 2.3022217146632733 8.321863455800875 2.52440946340506 0.0015012671358748339 -0.1255395111664225 0.17439407077528032
Ni 1.758496611019881 5.328679521176831 4.8526150216759145 0.08830916606005437 -0.8392726065330642 1.293311169983708
Ni 5.834466627350458 1.349574064896916 0.299961109967363 -2.7743825476369572 -1.9027873177117873 0.2042000983931193
Ni 3.19808829961565 7.237659479917944 8.94366042470698 0.3217167392550653 0.5235048857725823 0.22734388349943424
Ni 8.848443233811262 4.703751991181261 5.404284996832707 -1.5388746618149627 0.8683728663331303 1.0363841735105184
Ni 3.611628330063064 4.50711245671786 0.5379956917806115 0.47677174338210143 0.05022161515971351 0.3583840127691118
Ni 0.9134568681657368 8.088321359746525 0.13081846144977646 -0.332987169962562 0.3920976029714731 1.899723848295115
Ni 7.81687857922705 8.662792379214935 9.957042452129139 0.3650495977147455 0.1926447894553521 -1.6809697633472211
Ni 6.0592868085697384 7.390810707471081 1.9268118436595312 0.4443210790525638 0.3041136814613214 0.07960161098372742
Ni 0.7972734999616732 3.408533645796595 11.954248077521173 -0.35606667748984483 -0.31243017174681675 -0.8467964257139352
Ni 8.748313785854425 8.761457291739573 2.6792873502480052 -0.3442925676730522 -1.6086407747655072 -1.577293370802477
Ni 5.564012641453998 1.8476653638631282 5.503609416714393 -0.5045221740224924 -0.6794669750949202 0.7279132435217658
Ni 7.744071578919325 6.4317918621620995 3.830153807399237 -2.5250233362086965 -0.08737097051650115 -0.28428919053622653
P 0.6913782599625284 6.816022527463214 1.9811498394945766 -0.22045409835813645 0.4936937159484207 0.07937741078806329
P 2.4611471296847616 4.8728358717165365 12.32180915799847 0.8028791555056947 0.033610231855277596 0.041769370627302266
P 4.730999812821089 9.153878161559609 4.804365575373329 0.15035142800377976 -0.5239522577226461 -0.3756993641191078
P 7.174068791756796 5.29767241431932 1.603757715119227 -0.8550771776654887 -1.2290783281465671 1.3307975969649404
P 2.089379007934079 3.130299898432275 7.024235623141451 -0.1693613934473793 0.4145559319749893 -0.9178853712409611
P 3.8092006896425152 7.408907514722456 1.1372891875871196 0.9949133079602415 -0.834149426373886 0.962343087333704
P 9.256908695627363 2.700463413207463 2.801057408072094 0.7533725641351348 0.4138887307046356 0.8555309773734557
P 5.5014107479158625 8.576002330417616 9.743224943153674 0.23379375288983606 0.7420761652857091 -0.8336480612574353
Ni 6.382510711281163 4.890802083451665 10.413948589396615 0.4611162962330317 0.29383132569870685 -0.7545151623800103
Ni 6.04838208296311 3.5921789263934154 0.6814147548979953 -1.1361684300897077 1.5841803277302975 1.6305517159059855
Ni 2.2302822417134753 3.3069956319145213 2.69433288654478 0.4397869386276361 -0.4667457266046671 -0.05401450654324246
Ni 0.5779383304247688 7.119470537714373 8.822805468321736 0.2958388430470389 1.0063179502527573 -0.16988589849228158
Ni 2.155544293415526 2.5781327274886277 13.527614350359482 2.075171042925258 -1.1202499590872383 1.21629968832466
Ni 5.445441240952846 2.948137809769975 9.189534468795514 0.5989652208944265 -1.0122016627270438 -0.6229083619735853
Ni 1.1208733311948667 3.0769236452918776 4.946518794808233 -1.5757327111835764 -0.9099074952418071 0.06832500962864362
Ni 1.164119103574958 0.9681045619393108 1.7422113501438752 -0.2473483516458192 0.9500830390194284 -0.12780156772772183
Ni 1.3320742657198126 1.0402679129169612 6.924201323346449 -0.6322085563285886 1.1016449423915413 0.3040059522388635
Ni 1.859661494855535 5.507091652872609 10.089925255560736 -0.04734506494286685 -0.2649048724723438 0.9700021465408585
Ni 4.550591435376964 3.732774327884515 7.095121003710113 0.46459139926582566 -0.27526256155758405 0.40057658697676174
Ni 2.700090283161043 5.143084636087465 7.711969335375571 -0.9975512598037206 -0.11863764184026664 0.464901988527709
Ni 5.080865200846911 4.274960270086424 12.249353832759494 -0.07653145669883593 -1.3561646149748192 -0.6761685068493064
Ni 8.75008615357492 8.793341254206172 7.080799339703392 0.7757038806424833 -1.2000217771002428 0.1877211269014896
Ni 3.0870634543033444 1.0858737328406598 3.722610265420031 -0.8165275995270648 -0.23254599652566402 0.7079640540933485
Ni 0.3683558474761702 0.9915091441010125 4.1561565961313764 0.5507956031677352 -0.33027028525203117 0.6751202680904501
Ni 6.498666094731745 0.2425177393209862 11.49668709702223 -1.1003100256302019 1.2434351110888713 0.9674436417850629
Ni 8.204980468759773 4.2511359166225 13.36541938330624 -0.35808190814766067 -0.2735833740829482 -0.522690617401403
Ni 1.8818160913617292 0.08178824052505722 9.097910520246824 -0.6720236314429975 0.07893029594831567 0.9707791339161991
Ni 1.275601033194128 4.5175134567618205 0.8077827077190959 -1.486599249450014 1.1590579330933715 -0.4323417952035006
Ni 2.7547631632127505 7.379215691278576 12.896074955941348 1.7892898253115634 -2.2132217991848147 -0.9443574493895607
Ni 3.7361791395580988 8.833760566484631 11.258171177449098 1.2025843956210969 0.9463317995071121 -2.174413310958049
Ni 6.570708178444309 7.839742122821443 6.2581473996344545 -0.2820474456899013 1.361580900894384 -2.814236703519418
Ni 5.237318629310866 5.1889143340390165 2.732793266079534 0.13062181078533633 -0.1197190478299035 -1.310720109488775
P 4.096277619106992 2.168174745486847 1.4904940895284011 -0.7609904856917088 0.5088989629339494 0.36641305372117544
P 8.809926884769546 6.296485579079006 7.003277841259149 -0.048457067060122996 0.2012618417004018 0.36524165912089357
P 6.723700825727717 2.473814894760724 12.551900733948548 0.44905962217881373 1.8291568367098305 -2.5233078961794866
P 8.111474079126893 8.680795903954705 4.895812287149971 -0.49102388242574146 0.18902184799078411 -0.692153312313337
P 7.077390796729344 9.392149680952334 1.3693247710790486 -0.4502960656890761 -1.5957508061767163 1.9077631736598244
P 8.888396133531696 1.0781685973820845 8.779717343386258 1.6517808004880907 -0.14946491163376838 -0.1496096647417488
P 2.4430503224333857 1.6544679540779528 10.6902681796228 0.5784192784222747 -0.6788812777947791 0.27026356568109583
P 4.802631453482591 1.4345171199644553 7.542046845060966 0.003326493270071691 0.255599793021334 0.6310034802768938
