# total energy = -340890.55342826736 ev
CRYSTAL
PRIMVEC
9.08519552928976 0.00000000000000 0.00000000000000

0.00000000000000 9.08519552928976 0.00000000000000

0.00000000000000 0.00000000000000 13.29710200275620

PRIMCOORD
 96 1
Ni 6.30495292373038 2.03175856708688 11.447408773547767 1.643187659502441 -0.24868558240000396 -0.1303299905765304
Ni 4.575367952524761 0.014525410255410643 5.8934880623947254 0.26860700391427933 1.410107901960494 0.11480258436489262
Ni 2.6982757503291186 1.538287098840142 4.694315872070022 0.5489878605350351 -1.2353312510348142 0.5599970671613452
Ni 3.4311421148918875 4.4027946676851775 5.0735355582252275 -0.7378161044577746 0.47088288870149225 -0.29780368008289354
Ni 4.984283508057521 4.752047745642706 2.9007356936476847 -0.4230169182581489 -0.17925731240485257 0.29933322935354256
Ni 6.9939014541834075 6.190152395842359 2.616922368960545 1.236991926566689 -0.9526106905372884 -0.2614966181217432
Ni 5.313830797396094 4.564801870383754 11.50607551371745 -0.25748441163855657 -0.17292031444323125 0.926680600935088
Ni 5.52130031740645 7.8310840312509455 12.266922462783981 0.03241286911306676 0.3127201921834098 0.8794568920614338
Ni 1.8674437247805522 6.397022292962513 0.35690644648339614 0.8793165098288276 0.7491459276482969 -0.2066315906527474
Ni 2.8436933863987344 1.853552461157508 -0.042468745458416966 -0.45615149602858857 -0.22068061254664573 1.4074475815195115
Ni 0.4402222300380893 -0.320314005348972 4.810425576601655 1.9843259978172276 2.101605325857387 -1.1201666553448126
Ni 8.459588757332416 2.641656813181433 1.543088624559422 0.6005613617369528 -0.5463085139306592 -0.21768682002564446
Ni 6.736045441005358 0.8431242947977348 4.904051239789722 0.548739491969655 -0.3497175953433655 -0.9602196132327979
Ni 1.0059128242926358 7.297864833539972 2.5263965744109225 -0.3040856564368634 0.21061448655989534 0.16360186525578277
Ni 7.33999288417441 3.94378334523452 3.761643349737602 0.8506263409829866 -0.5066651885074241 0.2605679356598867
Ni 7.583794100213904 4.144811461772843 12.973064725353822 0.0436457617144087 -1.5207998065911228 -0.37323778995249274
Ni 8.200887820990898 9.09700606000918 6.805656207440784 -0.8687898992658909 0.11398831599371337 0.7811646466467386
Ni 6.755460503374518 0.5697544021149702 0.3126197534442263 0.15520489944133917 -0.2485053480683978 -0.912790216106241
Ni 1.7072989871197293 6.46085487518325 9.27960849194718 1.6002134699337602 0.3042121547123987 -1.2394241901572653
Ni 0.3326171768325078 4.845879642764223 1.5044738189498572 -0.18191300486014475 -0.05401296388134569 0.11149794547169184
Ni 6.39296121066068 2.058805193513173 6.966962941581258 0.3240965523411515 -0.10299093644194521 1.5381539815988543
Ni 3.5608241926913187 4.559150878903352 0.6498104175938305 -0.17265420526603814 -1.179167559359053 0.5786324228743454
Ni 6.072689905729647 5.807438543572424 4.919342532009438 0.689192172802484 -1.0132028502980488 -0.520285093283704
Ni 5.502893711716268 3.033846524155643 9.244397909018813 0.0711262265228646 -0.8142038364898945 0.014325415483736618
P 0.14694213184198188 5.472930737596713 12.517652048763916 1.67828810275 -0.09328939288346513 0.5235665922484531
P 4.02933862943217 6.221941494218442 12.763848122286102 -0.7192797362164838 0.4295043257547055 -0.9142236061186578
P 2.4453439130069814 8.595912112900614 1.2819692092274175 -0.8834559859184978 0.015650819163379497 0.345421796181489
P 6.55217925840028 7.941868902813667 6.0469633581813325 -2.005073257666908 0.26615082906430293 0.5528895095822866
P 4.8175156630185425 1.0403638848934098 12.72746736620231 -0.6307170593847267 -1.210917083856508 -0.9118556201071134
P 3.780367937263497 6.163787159064024 8.233618145600694 1.1315450723850837 1.3206466245738675 0.008448130767353191
P 4.842445438938513 1.27284494758149 3.9047206394963636 0.11497484827669875 -0.8646473378524271 -0.0496189485787081
P -0.1065793346555215 5.572077473972306 3.5688618649786354 0.42154856124273854 0.16087778145640036 0.701932760297604
Ni 1.4384135468400612 1.2780507644918917 2.5502379439332197 0.8038597742514092 -0.9283667303882593 -1.5028679047030504
Ni 1.6980139175168838 6.49241684367668 4.7839912923389925 0.10649149339603595 0.4978154514262782 0.8372437490284935
Ni 6.117761559643265 5.630377172251622 9.612568180642727 0.10660873570019058 0.8442710881889202 -1.1768391683361925
Ni 8.883340436800056 2.428381853370472 10.325717854352174 -0.27208390671928623 -0.6097746528051047 -0.20434408017015132
Ni 2.286362080345341 5.142783825367937 7.027957308788366 -0.14256612763140608 0.35390180862804216 0.2465137715596658
Ni 0.5667780921326881 9.140796701384634 8.918286640545013 0.0675955876617868 -0.3440097463253108 0.8050000585034395
Ni 1.2973931452986027 0.9496118689806646 11.42343385165447 1.9609742104651646 0.8263900941434412 -0.4556038510552347
Ni 3.9071790933461976 6.837154579567071 1.7421997648881558 0.08097380874090569 0.5448728099253971 -0.3915497008878031
Ni 5.673341060854222 7.863427326540702 8.297803233399309 -0.5260608194252165 -0.03942375321326114 -0.15335139117236815
Ni 5.306862452596307 3.1582773590681428 5.121351849640821 0.3493409287302371 -0.7683772650740831 -0.7940291613142325
Ni 0.7689945522170508 7.462761128345891 6.82838100645996 0.24856191233794614 -0.2619902699287101 0.7743321971059375
Ni 5.222206602733962 4.525808212129924 7.330931310376094 0.059455989273787924 0.5578836203627683 -0.35921525042115554
Ni 8.387979247929646 7.051892255822316 9.397607008582952 -0.4453466921036007 0.22265470555388106 -0.4805070420548176
Ni 4.474358751111416 0.1580033571271723 10.375170389442397 0.4362455011332809 0.10204759869206942 -0.2960920967084255
Ni 7.8220170063354475 7.498347838359928 4.48700080037987 0.006943521197368688 -1.2791796156783324 -1.0598020382138262
Ni 7.414482400489216 6.216426780667633 7.048089193067177 -0.2537267443683372 -0.4382584177982517 0.0854182176655045
Ni 2.3023065981075663 5.201256142358069 2.9977119768646467 0.41681336055059826 -1.1183059479869901 -1.936029624704685
Ni 2.399654465812548 5.232990729562316 11.494041264014976 -0.47866973173576277 -1.6727504607612225 0.39077708438783665
Ni 0.9630125320571786 3.2650465743055617 3.7478411210285576 -0.4702442266762289 0.3581431004028993 -0.17132623048323398
Ni 3.600272110710454 2.7251679284352073 2.9365050160873754 -0.07754807088880838 1.324012969942939 -1.3203144380454293
Ni 1.172462624644267 3.2447593331870155 8.208433984212153 -0.6177299030964394 0.37981981404538456 -0.08279517822036064
Ni 3.602416216802696 2.6234773373739046 7.100612524170868 0.2313874574411886 0.39448127271230127 -0.6824098597733279
Ni 4.488713359695072 6.741278513501679 6.111162073772905 -1.5700891397445542 0.1886220414492042 1.3938847552334124
Ni 0.8344134095382354 7.094919740792059 11.308400742766613 -0.511595535929506 1.7715407288582588 0.815884309516111
P 0.22150614675829802 5.657233009576486 7.87843970326452 0.7671534199693111 -1.274966091817617 0.8827201361937378
P 8.482156382472796 1.8066728533779741 8.097057666435004 0.22555053904443736 -0.07584214394129518 -0.08138004304038887
P 2.0794195016627395 3.1586952780522237 10.511199384682678 -1.9821863257664059 0.10156320285648315 -0.28000496133857583
P 3.8320263577740454 6.4288023061432895 3.9607944649256823 0.48635578752611075 -0.2959329454227419 0.16067337875507812
P 7.206313320440289 3.8740908120413406 10.510826891675128 -1.3457220794852565 0.4883368225118816 1.090131028214671
P 6.6722219439799275 7.81345875235709 10.464114451489227 -0.9262867079307789 0.17992065702046434 -1.4671694228601766
P 2.511475049640165 8.389060386171074 5.694670373874379 -0.8381140674485889 0.37350827000506 0.10987609359755271
P 6.557067093474967 3.900038129835594 1.677070725297236 0.6800441877546288 -0.3185532539254191 0.14615693030645793
Ni 5.280615323356951 2.92136272107068 0.24933500850044732 -0.09411343144665728 0.6367537524971099 0.5664564496334438
Ni 1.4268571784106878 0.989096127781024 6.848166744797608 0.06473420695359174 -0.0671232760110586 -0.10326861558336409
Ni 7.036910768762539 0.6960404339089776 9.311800972994853 -1.3892739959342784 0.24824515242847564 -1.0857226147343302
Ni 2.6471533563416307 1.5170004862379236 9.001153615451583 0.3343938205021015 -0.039168442669345445 1.9537172717924352
Ni 6.468495524435689 1.5977769577045584 2.3654078221061616 -0.3592016235744008 0.9357020877074078 1.6166428191343771
Ni 3.969975963302039 6.583432330253302 10.583575684569285 0.8812810897543661 1.4250532104164169 -1.1965615864657844
Ni 8.617780178002423 7.016659868425216 0.6667552153592586 -0.8916536912379417 0.01660958353222301 -0.4201905045529473
Ni 7.754177852984714 4.019036017955039 8.467394757139425 0.3549765297494596 -0.1439133856879199 -1.8760761269691881
Ni 3.208454892743795 8.540546932705173 12.529632695814087 -0.5509071890449351 -0.3970366921443033 -0.3256502699815166
Ni 0.16573122425455053 4.7516298266586245 10.295121642119781 0.3975066898021864 0.7853830556034603 0.3879506706826351
Ni 8.664759722930325 2.288469845656359 5.795009996393663 -0.7526218020120393 -0.18962862833684763 -0.35457338077377
Ni 3.9376508384028948 2.598038790516793 11.23926876612382 0.29849890637770526 -0.13454814242293603 -0.2079901615631708
Ni 0.9999801917577452 3.389822646639693 12.617660061654528 -0.5431149466940259 -0.33567628675895095 -0.020896640943351107
Ni 2.950617049956358 8.539974565400888 7.8743177501541375 1.1860871692970218 -1.3446985233167486 0.5136264503166058
Ni 5.5032389491379 7.843685197140522 3.365030965688377 -0.04257361169615248 1.1891763497453067 0.44195694969576144
Ni 2.949972001089624 8.541055703642314 3.4500393211285987 0.5096196431500578 -0.5305947027398282 0.8050982746442006
Ni 3.47825793774938 4.324144131920173 9.192964801351858 -0.19856886824927092 -0.6624424155124655 0.7361718839861322
Ni 7.383919803479457 6.273418210822868 11.834579822634883 -0.24409899147058606 0.04185807368636662 -0.8131257729343673
Ni 0.5958616193466115 9.151153824033603 0.19307130248923107 0.4498296675756188 -0.6262775355561343 0.7835341753201797
Ni 4.342369033704232 0.5694445969550319 1.7300728461935584 0.1738140299020942 -0.21778040818071526 -0.6734485368149822
Ni 5.901206844326798 5.680273064872784 0.4795311445690407 -0.5979203245696799 -0.5105303278897854 -0.3757649272497206
Ni 8.228534070307393 9.250091600917155 11.195906945966813 -0.2673970427665782 -1.5137524128260382 0.7201081456550501
Ni 0.32201384539074535 4.5776574217419 5.718299149826513 -1.0439923248750795 1.2534212757673058 0.16013833218721454
Ni 8.18880451123377 8.911686246155123 2.18580441313871 -0.06545565850064855 -0.6015890316705188 0.5808219743264964
P 8.639539220760561 1.442801696172913 3.5300217465254797 -1.3410609265641613 0.43325710792891836 0.9507934348228917
P 1.9400526056669931 3.3032407353724533 1.4681857318581877 -0.5107820388892752 -0.40722854507564055 0.704308202508316
P 4.741872326899861 1.050112299456867 8.250425756917 0.4693111733389982 -0.23387037176404235 -0.06653037962206607
P 8.469591557364444 1.6783081288979285 12.711111289092718 -0.04656036425804239 1.1834705576097813 -0.20622972722863836
P 6.566888189600874 7.59684044067348 1.042414413473999 -0.09611734925056349 1.443698850542062 0.673646254648085
P 1.704082827981366 2.879816122935833 5.9182870115022865 0.5744600366642106 2.199095387085761 0.4307340843967485
P 7.088278463023292 4.102165555005957 6.1303227506734945 -0.3246717081183312 -0.03801684556340549 -0.5525393253317193
P 2.346633266006083 8.500226835936651 10.260628789620599 -0.09396867833867688 -0.23409611462160326 -0.24226785179911828
