# total energy = -340863.9702605596 ev
CRYSTAL
PRIMVEC
9.33797332467396 0.00000000000000 0.00000000000000

0.00000000000000 9.33797332467396 0.00000000000000

0.00000000000000 0.00000000000000 13.66706785746951

PRIMCOORD
 96 1
Ni 2.1803513773623773 2.26343132495992 3.483339475366709 -2.8947945077688275 0.12573440078604797 0.0944463893060438
Ni 6.445946875002612 5.018198786003904 4.324383641744437 -1.1762781536264002 0.8809419612473924 1.4099333240558427
Ni 3.3457864610826125 5.61581039512468 1.4887810818611946 -3.368145141284521e-05 0.05078237275918995 -0.9832289296437776
Ni 2.3608637373722794 0.4505749492505201 12.322775098522346 -1.3208492275029768 -1.2283766740938522 -0.427167964312045
Ni 8.753985697958875 4.861218118468522 6.398018793734865 -0.08410566950166806 -0.9606541296670553 -0.21150743068780994
Ni 9.354874935674317 4.119876425789087 4.30477109662371 -0.005041419078649382 -1.121564564133604 -0.5159849232464533
Ni 3.9727006301180894 2.0393012921133176 11.838359334379897 0.817841690352798 -0.6406356040500193 -1.684998939111272
Ni 4.286867400599345 3.2421349585162726 3.753537465218787 0.3701560657033754 1.9853184436374842 0.3589820513644269
Ni 3.8421464267505216 1.0155792897396385 2.8456474176589737 2.9996356100456336 0.2579099292117493 -0.09471429825544979
Ni 2.0319896590944486 3.1524904157561946 5.573457083859825 -0.009371413912570957 -1.1133221216191538 1.5484278527210364
Ni 4.228486392126844 3.232059285428968 7.410680900645518 0.05315755785958587 0.10109731896365816 -1.088857560818886
Ni 5.117806946172836 8.908837307603704 5.172369657402149 0.0502817789736876 -0.19157803875373458 0.09307290599728488
Ni 4.281386010328494 3.7676574145008197 13.33892120323548 -0.3831691901335917 0.8565586473070215 -0.1816029298188937
Ni 3.8636517790397362 8.206332245480434 2.0992753588144506 -1.2759302555030994 -0.9952560360116409 -0.22848828151652262
Ni 9.014841979417497 1.805879975928561 12.464802869565883 -0.2509203852677937 0.7466272749915013 -0.9787976333453013
Ni 6.692992294092259 7.976141868024322 13.053183892174332 1.3705509656034782 0.6290509845362134 -0.5886684669541088
Ni 3.2522199695767813 5.418424317534834 11.936516373512902 3.11358587371256 1.4128636103287602 0.9401603805890777
Ni 7.418627515842272 0.12086325477627476 4.330546704059193 -0.5716109972511897 0.06607606569346684 0.44728427544594584
Ni 0.4505637436826751 6.865221871870059 6.670117061133992 0.0436781576142409 -0.7685582707366377 -0.17861402239389884
Ni 5.767748557129808 5.647242012929932 6.943731815381478 -2.021704695576002 -1.8196710087065822 0.9267628762362492
Ni 6.69247870556603 3.1729779289661546 12.687658269070116 0.07955687378872105 0.08822149144225452 -1.4380797045830715
Ni 4.299921887138781 8.592438761526651 13.478243763441768 -0.6826183762397083 -0.5070809358886041 0.18486951638530744
Ni 7.350945886058413 0.5611346843933085 10.88894892276504 -1.021575647742776 0.30682902350995545 0.05966990505680691
Ni 2.994613302793212 7.605302938166929 5.483049628688967 -0.7243229550673461 0.6966339737925099 -0.21907624417400337
P 6.19267302778578 0.9796094169571574 12.839950340259682 -0.7968519754750083 -1.5773530203958188 -1.7094789265305073
P 2.396021206485998 8.957077277176472 3.5478891489378874 -0.8617155089176127 -0.5978768729262541 1.062908702163608
P 2.298523428261209 7.334417673487025 0.4532857628716921 0.8738626858031079 -0.21309894354464592 -1.5140254639817667
P 6.356227628456901 7.455232370802637 4.10203342659055 -0.6760607776268487 -0.30855397662086215 -0.25512053939207036
P 0.16709556011014398 2.815268189433832 2.4787276351553738 1.1545926982331665 0.33959876174180864 -0.7087824362295858
P 2.476542549425597 7.534474411413264 7.715401377433431 -0.001937840452661179 -0.73653132420808 -0.5676234733583514
P 0.43064024405424783 1.3768001071967308 5.406185969853443 -0.35106176807608575 -0.10229982391219156 0.7162406922798439
P 5.156820998219878 3.7149725696828657 10.959580418284098 2.4820710010168865 0.9647573532021514 2.1679842675032535
Ni 6.04551590806119 2.0608906861613696 0.938912662138723 0.03277050956280163 0.4787376088592207 1.7502373393947923
Ni 5.541498804365857 6.862457831801624 1.1388470726159885 -0.6197425626510941 -0.8783749718511648 0.1075811269157889
Ni 6.226878023632673 2.5319447444459655 9.284586143771852 0.746568653839424 0.2041371063656678 -0.4012291329590961
Ni 7.8985619866440375 0.595409715039232 6.82180776684921 0.31925413664718566 -0.5789535536591901 -2.750216491913715
Ni 7.524380062379551 5.507321822438578 12.394362802497511 -3.2090414210094087 -0.28650650990251947 1.8762170234224267
Ni 9.035833743180481 8.414027445487688 11.727614707367666 0.043590482996441055 1.8636152754980162 -0.7956106468687394
Ni 6.68483090551181 9.212564224042692 8.476041859333934 -0.5520528726136041 -1.8134931620306445 2.862132755869748
Ni 7.244567695316454 7.321157751537096 10.448787681231817 -0.8359129460322119 -0.024653022661989803 -0.40074345157192914
Ni 0.03202084391443567 3.9714493417087295 8.798858394394216 0.09829893028291457 1.6512300701909435 -1.2409905062031208
Ni 6.693701980055777 5.025687840513652 9.721808725137723 -0.7460240941898635 -1.5790301509879257 1.0331592388153172
Ni 0.14289807014616593 8.10025286988101 4.4453234679009865 0.9272377589901386 0.105151948649006 -0.022579685072728856
Ni 2.214033446709836 1.4027409967579283 8.088922173195062 1.8631694462098494 0.6982033751621588 1.1619110862714506
Ni 1.9017155949230067 4.487661838408715 10.605466732232703 -2.6882791309789704 0.17210296074825845 -2.1324541929174434
Ni 8.840987594302172 3.9176252641598666 0.14412041083859242 -1.064404055762212 -1.0231113676610122 -0.004153617157057363
Ni 3.325242920033428 7.345352440109112 10.184111234935367 0.6817891954701935 1.1917690501731475 -1.0105273603484144
Ni 7.738948010665078 6.108407157591308 8.060426414165203 1.5106717170181856 1.1025862232588883 0.9942479064621006
Ni 0.3175685941195365 5.27758900566947 1.8276150423585982 0.09445667371868893 0.560832418578447 0.5210579668939865
Ni 5.0121851312604155 8.812992350636055 11.299384594197415 0.7695088075753651 -0.19843774198804534 -0.2189983397482164
Ni 1.119529607448512 5.408731501348901 13.03758947692336 1.3393478005277966 -1.5024866101042318 -0.1328471005714293
Ni 3.067701619062288 5.5731265196083974 8.679271640554953 0.4634318317400858 -0.4565415323781557 -1.0026171043624021
Ni 6.177750946605508 9.133228803700025 1.5288391193124635 -2.2958364859632523 0.9446788372847216 0.4774523143888938
Ni 1.831157869392262 7.366017374809951 11.848350031911044 -0.4593044398352735 0.06691655931689121 0.7025223142524869
Ni 0.06427420336165529 1.9668572959953299 7.779623288145144 -0.39403210099002456 0.9585789923055814 -1.2532621244816222
Ni 2.419179380032351 5.373340582905078 6.05511254312312 0.7686086643585989 -0.15539850350938397 1.2694513326469752
P 8.580047271084712 2.107412468664568 10.00529091567006 -0.6395038044384213 -0.30178966131383506 -0.3799658527049456
P 4.164782738927964 3.083874988651919 1.6829082068027836 -1.2528345500259004 0.605724393995131 -0.4004405756195297
P 9.01668156013872 6.197454070066318 11.312204697609427 3.0928594397984863 1.5513015747244057 -1.9045510944804296
P 2.1280587274189986 0.19062538499002357 10.069704254832459 2.7821863599520924 -1.7161874488989344 0.7545732693114553
P 7.463132296133369 5.918995709117826 1.0631543956202683 2.297727275228062 0.6875929466361642 -0.3210996744963567
P 8.602327675149873 8.209871337324817 8.079888617917344 -2.0642109443693286 -2.6943351073650628 -1.7095843417601204
P 5.2930713652419925 6.655444303838272 9.294439573096897 0.22998903443176522 0.6492601124942367 -0.5269079979168603
P 4.425853793770282 4.680556350887353 5.514347713477399 0.24969525461144096 -0.49531659626382435 -0.7332883917907501
Ni 4.583534809295977 0.7952703555281843 9.409311584265375 -1.6461020049357586 0.17975199265308398 -0.2988465195251111
Ni 7.694844763221762 2.752722444912269 5.79159774069327 0.25711520122459597 -0.22097217564513555 -1.144334767950584
Ni 8.237735849366073 1.052258848485637 2.3713316053341593 -0.1830157510060203 3.4757008142790142 -0.07490934771438065
Ni 8.196200544553903 8.407210725048643 1.733325791726764 0.31064685459414887 -3.5981588583066357 -0.4567112251868005
Ni 5.995996636159452 4.461319415999737 1.2614443890162783 -0.4627967692592481 -0.5931059339001721 0.5216531772758242
Ni 3.5669750323699 1.4666127334744838 0.33345902312108067 0.029659988958277952 0.09398307651638006 1.8427811123614846
Ni 3.0232248526908037 0.5970812122427792 6.038766421029212 0.6303496487429789 0.7533653650462833 -1.0563313060564066
Ni 7.493284611609649 3.46021398472657 3.1542496899078616 0.9637602793962048 0.23690350216341136 -1.5987643961920595
Ni 3.728970191515924 3.352014889209797 9.669860646405578 -1.7778623002009124 -1.3750964188823156 -1.1524383708943249
Ni 1.7912193579980067 3.520163772697372 1.104983846588369 1.0513726764995506 -0.7891738901044602 -0.3883857013375247
Ni 4.185559729307253 6.402824114745733 3.6574170380416144 1.1360938680980304 -0.29438642687122846 0.7727432553522627
Ni 9.189312670764298 7.107252799349065 13.512069637576568 -1.046531032136533 0.5315308414008523 2.183055560014079
Ni 1.004224314323362 7.8169387628663465 2.0221250242015585 0.9715324671424557 -0.8130450402951029 1.2915468789944338
Ni 6.996130918219385 7.235369791710342 6.171993152327815 1.2186633034608303 2.4165009284255605 -1.2760570108889506
Ni 4.634127948116196 7.8584927436249234 7.4551940851125 -0.03983332994685397 0.5131757359324324 0.5194016622374861
Ni 5.180903631113445 2.0776710240092715 5.455906941976392 0.8766078526484129 -0.7237118038459085 0.4832563226651806
Ni 8.042871024541354 6.476108528452097 3.1597170732189057 0.2997577184854708 -0.41231213024613506 0.3812938274877498
Ni 0.8076711839433285 6.836395548588771 9.128986562473369 -0.16453646125491017 0.09596873948784117 1.0805480125119262
Ni 2.2426076447146106 4.683208335277339 3.396812881859505 0.2928800175290311 0.7999321570622288 0.7149096321732462
Ni 8.742499990917741 4.025553558453718 10.897450213570123 -0.07347004416469283 -0.03584812004686084 2.619599052003753
Ni 0.18891093310973706 0.18737763790961157 9.245292886326006 0.04364653304535709 0.9846322377492074 2.61102802250529
Ni 0.994438118405387 8.995213559742322 6.91944468087474 0.15659252381748512 1.7514755826772674 -0.22502603399953505
Ni 1.4504487018580572 0.7506834010728907 1.7498493353115512 -0.5837237213543237 0.5051325539129816 -0.9219554275452767
Ni 1.3969327774249318 2.0266950282876817 10.712493912112352 -0.2468539285079039 1.4834900143970708 0.01864384035343241
P 6.135235154606901 1.9906224377999546 3.198325857228887 -0.9177527023178389 -2.65637919694658 1.0503527198754685
P 2.0414303500038695 3.689704014192369 8.008901345619208 0.22056645556628465 -0.12329519521693605 -0.25433712425882654
P 8.905905184017595 0.2945999814292279 0.16676126066943453 1.0034948789816653 -1.0424833444297208 0.5330426500596884
P 5.180091227444681 6.561728404761175 12.366276980491314 -0.374725944462245 0.7728419857136561 0.2819065492366629
P 2.0428310459844954 3.451921864521263 12.465896346228092 0.29917202118532993 -1.027939385177275 0.6396986940580467
P 7.062673315272334 3.8927769174635576 7.487161702579672 -0.07849963616880029 0.423614956853464 0.8420650816765369
P 0.8872839420901611 5.927922811501017 4.713676274247919 -0.6175267859466977 1.8667790179379784 -0.8550908045122435
P 5.38656315296219 1.0195666042978213 7.367574948740407 -1.3376806972380186 0.4067348932686737 -1.288739748562942
