# total energy = -340856.0886308447 ev
CRYSTAL
PRIMVEC
9.36042895873200 0.00000000000000 0.00000000000000
0.00000000000000 9.36042895873200 0.00000000000000
0.00000000000000 0.00000000000000 13.69993394775855
PRIMCOORD
 96 1
Ni 2.4042729494442328 9.345995057741488 12.001731247731339 1.7420974838964771 -1.4675741144977628 0.5771175288917156
Ni 9.30516486714572 6.395513004254433 6.180724859942944 -1.8129933395760907 -0.16903023536020567 1.0629634666609435
Ni 8.917455904633876 8.822971735932896 12.07147767509658 -1.816777232098555 1.618242045300697 -2.5863248633316553
Ni 1.9710067797729196 5.858514562189196 5.4867688750194 0.09686605449112995 0.9219220032041802 0.11125831865706
Ni 8.710375137428429 6.314826107662155 3.656895833152441 1.2929548150855539 0.7187914837261555 -0.31529078112406345
Ni 7.443684465218071 4.399813413204201 8.324038413784383 -0.8447143463739258 0.8461338524292719 -1.0645930318445664
Ni 0.38690958188899416 4.092819428571149 5.365771291631922 -2.805279751436446 0.03132786357900411 0.7250912006919383
Ni 0.7985924747433154 8.039101343667577 1.9929700900007754 -1.7846330432658428 -0.27285240945419464 -1.6072976304740512
Ni 0.9022339509774997 5.5732180516049725 0.5641390054839491 -1.9159161417842618 2.6176352434091625 -0.9601725620449464
Ni 3.040117520049428 2.664399266880355 12.429936233529398 0.8704035236099139 -1.4850527308985004 0.8525960631148479
Ni 5.9699036653734305 2.745207849047539 0.025928387884061144 -0.6310775280479389 0.1752430490391369 -0.2710179273486171
Ni 0.4907700921580112 3.278724211584663 0.17113578442075866 -1.5254064521251987 -1.0131275169754228 -0.9904370173564426
Ni 6.789016072217625 0.07873711926511087 0.7714612717534414 1.1947314752355813 -1.2471858363805552 -0.880918821318941
Ni 5.312567550153865 1.3622606506566624 1.957446326513844 0.30471763359390747 -0.15693422342762003 1.0936135874466326
Ni 4.983155338451381 1.869811183594369 10.752817901972032 0.39339498162665804 -1.0250512649962025 0.14560542867836213
Ni 3.90858746816173 6.727705263322102 7.366317712734993 0.590776257325731 -1.4490811978998979 -1.2919865376350135
Ni 8.07986601126147 1.852344623380774 2.164767656740452 0.5421631243037178 -1.2231462789328484 -0.527331201497208
Ni 5.0015392206912 4.0881672954381605 11.366287303480453 0.015936725834914487 1.2932985715782177 3.103277806918333
Ni 7.79104061900494 4.6524420271402755 12.410796964682273 0.2984526265208021 -0.12355256264338078 -0.5080975500785766
Ni 4.046513387104561 7.161111839426001 3.068798810055042 0.6962971592783814 0.8362662156065727 -0.027404617265197967
Ni 2.595777963061564 1.6843436465782 4.69296706775589 -0.5854738712762111 -1.0185471453290973 1.5548995764883093
Ni 8.410307870136245 1.387168751797271 9.635560859919185 -0.7347685758807023 -0.8732127109239348 1.462355546411301
Ni 4.70541269394024 4.989567232206104 2.599055985240986 -0.5324849777840055 -1.7408772383361308 -3.0522856321411824
Ni 2.3868625518036723 8.243411423936676 5.957210923867731 0.005275646576642527 0.7207486074525264 1.0877417020468878
P 7.374510896097778 4.416615382970226 6.095032006007564 0.7506708489332555 0.2042399504921192 -0.16214687797681107
P 0.43434823524510313 7.950898022717574 -0.11533358789699313 1.7764973015325856 -1.8002931184006028 0.7358489534290747
P 8.776965228189155 3.6284111121524454 9.46975022346494 3.3041354712017803 -1.5246816581440323 2.1857045676011517
P 5.3737473130456435 8.496629744889608 7.7191862230651545 -0.7049242388257602 -0.6787959171698246 -2.9492059926401724
P 2.007999194544692 7.152434721892237 7.884394047902168 -3.008805963690992 -0.03652072063385323 0.4343143455488391
P 6.558150455332253 0.45541762451883355 12.170267641063504 -0.24868095441431362 0.12025409439776708 0.06536798388284872
P 2.25690235780284 1.8961607907761857 0.5430845928963611 1.8355966787979032 -1.0715074995762126 0.06448635260884378
P 3.0958120716415443 7.243521054924655 11.297513424671585 0.9263586988192949 0.8509744683510247 1.582505768241352
Ni 0.8317049917613176 1.2417451293543926 11.308185249590943 -0.7549545639102739 3.07405644815937 -0.9413078639299595
Ni 7.4053722299799984 2.4785666731394653 5.190617075110574 -1.3003534215424704 1.6740696937932782 -0.12260896778318883
Ni 0.6196678774856156 9.059341284975607 7.507618066274286 -1.039714523435332 -1.589138185956205 1.35928927664673
Ni 6.823331404341441 3.1524894682617575 10.361410634025892 0.8646519658381172 0.8576909611392519 -1.0105070486334404
Ni -0.08766696837752759 6.622419159740903 9.039873465076232 1.8005990796767957 -1.6504605390147706 -1.33301645899313
Ni 0.8535166630419817 2.2939322142899683 8.546210064364082 1.457107410638484 0.22068164098791027 -0.23663585032432152
Ni 7.847259354612041 6.834460954231026 12.952492469938925 0.07520065370255435 0.8174727370491534 1.267659787964191
Ni 1.9624045456698682 8.049641186540304 3.7555079509714235 0.39916659400311255 -0.4336821112814789 1.320993723500641
Ni 2.2091267290085264 5.715983312257572 10.276663183403251 0.9373977302422759 -1.9808712064994078 -3.177806117144211
Ni 7.215112153398256 7.209102758083611 8.639658033592584 -1.6523161041662704 -1.025226614231802 -0.9843936393758401
Ni 6.419241691361325 5.916670906565973 3.596150394158793 0.6766320767492864 0.3064371873881755 0.6504351066389443
Ni 4.167899428288858 0.8495029111558137 6.24351180846638 1.0336629179246133 -0.11336868013184348 0.33448869420875293
Ni 2.7154510457683227 8.519469191256796 0.4980337849370839 -0.5448977496260616 0.48532451804811905 0.4213127910828485
Ni 0.7392174025316993 4.794767347637441 7.737394129242799 0.6141707249902713 -0.763216289698434 0.44577580922121934
Ni 1.7332238059755167 3.5332155508597007 3.7385749352016524 -1.9883783135097304 2.811527789228687 -0.06344248472536171
Ni 6.3685456087692405 3.0961022449355537 2.9308270250109003 -1.943545473465756 1.5087642155828274 0.827111288580182
Ni 4.500915405094362 7.558686693934164 9.431540952944095 1.6216598127329942 -2.579778063352073 1.932028731075408
Ni 3.404996396622925 2.7502531201917666 2.827173380219225 4.226677624488463 -0.2636427179304685 -1.3243855227910093
Ni 8.022860999631893 1.9733000848384772 7.42800855504138 -0.3766912957187319 0.5750531901635193 -0.4076265518450077
Ni 5.225253469943568 3.0624047011151134 6.300928678964874 -0.08068301697336427 0.6260060270623025 -0.34079818136654855
Ni 7.43849878764126 9.016704531613911 6.714515483045051 -0.8077771070279444 -0.3210469668815503 0.35459909180538285
Ni 3.282150128539741 9.021431548177612 8.270211267745648 -1.2740425515620832 0.4719133868485357 -0.9224632204196306
Ni 1.1344371731439675 1.5524084020923365 2.3245773222660073 1.881280039767631 2.3940924788233735 2.3019228013666484
Ni 4.717656134861667 8.881558660036267 11.209820247093308 0.21571735500409944 0.6495295641055394 1.0498418416773212
P 7.790844049999321 3.5878710948506876 0.7373041308770054 -0.9410535818273084 -1.0614745408202428 -3.8979394596102415
P 2.917149566391337 4.416222244958988 8.106414995577559 -0.986008549271444 -0.4520012213056409 0.4778022415291449
P 5.227219159999761 1.7688027959925985 4.195207543383789 0.021104900299415266 0.08913166196134971 0.8025256288210179
P 4.475754572375099 4.313014156580049 13.573058948593085 -0.4304913722583231 0.3528985641745083 0.9205850295603114
P 8.924083088251896 8.615647597577635 9.521002315530062 -2.6297130005093035 1.5414125977454678 0.8411081170799062
P 1.1049424618722432 3.753737893877967 11.829125875982855 -0.6640506405398499 -0.02674590063527652 -1.0744051328389819
P 5.719053532916767 2.5270817758120607 8.372399069381135 0.6750464774297213 -0.8812368667799919 0.4655113399769337
P 6.2393904116485635 5.7689726999152136 10.232261053162517 -0.010879880137297392 -0.1545029882783081 -0.32570374892727133
Ni 2.3121663296683623 3.9970809624057417 1.2031567614655687 2.327605036624101 0.13976516784750123 0.8593614068631394
Ni 3.77112957066085 5.1387350261845866 4.504565972341576 0.7165137434355725 -0.600081850997373 1.111283236812254
Ni 3.2840970977382558 6.249106536783457 0.9568408207385235 0.7616006084718819 -0.4280850768096756 0.004951173357688248
Ni 5.9845059343622875 5.574771882792248 7.3195595625554795 -1.951697156038613 0.9500822676884798 -1.6424284127389133
Ni 9.161304436318957 8.39871965923355 5.176040079279582 0.8007752217888146 0.7059588507378617 -0.5914110626962523
Ni 4.604862967351581 0.7351081742713733 13.580332937843881 -1.0813517393601442 -0.11956503875054249 -1.8171677826687542
Ni 7.394345644807644 0.4844377620484201 4.214085656266308 -1.3488675670927737 -1.0501334047758109 -0.8121181576054595
Ni 0.47709731375286746 0.7739839073255549 0.42000150596355057 -1.2261120464293918 -1.5093424566838005 -2.463284464438003
Ni 2.8678669085539426 4.954156729908125 12.361998241015854 -0.6228433130636047 2.2311351891301254 0.44085420354988586
Ni 2.625188430473737 3.0910008112182927 10.208122379272476 -0.5295333513548494 0.8137351243835921 -0.3700236538905692
Ni 6.498824057350599 9.293464331096956 9.179023728111206 0.4730912092067207 3.1487873613143575 1.2840621405816144
Ni 7.8300642468347785 2.3622820656724284 12.281401204540431 1.1894640561890548 -2.3818823099104267 0.6370861961358641
Ni 0.444460306519887 6.50790367332444 11.260907595610865 -1.7274722777841345 0.3512173198173435 2.8765874978424977
Ni 5.290533100666833 7.450723507705009 13.108302424221568 -0.16750145742050507 -0.36024780545072793 0.09862494616376563
Ni 6.237864661747805 5.287940261878426 0.5662975203742251 0.43080581817494834 0.306968120190981 0.489489448059086
Ni 5.270997885679817 7.052980165477742 5.4981399239730315 -1.013461503276074 0.07028136202406605 -0.16546334394455375
Ni 3.351641952240561 0.4715587480088245 2.824118136246172 0.0670242885393491 -2.1392884422304577 -0.7823969763919428
Ni 0.11072451273666399 1.5530636321110676 5.0100796759639135 -0.7271048886878575 1.336225452848731 -1.8052347786765943
Ni 6.95000608781978 7.793025029918811 10.918094057939568 -0.12643168396338872 -0.4778752608589254 0.9823652960919017
Ni 3.2626804365545983 1.974853916025753 8.195765905103224 0.793340105667008 1.6786326305736123 -1.222719732918391
Ni 4.686364221252852 4.307435340991999 9.247605718128874 0.4264089746588333 0.7386671396041602 -1.7801472395803473
Ni 8.18268096162917 4.253472468735099 2.4686867404998885 2.4497146961733685 2.705136311745625 3.4532908220149303
Ni 1.5506673623282807 8.158821228518532 9.88258444906646 1.8520643374356232 0.5697253501927027 0.2447913895519204
Ni 2.6721403415302176 3.669905893195782 6.143762398543457 -0.04091550726743921 -0.8250562058233661 0.27825892518174655
P 4.802648828719889 8.431396916310538 1.285961923104114 -0.25303588894889967 -0.4847514191534683 0.8955748806692189
P 1.5538686289912225 5.910156048094021 2.6163446973066398 0.6595362976092641 -0.34107534628733516 0.8395849955671606
P 1.208768338554556 1.4016399747823827 6.6030252872293556 3.2721915713053322 1.4556387965127577 1.5872761930468018
P 4.109293783327809 8.803764135955245 4.662594348259067 -1.1562788276863376 -1.0143397921159691 -0.7871743431759283
P 7.117276951172911 7.679071169232688 4.922934083472719 1.9130668452609243 -0.09040718623966366 -1.0402655108427954
P -0.004322646037855392 0.2647054392241668 3.3676632622414124 -0.6239738271236221 -2.137066494878474 -0.7569235147111868
P 8.073201385928096 7.21280012747502 1.4820039365797137 -1.061124870790308 -0.468159062012426 0.3945054410820173
P 3.1887424091552483 0.919289588365062 10.11745632949493 -1.2354114694534466 -0.5123223867932015 0.2986225764397631
