# total energy = -381164.30393375905 ev
CRYSTAL
PRIMVEC
9.27399640609106 0.00000000000000 0.00000000000000
0.00000000000000 9.27399640609106 0.00000000000000
0.00000000000000 0.00000000000000 13.57343117023639
PRIMCOORD
 96 1
Ni 8.494850691370692 4.221504526281577 6.61149588787158 -0.42337918669357405 -0.25175445113331485 -0.8111318824327902
Ni 0.04249252322938492 2.4546784125464365 5.044755314943017 -0.6453232393336757 -0.7892237695057892 1.2690250437428339
Ni 3.786192418233802 4.394047225747455 3.4591477241271456 0.03087174987819199 0.5110334927784489 -0.47991903076183157
Ni 2.2962507353104464 5.1573063877330085 1.9083426588842702 -0.7414071642431425 1.0205888583494747 -2.084919894781906
Ni 5.341154088577489 1.8189552464251537 1.9778800098579388 -1.208367577961777 -0.1056394298083858 2.0171754402470805
Ni 3.2220181328638895 5.22787222488624 10.722888402366095 1.3811405681938664 -0.8883755347073024 0.4562353139916465
Ni 1.3223234754443831 0.4077803955025259 8.534037034951618 0.37527076122212144 1.3007974510584244 0.01025304518657589
Ni 1.4065777310018948 3.015838649148469 7.805808538845799 0.6691378252547703 0.11914954847967867 -1.219347216901732
Ni 6.394578043945918 7.499027526455506 6.043298542946263 0.2567719589525642 0.5732724441140128 -2.9119625349076816
Ni 4.413652453732989 4.165693617096645 5.657772028746522 -0.09206451933742853 0.9373342239941922 1.4572675903654322
Ni 8.488164140104104 6.46848251973434 5.394108606930091 0.941268783161908 -0.5472657356376058 0.38815250228079606
Ni 5.365387040671245 5.844500232813475 7.4421491803069335 -0.01088579367456835 -0.9963569823853035 0.47960355640394176
Ni 6.542832147340786 2.7851016234719816 5.5196358552155225 0.9568851495429261 -0.6835326605238615 0.29392671362599054
Ni 0.2663241313287535 5.0520279827700065 8.497497489888701 1.5118014597472544 0.12817206369326314 0.9897245646704503
Ni 1.2413058445637646 8.204927021889247 5.094638285751245 0.752369319681601 -0.505605122674026 0.4271625649954063
Ni 7.265443383942898 8.509577797350365 2.3403578612797946 -0.09515447111666192 -0.6841962622497894 -0.7722927980784055
Ni 6.800222638121544 6.606683611238802 3.516523156472512 -0.31046610604191044 -0.4806921614824302 0.39383644003945073
Ni 8.175880865763093 4.563065806653966 3.8520312995193766 1.3293544367605106 0.38791081858363513 0.18620597580854384
Ni 3.8582699167690775 8.940837169054868 4.954302320319502 1.3872273978178946 -0.5927912308732307 -1.4431414353766954
Ni 3.014493919698184 0.47903529057407557 6.838471380685753 -1.683794891500842 0.22244516064623623 0.2738839360425025
Ni 7.063381554544212 2.9295626624174256 8.20376777236314 -1.043697162232164 -0.6108336901972383 -0.7446344129311885
Ni 8.25218730656961 8.654706564022847 4.536009850114231 -0.6744605230192643 -0.40114840031983173 -0.2542790173273814
Ni 5.423173311048664 0.3430469745650481 -0.026722092676215045 -0.9337920151688885 -0.6741149667543874 1.5906291686794347
Ni 5.334291331382932 4.803957858179157 1.2316989118910042 -0.4101554889144485 -0.1452048508058338 0.0034835876732262584
P 7.195536000520495 8.610135738243057 13.01169490091969 -0.2949147885708728 -1.227517925637983 1.4696119708633981
Ni 1.4024786246775778 7.209651022750384 8.238868920614062 0.23448666519180258 1.064874310530411 0.30943072279886064
P 6.4500272672787045 5.003154022749304 5.417984510169807 1.0047896865336887 1.389737308723942 0.24631862482972416
Ni 9.033428747204146 9.225103700848905 6.7227170696052205 1.5500515043673886 -1.9264964884032694 -0.5576126260895687
P 2.9250462262637096 2.6685274911265866 6.2586685569046665 1.2607399209159063 -2.0612667741393405 0.12155918636243582
P 3.582804407377249 6.283215897469903 0.04973551426850616 -0.1103095815905455 0.3958933225684795 0.7009099754600444
P 8.404095364470768 1.798431892814942 7.073372430660019 -0.09634874853507923 1.9647326490663326 -1.0317821559621327
Ni 3.486605244702723 1.8597144597631023 13.328674526940867 -0.1439504095734424 -0.2899016516269975 -1.3434592515930088
Ni 7.7467916091714635 5.7882812677953535 1.4186543288650748 0.12308667875055576 -0.031210364164533346 0.34054801302895543
Ni 4.8905584347775095 1.8488731581949427 7.167667641912865 1.0941177807765607 -1.904414054681933 -1.77074702931237
Ni 7.599696755302704 1.3314490877139034 3.6059448827176013 0.6630144859658517 2.170346854198159 -1.7766937338141078
Ni 4.306797469414481 2.2349496203698687 4.284100291092912 1.1719587003154397 -1.1483721712447514 0.0022566572446606295
Ni 0.8788029533521448 7.611604566434882 0.7597656476136754 -0.04228384836987557 0.6612625362717515 0.7023819320198806
Ni 2.1177355822860617 2.9867368490450596 2.981906024419864 0.5788928756245837 2.0127078913940304 0.006860731675575282
Ni 4.944718572637265 6.9004188931620885 9.755347216289454 -0.1954768595875085 -0.4304679752195554 -0.9044120193448746
Ni 2.4642677246264 1.0551118226784415 1.937268253059711 0.5611998292201948 -1.1028672448344168 0.27077624365145625
Ni 3.2427547883869052 4.187626618130603 13.02042173135223 0.617635286500104 1.3403741849097819 -0.9433598613629818
Ni 2.1254886431166704 5.9100395640215035 4.050447521008358 0.5011167478853692 1.0921773692207384 1.4913658176007218
Ni 1.3374308152686196 3.4142495262811816 0.614331766465922 -0.6420360839419718 -1.7023060629311522 0.0037255284807032616
Ni 2.978390252457084 8.077075710153876 10.049442329265647 -0.5763729374162074 -0.4738771954431258 0.43768429046233653
Ni 8.45461082182044 3.912624808549218 13.479204469005392 -0.08108462328715713 2.297503075032398 -0.9123718976218997
Ni 8.901302123216489 2.079257772015493 12.477390302539279 0.8238398169177618 -2.0625741800968544 -0.31024370561845926
Ni 1.3758622555581437 3.717286626401957 11.490099214136245 -0.027354994974185146 -0.8230381469520729 -0.3718779334904886
Ni 6.042833915736199 8.82631258987163 10.13756105904339 0.9912926804885186 0.05677972799320544 -0.6421173308018683
Ni 3.2304389214215363 2.3722882302269066 10.360016406105364 0.22441205456461996 2.1269317204373177 0.8489756927534411
Ni 8.712149696540537 4.972920795108413 11.151727261060085 0.5204326746051617 0.5876040302453364 -0.5878259164481554
Ni 0.07299191456146947 0.3777817999657199 2.308039839291152 1.0682473407677022 0.06314397964833642 -0.18795072641379243
Ni 7.397829679824403 1.094071880751871 0.9227208897988318 1.2117892020488163 0.18264139838573706 -0.5273283732837305
Ni 1.658746961917062 8.087508955888845 12.13797224269076 0.20380157740312 0.5855353206417658 0.7738881675899834
Ni 5.973251122181107 2.9079542512507772 0.24507091421690438 1.3417314702686247 -0.3570082154675077 -1.1797835956764973
Ni 4.348623192316449 7.629948530936011 12.045741422994006 -0.24551001288549973 -2.149808625035491 0.22165711752730213
Ni 7.367531534210052 5.075695221095023 8.973178376034031 -2.4757982806342973 -1.442385531047277 -0.5225520349410098
P 0.4230426110634502 8.297518600038526 9.80449661399756 1.516953179151523 0.3237491963040618 0.05367254982279144
Ni 3.2272950367067326 8.865625059800996 0.32597169274529136 -0.049162577767579846 -2.142514662477239 -0.4852990641268223
P 0.2795970747028768 2.546481701017962 9.416214795524168 0.06669698710691739 1.1860642864788864 3.1380949145975183
Ni 4.26646485990214 6.509928008791744 2.359740513356316 -0.7233163681797027 0.7866102431423421 -1.6058585840346795
P 0.12996485547137154 2.954240766329207 3.0339331431515797 -2.3587117853312347 -0.593129588049256 -1.5120976508314345
P 2.446814063761322 8.002206738759732 3.2887881233688336 0.6919383680890535 0.49343146342596955 -0.5052279418402654
P 7.18931314906435 7.092743026541469 7.844669365159794 -0.7698903592844999 0.3521586006846903 -0.5035207293411715
Ni 1.2411760086168406 5.584485201105611 13.101455128026403 0.6475295029563751 0.2649467814538727 -0.3028702959725236
Ni 7.492072029298859 3.150413608135266 10.500460877292749 -0.012589149518920253 -0.805972706829354 0.6839980301960543
Ni 1.7142611032233104 4.148879861969978 5.495976963487095 -0.5820753871176234 0.9899325669161985 0.1309082316775036
Ni 5.160042216614623 3.274601691368137 11.90328820422778 -1.284182982430195 -0.4153090080909299 -3.4941495079025047
Ni 4.3512941032246015 0.43071127852855823 11.510119917151936 -1.1802384238257289 2.3033099115221622 -0.9282379181198789
Ni 6.664330771673088 1.1332823367229397 11.852170864524155 0.809140048813742 1.312337847597856 -1.0099953991043444
Ni 4.871658030503849 8.754058885408385 2.2020176598321997 -0.4726037280473409 0.22174582058636647 0.8381860583371048
Ni 3.3726649272806446 6.826366033434325 6.717531978324846 -0.8004494630182796 0.7207864026689974 -1.1110693210292348
Ni 8.506675036536992 8.73203314441234 11.415703216548755 0.2368353679296373 0.5726687490917428 0.4823340679612274
Ni 7.60110640272645 3.3689738767895174 1.827662601465654 0.06003448748507725 -0.39121648591810043 1.31409751060144
Ni 4.206462104430803 3.487875782183337 8.302555307379558 -0.0006376335839989018 1.3993174962132093 1.4082428237272975
Ni 0.37804796365691434 6.584973186113856 2.819907858643462 -1.421210953852191 0.7034168010422982 0.16067646407887165
Ni 7.993600470277908 6.972616953648079 9.657821872157061 2.809420513077697 2.2636449888323726 0.8053638696007612
Ni 6.768913626920425 6.849699407895822 11.39452882840468 -2.6476564723616014 1.4962521991587459 0.4127751859254826
Ni 1.3998448097542608 6.4970093320728 10.621114640570424 -2.1012790528662197 -1.6502713058220997 -0.4842179152475015
Ni 3.6464054733776248 0.6213957693782121 9.12972064984076 0.044168209876782 -0.36890008180908723 -1.7328929345790738
Ni 8.342914811480906 0.8624102376533602 9.438244246118698 -0.39512893359862916 0.055932549501561735 1.4107622477150414
Ni 5.868000539206732 6.9210535347268065 0.2827437416165437 0.2238636382603177 0.8330837041135329 0.07295968018717756
Ni 6.663802153889183 4.922062199899015 12.322190903383595 -0.3664099683973819 -1.3185396055331937 1.2812544959294903
Ni 4.976936435466851 8.541369056354345 7.413102096781158 -1.4437412737442232 0.06529625010464883 1.3499068069905653
Ni 2.7497862459086355 5.2374151669851585 8.365183531177626 -0.14849689129354426 0.2566665437229515 0.045424965102018544
Ni 2.1723965159410943 1.4623886401868262 4.472377252526745 -0.8696648456716765 -2.4256854231383067 2.0754219825937996
Ni 5.95383137411975 4.085742495780045 3.47593829426329 0.487206051341548 -0.2548983960789352 -0.017867367198724067
Ni 5.4840570961598445 1.7039576934352645 9.534208776689141 1.5263603313980358 1.0883711081007708 0.9795303977462678
Ni 7.022603793213846 0.18406378495614728 7.807410157991069 -1.757203229189664 -0.24176314424855783 -0.5430527259975229
P 1.191272635016954 0.5415948868001962 13.787619559527686 -0.48164604075526735 0.12973349464311204 -0.6823669223505345
Ni 4.54632624349697 6.6734285619539815 4.496647300605337 0.2623245133396772 -0.5862747699109516 1.7403175091779188
P 1.1979591862835435 6.132847322939414 6.488466126765195 -0.35510611334878844 -0.8156534244522275 -1.5353743619711882
Ni 1.5770523293131966 1.0760896021028876 11.247650986047207 -0.7775383627480609 -0.1221140304246413 0.07590205064495316
P 6.047610023783763 0.6782666963298167 4.6778797345189185 -2.3810078777252737 -0.8984275196266656 0.9596763391348182
P 5.218412748753201 4.8310101051204075 9.772123875431285 0.005276932128223171 -1.5623084673578707 0.1968140903416933
P 3.5261588385335196 3.234343273825467 1.3396816141485102 1.1702972534526168 0.12818286232654055 1.4714868192886077
Ni 8.43195444908219 6.566898167502783 12.811011187357641 0.6875551514196933 0.9426376384849765 1.4735215903304493
