# total energy = -381171.6079215778 ev
CRYSTAL
PRIMVEC
9.23694996753182 0.00000000000000 0.00000000000000
0.00000000000000 9.23694996753182 0.00000000000000
0.00000000000000 0.00000000000000 13.51920996269122
PRIMCOORD
 96 1
Ni 8.726294550706385 4.512240886917887 12.035436542519625 -0.3396707526303247 -1.6047468390277395 0.4887813662484679
Ni 4.5176722135767085 2.4385363525095203 9.029737598442694 -0.9591708602533094 -1.0856570516037174 0.1200664038669932
Ni 8.56446318495374 5.252028220429835 4.975448070974452 -1.103641661106596 0.6607519151839201 -0.1553519665421647
Ni 5.220622590089711 2.5780604837705763 1.4812188441417045 0.7845513037307844 -0.055540199159149505 -0.3487359481563865
Ni 7.060650760867344 7.573246069718788 8.126680706047525 -0.08505054991344062 -0.21591687260941525 0.7067520360631183
Ni 5.2597133629130655 1.378005163723893 7.032003283827091 -1.5689997633351171 -0.7930595983121116 -1.1885384590509915
Ni 8.759880101270118 2.866613567945627 3.3102060884647653 -0.9185924246103147 -1.9706595560737286 -1.4220229082305251
Ni 3.3996410104183514 6.834779620071145 13.689146192829417 2.281015618900336 -1.3155504409978827 -2.514387453761405
Ni 0.9131935214349501 1.216173797971248 1.0727803083132863 0.24197037516335745 1.0687399641334043 -1.4186565628614534
Ni 1.7963004490040604 2.652390221225573 12.737556517218634 -0.016963367327215945 0.8392564085831481 0.10831080599296186
Ni 8.352198071654893 6.764902092564365 12.4030773171462 -0.16993063568728797 1.9072602658814766 0.05697256073030188
Ni 6.50247110327222 2.4638548327337215 10.398354326084908 -0.5222352750315393 0.9225030725186306 0.7483051769145563
Ni 4.974864295728131 3.9872126432317936 6.969206802267 -0.9521913436116828 -0.3123453253424943 -3.001703548318256
Ni 4.359618760414978 5.828755673825834 11.20653296183254 1.3765586052501388 0.1289328531186876 -0.4230575416880972
Ni 6.353285122206525 6.385826897408955 3.3241307907405706 0.44129823306583993 0.5018271436888325 0.7346333358544187
Ni 8.864257637400534 8.89337250411585 13.251976123714835 1.8341995413400605 0.39234262910274365 0.1137386618767525
Ni 4.4201854422209195 3.589746680427209 11.133177722613098 -1.2202237059694145 -1.2309241231060544 0.3949569267971392
Ni 1.1162115239886494 0.7144097368071077 6.042356450109146 -1.189592868457435 0.37820618970136155 0.11396980405095211
Ni 7.626358532794 4.962496019544182 7.41822048879985 -0.565271171076091 -0.9928502547836255 -1.5263114804379714
Ni 4.742536526812004 8.23873137662604 7.236035503501774 -0.5442585733801658 0.05027175167135858 -3.669147530810371
Ni 6.909552731130942 2.816687852654928 5.607755176817384 0.4630618499951767 0.7377569690850648 0.5022143518249221
Ni 3.1485252849987506 1.5954706799290597 1.4183410774207337 -0.43528982208823097 -0.2651141602696725 -0.23528499272338188
Ni 8.952886173610388 3.2414120552047208 0.47904670608810956 -0.05140560816548566 -0.17305298336635358 0.28641266463713255
Ni 0.31151059995368174 3.2512309331610596 5.322432254092316 0.7373947006496396 -1.535282059367698 0.6341561669732627
P 5.069746247155709 7.6753882639249955 1.5792062581929152 0.17488052349339558 -0.13521277259012843 1.1535143775673231
Ni 0.6644470737160086 4.733216444161068 8.511180761996687 -0.5060545515066188 0.6667466993147743 0.1580382551250762
P 4.73661564179788 6.7723747851952965 8.68474028329135 0.09016036033618022 -1.2137923485217743 1.5220087392975594
Ni 7.006245124778128 8.752684517142189 3.0385640125328623 -0.8301199934995188 -1.490000561822079 -0.6877927213517961
P 5.4945073975059024 8.910959657106321 4.920018980814152 0.043983861780117796 0.7225794900136782 0.04675268277450658
P 1.44747626542627 7.140725881284564 12.501213446094022 -0.5196184062339825 1.3719596730255468 -0.6906726140027524
P 6.492310458162179 0.3082120850729586 10.829523148719499 0.6339471362862501 0.813559003817044 0.6555893971463742
Ni 7.507645250108326 1.368491105120855 1.241063683710807 0.5336129207408616 0.026595491100341293 0.521410979358031
Ni 5.782857268778751 4.042578922131415 3.4174674004164127 1.5147366311161785 0.10622692688073963 0.927816514311744
Ni 1.8361855995360192 7.7750087707538915 4.811311162476839 -1.0159135643609924 -0.6634806269689929 -0.3543610076526478
Ni 0.1839880379576034 2.5587922058619 7.549492328841533 -1.2817774583124957 -0.6223308922035604 0.8922051928660376
Ni 5.428823445344539 5.58682147680567 1.3056715311855147 1.4780881266552093 0.009727768810725183 0.0798414949086754
Ni 7.575518359443397 5.4553981507823455 9.580090788218056 -0.047657196866646954 0.722627312532478 1.8424777221884525
Ni 4.317683006960811 2.500941187385369 5.019547118142049 0.41973156263865774 -0.6519296889065999 -0.829446878691894
Ni -0.01463594743350834 9.4073718293825 2.6674482972786526 0.14470888500602175 -1.904493758879933 1.08039965985952
Ni 3.576565552634457 4.778126495547446 4.94713866630786 0.13838654233241973 0.37922537499449527 0.7902128728919359
Ni 1.7220261332496645 1.6749269246895764 3.7133620125309723 0.5117024938210154 0.04727461671624762 0.10528050380707031
Ni 8.49427160114356 4.9735064640634254 2.5952014920712148 0.5845030227225095 1.2703866999770508 0.8955710240144771
Ni 0.44989673896241333 6.028541667539531 10.702334040622032 -0.3029965371377427 0.5989377100906008 -1.075879146281347
Ni 8.443865564447659 7.7808280493169155 4.715014110293935 1.2765403782832727 0.7183667374839112 -0.7481802213009179
Ni 3.6608065375467924 3.754127444407464 2.8646664188645388 -0.6989109427521447 -0.9849639100570133 0.08183847073404615
Ni 3.3287381814504693 7.859988711674232 11.340102955059114 -0.1924208463700041 0.666722016724426 0.2009777348010797
Ni 5.926611923185624 7.662567377186144 11.4772014632239 -0.3521696564282838 0.16439067970566526 0.11524018612294347
Ni 3.2894441957249123 5.9765745862767234 2.208836495896855 -0.2355035364920912 0.45620857451876917 1.8274285411648141
Ni 6.748414136635801 8.47156717779767 0.14464602009152658 -1.101815663641451 -1.323365309056611 0.9163293396077509
Ni 2.07210654204106 7.9158353119790545 7.068883654491508 -0.04092656301103274 0.6271650803674103 1.082483281861426
Ni 6.560589993301651 7.129355195711419 5.871135724579813 -0.3217972147840135 -0.12471624393417877 -0.4163546757466248
Ni 7.217170880312469 0.8153326536001101 8.906374435076662 0.9246877388747752 -0.20815188395201573 -0.7114206451833812
Ni 3.179145774580373 9.546665036891055 5.382659939829586 2.6504674594478357 -0.07756298328714384 -0.4355387048742435
Ni 1.7671393975382441 7.949199175740387 0.9975435023584664 -3.0022779327644877 1.5752989660802676 0.03416918968254116
Ni 6.144234467542492 3.670394491750631 12.733541215010147 0.7027711970384993 0.9704803717288575 0.6213754702688267
Ni 3.8903724583830077 4.382360131561269 0.4023523094075038 -2.1120360342724074 -1.7055045152637915 -1.601502621058829
P 0.5092857096306002 7.090449161890064 8.696582977014605 0.487645709982128 -0.1751378909198403 1.944611195726109
Ni 3.097675874698048 4.230911097721065 8.626702678422797 -0.26333495688206265 0.49797048894690377 0.03580132596932544
P 8.414178006826141 7.251947997439107 1.931909037117711 -0.10608037400054635 -0.024099207041048818 0.15582530663415745
Ni 2.2417061828278357 5.2452205882061085 11.89119971931753 1.2437135615612387 -0.607082193574606 1.5029383529296698
P 6.430487551142632 2.74188703074483 8.059855990548808 2.5194119035591904 0.9894301733584832 0.3963484078280271
P 3.9136403356850007 2.047508543924662 12.864609842149632 0.06413179748290246 0.5503320332677555 -0.14236352470229674
P 1.6363996058223231 4.4778424847453495 3.9262358408414104 -0.5612458519667818 0.02967490135661341 -0.44275296323449553
Ni 6.40951043746545 1.6320674762254057 3.5667328192529677 1.129836574334409 1.4983787585834454 1.0482153618174916
Ni 4.300456095024242 -0.22318780679213965 0.1338877443100137 -0.8195630439192787 0.4301668990393688 -0.5212497711898184
Ni 2.018901709464848 8.921942390775264 9.651985665626684 -0.4096888336906751 -1.5109062016264947 -0.836744697904888
Ni 2.8091135535728977 8.641804168141347 2.7578373961775733 -0.12858935373633984 -0.026786266954908704 1.4985757050856
Ni 1.4535818894423942 5.010602055665173 6.32438085795349 0.25351282858531826 0.39126430843690035 -0.8749587470807642
Ni 5.963504301885171 1.2923139776458514 13.023488154955293 -0.21930250125219652 0.20855914669276338 -1.6966041274503685
Ni 2.9280208122106717 0.8606168014655406 7.777088008221411 0.8329494925285139 -1.3069300463187234 0.4035752645937695
Ni 2.3858949738894104 2.767990651727534 6.536565609786465 0.8297222438404677 0.7037626144174911 -0.5636830006533647
Ni 1.5703277017567594 3.609449094990588 10.564748745186971 1.0311262675456887 -0.7745196305263952 -0.7031674040356535
Ni 8.138288781238241 1.759371122504113 12.116524956362818 0.15171874066495158 0.181533510033539 0.07940543581252131
Ni 7.247837554644591 0.37998411104525465 6.620019606550278 1.17340314607145 -0.8877296735931872 -2.0866345634801675
Ni 9.316387870897136 9.035963302810119 7.97008853839162 -0.6030615024509872 0.8499046323256136 0.5273705393755755
Ni 8.696403780182665 3.3486345719659485 10.06975629214117 -1.4433736059921596 -0.6964234004436006 -1.0035293317640266
Ni 4.809993973392574 9.686604830906614 2.6615948420002598 -0.432418671188023 -1.0568928349868314 -0.19876350075858026
Ni 1.9693731830284502 0.32643196914528116 12.454018173252894 -0.524390116591013 -1.1097937967509208 0.7169811699902942
Ni 0.41267829592433497 1.1461300053626686 10.416240756258622 0.2903143136843839 0.31539491080209553 -0.37400937801119455
Ni 2.3701275000686475 6.200302754649716 9.610238345954558 1.6954702709562413 1.1035668420046028 -1.0192570269119283
Ni 1.0875954525787352 6.534292396366847 2.9781331138933913 -0.4083300056699355 0.013038578351513029 0.26642130911687023
Ni 1.7211578599402608 3.4274257563192623 1.764364617728193 -1.2029962863475345 0.6330683332257225 0.3736645930772661
Ni 9.147009916912761 6.815178811958866 6.7691492422203625 -0.7535589691143281 -0.29265581733336693 -0.9307432010402358
Ni 5.411818220210372 4.622557781962627 8.961640954915202 0.9752767646762365 1.7327152713506289 2.775805653236729
Ni 3.3198891832546336 6.093283450790689 7.128855476711006 1.5804766536264652 -0.45698864721790333 -0.420965692156075
Ni 1.295205143027163 5.585343564789665 0.5738713884250675 -0.7366171990536668 -0.8198998584334073 0.4743384513502604
Ni 3.174425693079254 1.3079706080654139 10.73445553459491 0.6942695873253915 1.2328917883553865 0.07609822581615926
Ni 7.77947945460231 5.402747535212137 0.5489842737705384 -0.8577302990176194 0.8826574012766024 -0.7862135219245556
P 1.9830900539270049 2.43603313903241 8.746104113890924 -0.8026909507542885 -0.22525974727689593 1.061844265454836
Ni 8.370117754848964 8.024859034009788 10.32797338479768 -0.39051200365190814 1.0718276019197928 -0.5097057751059609
P 8.755825080176201 0.8373378398234278 4.675389441754796 -0.9733288969212465 0.8505201544224256 -0.10823855799412971
Ni 4.819868273049513 8.987866503639227 9.248775243554888 -0.08023384525108762 0.625993171546496 2.856969466501254
P 6.597343817749699 5.650399404344223 11.760023019861878 0.0019080156559902624 -1.5098589913089029 -0.2160297440381957
P 6.146534468117402 5.058403272432863 5.410319986904146 0.15464979826881753 -0.23907068501805925 -0.503357721400746
P 7.112617842130152 3.626306528923155 1.5998905605519276 -0.32858107047506635 -0.7585667067415646 0.4091411887173212
Ni 4.15435525529196 7.126205395727306 4.662761607273037 0.15761556576536082 0.8398269363746376 0.2291572825590892
