# total energy = -340862.6657865457 ev
CRYSTAL
PRIMVEC
9.36418848002356 0.00000000000000 0.00000000000000
0.00000000000000 9.36418848002356 0.00000000000000
0.00000000000000 0.00000000000000 13.70543638719181
PRIMCOORD
 96 1
Ni 1.1011349425393768 0.05727793267310661 5.454050877126467 0.5897892108221132 -0.7567178264582838 1.1612348861400323
Ni 3.761351109019148 8.600014664669686 1.9123330670552232 -0.09046323628857969 -0.1756325711680717 -0.476852733131682
Ni 9.189471611374072 6.442955082359707 11.173206616832754 -0.2538581277398789 0.030411779522637943 0.3952536321019515
Ni 1.430155074702516 7.415959831695867 6.8017336696116795 1.8623461789776055 3.288966990991459 0.7186572721411365
Ni 6.445436592350122 2.264213992952705 12.04784618298658 -0.00010875766372239335 0.2059972995028581 -0.5701444400079924
Ni 4.348598107203768 4.830722723681209 4.843734263800765 0.18647311342700146 -0.3137234366369436 0.6783706567069478
Ni 8.193412229598657 9.044158132010809 2.408675331149448 0.06234462367549262 -0.22846257048490975 -0.6551538522708523
Ni 9.349084206795313 6.700517090987529 2.5988526383016906 -0.04014546187063409 0.34834591180681945 0.5391204808226521
Ni 2.0176923627350707 7.427917900593075 3.5144165180823546 -1.1632169495670677 1.4113721133848982 1.0262437426424067
Ni 5.691179289716231 0.7085909638781989 2.4279318486750707 0.46992181033980357 1.0740099542830923 -0.058983934733375834
Ni 2.145082785035485 5.569444837356235 5.20150058226042 -0.015314261759567172 0.24025802045794106 -0.39603756145582764
Ni 5.143683272321472 0.711029398600856 6.741238201720811 -0.8642567872822277 0.35930472481116826 0.5089434430186396
Ni 3.406607550653477 2.6390343717691325 12.73680512537457 -0.4073370456290468 0.5914344597350201 -0.43680343051927994
Ni 5.405337431386319 6.483071266506647 0.7947190253417601 0.4848036125476424 -0.5944138540783181 1.549698234793028
Ni 2.238949411993685 7.797391327694306 9.125162109448878 -0.6941562016759787 -0.09544294889135821 0.19098951324011623
Ni 6.882847208056872 8.491717823012506 0.841944501506524 -1.629725363349948 -1.7878800894482307 -1.963074544637619
Ni 6.876666843552441 7.498158679604792 10.574786268759215 -1.3905492631022762 -0.9364834459581227 -0.901953016281421
Ni 5.017706842506162 4.949638555259639 9.895640059650306 -0.7176126329267061 0.9463469690157637 1.3438819409527243
Ni 5.022136103734338 3.0284347923028294 6.820523850542877 -1.035929345361287 0.6441914397220776 0.20264149565674777
Ni 0.3857867801363339 2.770207926281349 2.4877971066702593 0.1955694193013148 -2.263034866052199 0.6400931012829879
Ni 7.856479358032118 7.606418064507402 7.197917508398421 0.5286910579592121 -1.497338490244389 0.21729832633797416
Ni 0.1648256392388413 9.25277352660127 7.873814344048182 0.5844066063539612 1.5159885012454084 -0.7490063167466392
Ni 6.41146331595304 1.0155556225303 9.919117953416228 -0.32724358261056546 -0.4078929181325168 -0.07083080676963284
Ni 0.9345413444847226 3.4755560716324503 5.21535677219558 -1.3856248292174653 -0.7433830570225908 1.8335984174209519
P 0.10544450979649969 2.7611340274862077 7.320128597960349 -0.8906108517957243 0.48313625214754863 -0.8109092248990228
P 4.634645977683829 1.4572644008242228 11.40492440122455 -0.8284441484589927 -1.6308615338369203 -1.3612705687428168
P 1.9374131734979751 2.6052577433335546 0.935382248624871 1.2854415374276442 0.639967117228085 0.2654563741004396
P 3.0458896399335242 4.351725746210556 11.303284561273731 1.5963406172419152 -0.6693386284116667 0.6761183703376614
P 6.099289359158796 4.572430308339228 12.24598585974203 0.19449598373147794 -0.1446932012767379 -0.18739896767538047
P 6.4379265130583745 3.7545714364415606 8.891004953915562 -1.3296619406986003 -1.4533970516664325 -1.3553642305607112
P 1.2401837797004212 8.066696028880544 1.4026964643444226 1.2992527322791236 3.270805746701399 1.1819718615770676
P 4.594866904328039 7.071582430158081 9.317271248718189 -0.410340608342061 0.13769311580982094 0.6337352773857602
Ni 8.179824791877554 2.5814914325574265 9.165497415610067 0.44904008179478794 -1.608100843101637 0.10085203572207146
Ni 3.8589727756232217 2.510361055624617 2.1774510394991435 -0.5960274784223412 -0.8299870674660803 -0.3190996133471924
Ni 3.334166187310637 0.3576249192111453 9.070408762033946 1.4016587427518763 1.3938629008565413 -1.4889620932552357
Ni 0.45833864090516274 5.48602864492371 6.913584220858907 -1.6679934056922112 -2.0257739805493693 -0.2233591878200734
Ni 0.18589319084803504 2.817749912022249 11.61080732556896 0.6252007575521878 -0.3851039452624594 -0.9714087970803981
Ni 7.334144915521306 3.5008300167801143 6.665913604694767 0.906288410431981 -0.03270237532902755 0.38969233596409014
Ni 2.1239290828907746 2.1606928875034934 7.583574126312616 0.19252908981309422 -2.515450862028913 -1.152328841899654
Ni 1.7925866319441526 5.528645067438351 10.058063784502199 0.5929272422304627 1.183790145732729 -0.22320055075502207
Ni 5.226266051964765 7.874552242113256 7.4379263454147955 0.3795123101072948 -0.7053140180650112 -0.1900816567138662
Ni 4.112929571623459 6.7390507272537885 3.511182127325035 0.8612437114875168 -2.3694209442186227 -3.4681499985149493
Ni 1.8748791217395098 3.1684668692713966 9.891350324832914 0.5512118647695474 -1.0906575901421023 -0.2669136753722564
Ni 5.727755810556089 4.058111611306889 0.6637870668965345 1.1117421787265434 -0.880964844065528 -0.3188995815212443
Ni 7.99019060766661 3.3416294456591693 13.147241259276074 0.3750542743359412 1.0156523402798057 2.2357246082730207
Ni 7.602906493766247 5.947336670047592 13.403176708336593 -1.3248758321638667 -1.8578426346802972 -0.5669866111053009
Ni 8.606035837967184 8.522488546893655 9.82485147560297 1.0329404379362919 -0.055609618944504224 -0.10362677025373121
Ni 9.108639935007034 4.620459231889567 3.741049548040958 -1.908667173531332 0.6200135569242935 0.060441750225824944
Ni 7.654606179264674 5.572151087874086 5.576783551995815 -0.39570794603055076 0.9795687071833711 -0.11025301732099721
Ni 6.171150142805765 9.1742173480745 12.426376653343395 -1.49023427509944 -0.15675861708170422 -1.5894225499658432
Ni 3.5696755316840134 4.658974139778541 0.12960130723904437 -0.9131427143496531 0.38910303911952343 0.0841357514086551
Ni 2.950403008340072 2.8674737537169857 4.783251905773997 0.7373563912125365 -0.9468619609789695 -0.23846107645851838
Ni 2.1525273150067306 0.8039792714908985 3.5031645090088332 0.48893897487225474 0.37932641934873385 -1.2371297376961339
Ni 1.2343217976098553 9.102188009031956 12.176938078363442 -0.9913263619399315 -2.450059738217613 1.1795066878660267
Ni 8.123527289755376 8.027197881184048 4.647692165301363 -1.5202117952981367 1.5623447199124447 -0.4164374652684183
Ni 7.3527983792983145 2.9902850877709355 2.037011620324602 0.3915638419551902 -0.12956791559952524 0.7410394964910786
P 7.867463551310448 7.789169570065684 12.472934462857907 0.6481473390460322 0.6361148333615303 -0.6240638157342672
P 0.044581029291959055 0.5204831424160763 3.6453718869991873 1.3060507290375636 2.0037933625132203 1.954755997469595
P 3.9571375651685936 7.4861069688211535 13.44548598546374 -1.8424137017197366 1.9916220172580086 0.17785708962321625
P 7.302812340321571 0.21649910500906655 7.207579478240347 -0.9059857915898979 1.0191624103155932 -0.38209472612249035
P 5.70642418882716 6.6382265081337835 5.0428056773262 0.5253283121345662 0.04704476009362865 0.9749926577769144
P 7.329631376595343 2.7882995387397735 4.367497849142089 0.7020962824586618 1.2203435193767305 -0.7240635307583724
P 2.727582139578064 4.015532645546819 7.9892279690741015 1.447911860182145 -0.0784520707603165 0.8809895266558762
P 7.507241942588577 6.188548805304602 1.8389543484292106 -1.3212616324500472 -0.03317391564880738 0.34228582165566857
Ni 6.4176249520801845 0.4455780610412422 4.772274267427718 -0.07105320719308408 0.2511319870579675 -0.16741789656776326
Ni 8.549719607467722 1.5071474337258919 5.530828796229916 0.34819961603694227 0.014328243697214032 1.0190017163680127
Ni 2.928228609633267 5.970878240296286 7.777040136516307 1.48050882028156 0.7472060303131067 -0.28968799295429465
Ni 5.2856631005278 6.727055201602008 11.968765609895799 -0.5951165365722977 -1.472948748546115 -0.21539699555020325
Ni 3.7323314884142538 7.722805565152201 5.333799712247535 -0.48981623527088547 2.036102359058571 2.829938944746023
Ni 2.380189469297209 1.0618802637475997 11.051406615152256 0.8535196033703816 2.0499120112481535 -0.5863403330415644
Ni 5.36565199991696 5.407706571113017 7.223286031851379 0.41771093266420317 0.17293651239314733 -0.275270531977384
Ni 6.325013126400157 5.106779004879106 3.4075280503970924 0.2574026505580277 -0.3602596325252698 -0.9616077518295761
Ni 5.25330982876597 2.6676606964510174 4.4003221395926655 0.2531760140711898 0.1359473367633078 -0.24112011134792025
Ni 8.41993195287468 0.42104856889070313 12.042104062510646 -0.21931355699579003 1.4954600422747535 -0.37782515221285895
Ni 0.17563940428386615 4.391532912132274 8.890059170862612 -0.16557904358681164 -0.04820201362652344 0.42671313616281353
Ni 7.476405669386926 5.587779918719379 8.721975730394844 0.28069735941991014 1.9505103348193635 -1.1578119765014125
Ni 0.2950103354303494 1.4792140590035943 0.3022310612930257 -1.1054722865574316 -0.5373731591142422 -0.5169357171954968
Ni 1.9950029336528965 4.433315921857681 2.920724148854705 1.5261338172095265 0.06318383174733634 0.24763991474430902
Ni 0.28467414400612145 6.866516063063347 13.776293741238844 -0.012866828660339131 0.8742149269362041 -1.31189793184696
Ni 2.7696648033400506 0.692876918916252 0.0898699912453347 -0.9561063623953726 -1.0913978107422366 0.8754809381328211
Ni 6.184053994755925 7.953033507130882 3.1234138848718263 -0.20790274405568712 -1.9197874518142097 0.5364164516279278
Ni 4.33707079098414 2.5802272670906112 9.235613650912832 0.4200794328963798 0.3296861306137871 0.08004486916873312
Ni 5.06216801018349 1.20679108299921 0.24096211142023985 0.5327760266618631 0.7171616614322165 0.10080447031358769
Ni 0.07338433713919836 4.65121122739343 1.1224234890005471 -0.15620634412266002 -0.12625479206589224 0.6249999543952913
Ni 7.722552732058838 4.440076866057983 10.700272951508493 -0.4071395849062601 -0.5716703897342155 1.608944936269487
Ni 3.6231450488359807 8.373317021809445 10.905771944118538 1.2394869250744007 -0.5845585585507932 1.714940720976027
Ni 2.5329662070090033 6.238525480092702 12.325696642728492 -1.1233337402188848 0.6801858555388157 0.2831833590665575
Ni 2.28763382874904 6.299111780613407 1.4635627541055563 1.5684001820779054 -0.8408849453255066 -0.7723316217361408
P 7.3928302857474675 1.2376835413327198 0.6905171433781968 0.0078043265357672035 0.6976845265442113 -0.5268542618607893
P 0.5670671716587894 4.986289989608641 12.776221804629872 -0.25683957896570603 -1.2203648595329692 -1.75568730676577
P 0.28072713849306463 0.9908154361352914 10.108595755676832 0.6357731337513953 0.8226167431439382 0.8734968178232569
P 0.25782046023437066 6.887510574001125 5.2053661193322815 1.29095938192208 -2.321911328673433 -1.182598696527789
P 0.3761304288075933 6.773098917160015 8.850436479457162 -1.5736796853092898 -0.1682959282973424 -0.33372147702542526
P 4.281241498294118 4.59289106052435 2.209782773627094 -0.07195797839554059 1.630514949130779 1.4271324615429486
P 2.8910059597770372 0.05183827549034341 6.987031298062014 -0.07086500244167795 -0.9797808231941773 -0.39602881970507925
P 4.201851906978114 0.7944680650861258 4.038266086315616 0.6564484027125598 -0.20456648059360255 0.14294176580326995
