# total energy = -340883.1459907944 ev
CRYSTAL
PRIMVEC
9.11747071099569 0.00000000000000 0.00000000000000

0.00000000000000 9.11747071099569 0.00000000000000

0.00000000000000 0.00000000000000 13.34433999360640

PRIMCOORD
 96 1
Ni 4.9971946159363325 3.286784430810153 9.868219846307795 0.5270110991536279 -0.6995179802085243 -1.0903775970078382
Ni 4.398058251840976 0.5879036399682364 6.743282376372445 0.4702586248539321 1.3973336330139614 -0.8966472877977912
Ni 3.1244296268072 2.160038261691891 4.8185879200854975 -0.18694362530551675 -1.2795663095937897 0.11583668205636179
Ni 4.216255882445857 2.888132133947958 2.519037765939426 -1.66115632816572 -1.3606349920413472 0.57974519632255
Ni 5.496275854568197 3.1787697532663226 0.406917284217093 0.6141776669688067 0.8798803527520975 1.1650228924275547
Ni 5.063515099134933 4.850102458190523 2.7854839997655105 1.7558608562291567 0.8833873374640915 -0.6605603679984043
Ni 5.515285781358008 4.636899519076409 11.725258109911872 -2.1879416844617863 0.24390101652716703 0.6669778414889739
Ni 5.718340975380009 7.773200092972497 12.438165922666206 -1.1063192079387592 0.26035401987686774 0.5749498318164357
Ni 2.0333783561935466 5.7490577347828244 11.976851983670521 1.185125833825017 0.7700482250186028 -0.32406364222068706
Ni 0.3269379178895645 7.502110331226005 11.389888354950259 0.20120270632769222 1.046462383682127 -0.3666575656318137
Ni 7.746276201456761 9.020953335642014 6.948251327532662 0.897294691573803 0.4653964116656243 0.7058997153651521
Ni 8.811999137959099 2.5137049572203085 1.4007289043757405 0.0011369418179206225 0.8197319653969753 1.5917535120918649
Ni 1.8090429851320176 0.9002226050449558 3.0493016667361985 -1.0851207194842734 1.7792362977303036 -1.2367551279655344
Ni 1.132955166789178 6.918364257980144 0.574642278569781 0.0739014752751566 0.13614196927261712 0.20609860096741284
Ni 7.927239763530698 4.005250253814402 4.273457983014967 -1.2278796798527758 0.944464150170754 -1.6420270635354366
Ni 7.743139791473214 3.948949871115562 12.384975509285356 0.45241336914239505 -0.10337891590898324 0.9562662850120047
Ni 6.808599026026893 0.9094777497376831 9.448766951374486 0.026377718662580377 -0.3366417359960138 -0.9987162266460992
Ni 6.878767081937868 0.9532498156970124 0.350682547308607 -0.6918818038195053 -0.3548328050827438 -0.11398523066991983
Ni 2.007876790135465 6.719785742161404 9.66136904915745 -1.4391130309435927 -0.37822958674012924 -1.611530437608476
Ni -0.0782306354122836 4.953494577996975 1.279444659709661 -0.3326120460113304 -0.27521705303162924 0.37150589486305047
Ni 6.657404006384001 2.103810818760111 7.19166500641562 -1.6422772318730297 0.37969614398332674 0.5875148129656398
Ni 3.239938865416365 4.613567911088339 1.034262191475517 1.0323441991131899 -0.7407330209942534 -1.5444986928699593
Ni 6.303700840972055 5.94594951848832 4.623279841072274 -0.7347544348133153 0.1097997318336625 1.2356546958125043
Ni 6.1888936476208345 2.1289476859828964 11.603784221851438 0.7578727659983335 0.2559854584955269 0.20228488364827743
P -0.17683061252294405 5.76959939668088 12.581404125470025 0.7247428162135842 0.3819839115762389 0.6402959613224134
P 4.140580874121912 6.025782093534642 12.894876450613369 0.2777971550539796 0.29209531684420664 -1.2844496058280201
P 2.234227122262005 8.458624201498917 1.4888547309366962 0.8519319471682876 1.8814551318929147 0.15776957484472182
P 6.349561719510542 7.965104620105318 5.765208422703914 -2.7817438730980353 -0.8406638304536361 1.3084572815965272
P 4.703867342707659 1.2129609737822655 13.137356500477969 -0.2495471590693509 0.03710461816178126 -1.7362734210155326
P 4.020476430188015 6.397437559114041 8.611609892423113 0.28098558008429025 0.3930615095466392 -0.014980532569232265
P 4.916714700457361 1.2769473844349708 4.092788915250531 0.6046008219136492 -0.3353800956747708 -0.8738356892199143
P 0.11329004619638837 5.91783123828699 4.205869259616624 0.12821654377795338 -1.0562577725059938 -0.1437084687659654
Ni 0.5494297363386716 0.25070218510635073 5.117047417673875 0.2864394041100099 0.016377412916758892 0.3851697655033883
Ni 1.3988206177200535 7.006976957486221 5.731113640339168 -0.06174967040397107 -0.789717421312756 -0.9079863669596943
Ni 8.072690776517675 7.598445528569476 9.099812164798095 -0.7616288906066561 0.16507253626403828 1.0131447433666034
Ni 8.690390311329605 2.55498886537583 10.457799277424218 -0.40593245197203637 0.7489944896720971 -0.6126427183815191
Ni 3.5099892354822635 4.572010478806345 5.214087395516556 -0.2710544370135074 0.9792138949471135 -0.04382419627380194
Ni 1.8216615648332635 1.3463313378500585 7.179629033103759 -0.2904922340231449 1.0819037552088722 0.7184366714898981
Ni 1.435290501249666 1.5630992080791932 11.659470087012803 -0.046254660092165494 -1.3592180570891623 0.44573749978411625
Ni 3.831042737664325 6.745670241996547 1.6191224196632075 0.5919679636409869 2.1573959504644455 0.3488040823901606
Ni 5.6075454692170466 7.9644572796726685 8.086936824771431 1.5957778027599099 0.0019954331634739826 0.30958473187822166
Ni 7.052600781781766 0.7018492323210695 4.618102941105246 -1.7252814407804031 1.3314997652382876 1.0275305797746304
Ni 0.962741102885594 8.202587384179273 7.7842604968999405 0.3041170238954311 -0.03822613336073416 -0.8778928900084235
Ni 5.299274661212114 5.482909642254595 6.948171093788896 -0.9617537904891371 -0.9321269687616399 -0.11200316724288452
Ni 0.25189383855068076 0.42170399849417445 9.455986164819173 0.2779136260271859 0.5967090778703982 1.0486969294396005
Ni 4.668974781640702 0.3597206961943332 10.825355528094887 0.0963700886913179 1.7698844242017582 -0.18133810619328122
Ni 8.044417499311344 7.791517091975246 4.664874654984886 1.8528071291389188 -2.4302439890432663 -0.10683087901332569
Ni 7.552484357851283 6.332147350125152 7.158864904916174 -0.8874108568011878 0.7484900392318528 -1.1784288814208157
Ni 1.9833599109326832 5.525515583688065 2.746892480761563 -0.4895776368975181 -1.079644012640418 0.9565722462881978
Ni 3.262322256432665 4.722986679148059 10.007400774568945 1.3994069706032222 1.2334582023818177 -0.2765254874304076
Ni 1.0745577657873862 3.470218827493221 4.2421659111994705 0.9848831774177489 -0.06594982452824771 -0.5388844535524461
Ni 0.2872094502665811 0.48784122052803847 0.42408183490030515 1.7101569264341385 -1.6281307651693187 0.4216768592904867
Ni 2.626852770870931 5.407234633930649 7.374189479504624 -0.9434799318806137 -0.5368833639620173 -0.07217703638488214
Ni 5.354572122113889 3.226800589874822 5.038355438234943 1.4946835691200453 -0.40583886381696554 -0.1144580565412803
Ni 4.078518249825393 7.370226114912044 6.331489068727443 -0.6564067508413469 -0.12121388720787511 -1.6218642154343164
Ni 0.9801098849165719 7.558948644706906 3.0346234503626177 -0.6518384147443742 0.8096941215449991 0.5191157555659511
P 0.3344014795538997 6.214349626324505 8.184604084610822 1.1772873116172047 -1.7468604525027593 -0.06020083785961246
P 8.85059339220431 1.9097636859699252 7.961287135046856 -1.098716970111469 -0.8640860660323183 0.337425922460206
P 1.7613950823005788 3.490942838808923 10.556600750641378 -0.729911247788401 -1.3327341518660207 1.2607391495849578
P 3.86444915097745 6.138200509514673 3.883403461194878 -0.19046629374679458 2.5210977759020454 0.442176007685103
P 7.039508093594636 4.052451400572603 10.247238581371823 0.003473046150264986 0.019018707194347888 -0.11974193064803895
P 6.378382044969819 7.963244656045308 10.406303801880405 -0.23046006053091278 0.1613819747863285 -0.7483116046724596
P 2.369694504632751 8.847867268410472 6.053059742920616 2.128628134303134 -0.9821616647215278 -0.31917494666981805
P 7.024892787770143 4.11951951638356 1.9768974475712358 0.053351161927630696 -0.08458132358650595 -0.5052410544663879
Ni 2.4470744800117066 1.6475634583337757 0.5919445030633175 0.7575572916404437 -0.21846200762877216 0.9692912365167629
Ni 1.1635351641287583 3.462377802534354 8.444178480632837 1.183976550711922 0.5814727205366179 -0.5642756399320411
Ni 7.8216594507124695 0.284534384309684 11.464589617383965 0.5857132409805268 -0.5077255114511384 0.3370996494690388
Ni 2.500466389499059 1.573821353836899 9.55352030958368 1.2693194350548012 0.35281808864556014 -0.27274956532774314
Ni 6.627115768112659 1.7342888413671942 2.465646768199161 0.26735950466042346 1.9231386276746298 1.4736712285344362
Ni 3.9360942371713743 7.371739615078523 10.73895108003653 0.8017810373455095 -2.5711072750509527 0.6203418867979896
Ni 7.25168987596992 6.076001123154919 11.292140861367104 0.4891081534602673 1.507789510374384 -0.31869260771676083
Ni 8.004829440739949 4.038437847826349 8.25548968548024 -0.9888843281573421 0.2698822710822771 0.0422913045690433
Ni 3.175514816161305 8.687427133292825 12.723347647408541 -0.4613302120160506 -0.3393336810058801 0.395466519443706
Ni 0.25739532048112285 5.139481866527116 10.281400833021099 -0.6074071810141927 -0.5860562261422423 -0.2820255913130304
Ni 8.402688517635374 2.26911056585808 5.777031958944215 1.2000629147508235 0.6071143323641222 0.6516116434455488
Ni 3.800380683086803 2.8379313392694465 12.028788744805043 -0.5906158204884667 0.21069084832378554 -0.6727918770675897
Ni 1.728134548521572 3.659643402546029 12.801999509975593 -1.821717606822966 -0.32854018993480194 0.6076411514018696
Ni 3.363161484392043 8.580588609492825 8.554602905730887 -0.718134309758131 0.19413551506826565 0.3580528546819382
Ni 5.481441729442528 8.24411746404862 3.595405349696969 1.4035089085867378 -0.7521638885390143 -0.13634791463583615
Ni 3.2587117379632335 8.441957464725885 3.813251816731492 -0.8029416333125139 -1.1447854823347574 0.9541384400357245
Ni 4.191201072461014 3.2074715516041277 7.418572416013074 -0.2876041138420724 -0.20938164259405875 0.048083742881104286
Ni 6.041883547112967 5.76956292679735 9.218710367334248 -0.03155643465004243 -0.15532985505497762 0.46493695553070247
Ni 8.199058922947783 8.950575577900743 2.6298095666780945 -0.004946031151365675 0.7329330653338603 -1.570426725589631
Ni 4.560239823897162 0.7048187925874683 1.8549831856671821 -0.6724332081765904 -2.383454539493553 -0.1548745126851139
Ni 6.5479396509698695 5.815724681874957 0.32303199336354305 -0.27279867339812375 -0.4588467834725646 1.281704181872399
Ni 7.954728938241144 7.9140376656929785 0.0767809575419815 -0.0750957526935739 -1.8839146491770005 0.24982252421792456
Ni 0.209872327000773 4.948835550376066 6.363661888230179 0.7700127437949771 -1.353038924861644 -0.912544675754338
Ni 7.339235831382755 6.670587869279957 2.6208015054462805 0.3546451145519699 -0.9365096712103678 -0.9081424329215843
P 8.842196201521617 1.6453114430258222 3.70621726730752 -0.1083725124688327 0.9474872532677939 -0.9374288405905274
P 1.8283446709900648 3.329864480729507 1.9480999157891654 -0.4935620754665629 -0.4783316316700537 0.7575428934627405
P 4.807687983645584 1.4564430336968412 8.820395416894703 -0.6840407105085315 -0.611624818639966 -1.3890881051757173
P 8.585174697346673 2.0285825665094026 12.653223355357802 -0.09967498469483478 -0.38080223256331197 -1.0993808289477132
P 6.0810886719073 8.015469529259715 1.3085084216414975 0.9194915393858164 -0.19412934442067858 0.9387372749893058
P 2.19520434688532 3.2888996840548703 6.363021841774235 -1.193067971490229 1.6681304454907078 0.6275913692715513
P 6.930481376782859 4.301431295429268 6.217901792980289 0.7376834355346522 -0.7036302026046849 0.20729699215088815
P 2.119821097629611 8.641037441443157 10.534862876563553 0.08315333289072777 1.66054132028954 0.8691976762272708
