# total energy = -381169.5069087244 ev
CRYSTAL
PRIMVEC
9.23179026778422 0.00000000000000 0.00000000000000

0.00000000000000 9.23179026778422 0.00000000000000

0.00000000000000 0.00000000000000 13.51165822056357

PRIMCOORD
 96 1
Ni 5.661995340936235 2.7565940582129533 2.4712145006026565 -2.8325658408459087 -0.9021985566333236 -0.8442764875055588
Ni 0.41958209019337467 0.895771670879486 10.589653477992622 -1.5374559270905652 1.240389382284012 -0.9008320153031001
Ni 0.9065091659367451 2.4096172275646106 12.18143565300153 -0.6752704205150694 -0.3582145770707831 1.152162748635435
Ni 4.614011761360095 1.014786062401431 4.014191894105498 1.0333700692745427 0.8730119077670385 0.4082312753085421
Ni 2.779055003509413 7.7541497707800735 6.189960493180364 -0.46932222908259175 -0.3775240760326724 2.838117366791757
Ni 3.025349931402645 2.951421756337275 5.455561436306894 -1.2954968647811171 -2.175661324432537 0.816392102390465
Ni 1.616181796224915 3.304666972458818 10.202368805439882 1.359189517844072 -0.036996631829007254 -0.645733587398217
Ni 8.59743686862239 0.564599664870493 2.622072105692656 0.062442325595621496 -1.7412675317960142 -0.9157310439021197
Ni 3.989887360327452 3.431936430681994 9.564497345779637 -0.5079821075466349 -0.6057583325568601 -0.7321702190259068
Ni 2.3903320180601706 3.7885697137676964 7.743044850477109 -0.9813376261583359 0.7788897345696328 0.25847120103185806
Ni 7.810315981706361 2.5896555979598213 2.6484473299885805 0.034457410346921305 0.31339896341798934 -1.2160726599155185
Ni 1.1190037407621904 8.443589086721243 11.762641034503096 1.2628736794294573 -1.3881990177025447 0.7573210072599216
Ni 6.181892831818024 4.061359879228063 9.827190702415203 -0.5531579327523247 0.27371090079974797 -0.48268193821894934
Ni 4.965198288290881 6.101363926836104 11.731537287321496 -0.746174760835115 -0.3899517602730639 1.5754128659503124
Ni 7.006171673858694 8.301798022681655 3.695452339814854 0.06460590890584357 -0.9440440319141999 0.9053980374072279
Ni 3.1606141198464264 5.524155483056484 10.391248461207233 0.32498718247622094 -0.1316538515942765 1.0930014077839305
Ni 6.000183507415966 5.565236948970682 8.174093747145095 -1.3378609315696248 0.7264032346351426 -0.4000798498460013
Ni 8.046225145744879 8.785691532200442 11.951817953911446 -1.1523059590815186 -0.15992621617640845 -0.6265816970601145
Ni 6.487935905193658 7.0398584759083365 10.431404901754103 1.0240727031330168 0.6481511957007741 -0.8592230815130621
Ni 1.3805403540990948 3.8853927282639 1.0441311535702986 0.14182822102411705 1.2784789900668818 0.34104629282161264
Ni 9.039574991550184 6.968976791573683 5.631510123690871 0.13044980398384629 -0.16021392262015635 -0.46259313788887424
Ni 2.940288217485023 1.2582837578964607 10.837024832610707 -0.6564016086350244 0.5480121268853272 -0.4943331493046325
Ni 0.9330662564975031 1.739019995203413 1.150097332974687 -0.7998406257896871 -0.22756499837130487 0.6676262737062503
Ni 5.633395255227878 8.546015797803946 13.2043484602219 1.483870023444309 0.5613247848338332 -1.453646191562761
P 0.18856300536715873 4.188777046092728 7.7197779699055245 1.7449570648324593 0.8945685508918917 1.189044452153133
Ni 8.014070820850689 4.080986664965947 0.7714129960726579 -0.9524872775855469 -0.02904061020672418 -2.0513721407334478
P 4.384611009337195 4.615488847774986 2.0268164354600784 -0.8133075499278704 -0.1574142483878321 -0.5207309225718709
Ni 0.1537370004200307 7.017092881538805 2.8186935406320623 -1.020181852719043 1.36873113878592 0.44789208423327376
P 0.7519902328958308 8.029441751355664 7.498876003842313 -0.27890324363396485 0.17065902921288026 -0.35065527666628643
P 3.431724099509853 1.965069607422525 7.531411601667347 -0.021220085721040872 -1.4767655511890438 0.30286695353841386
P 4.5025102006158955 8.279770971519572 2.338124398725795 -0.30613945364209855 0.09979505521246684 -0.20950556976643273
Ni 0.02066536212335547 2.0254639782114423 8.053812754022381 -0.30021794595134105 1.0021913296788934 -1.2360082224971811
Ni 2.2743253437505504 6.426498342124224 1.9884435767591895 0.5385656367604467 -1.2461388831732796 -1.0210889379143446
Ni 1.9937066202912532 6.643768521964818 4.234635040201084 -1.166870744269571 -0.5087400687585819 0.6115937082917144
Ni 7.988046404578302 5.51754552134984 9.515665792082299 0.40279827721842887 0.11913746429482064 -1.5699685550062896
Ni 7.4530918640547 3.6644852231266327 4.621905865068685 -0.4695669981035462 0.010860339753271619 0.871305466598893
Ni 6.518216176698954 2.126395139299066 10.876182393469506 1.046166706818579 0.28748532887602096 1.4792651776824457
Ni 7.405954343839444 7.895470013524914 1.173838727557056 0.7470455934758425 -0.021142952626202298 0.2164796870914207
Ni 3.624511572023604 8.307937163093554 11.523930945350337 -0.933327159717328 -0.6233331082158297 0.42781176854363095
Ni 6.0896026262575225 8.590586880373328 8.094415090030747 0.2270518061803122 -0.4630875610267896 0.7097453143634873
Ni 5.824576396265433 5.266330049336997 5.689988898035476 -0.08415220646888733 0.44241306339657355 -0.5637809596838097
Ni 6.492090210735543 4.719364949902302 2.7068984089629047 1.3156206321141857 2.861534717274433 0.2421503523846475
Ni 8.280564905467577 -0.04368298436242726 6.185150730541871 -0.8911135024637555 -0.2767234623738266 0.7994888988772231
Ni 5.058014705886689 0.7509581187634246 6.474826763261488 -0.9860478871498115 0.2628022243070442 -0.6998555660536012
Ni 7.385653637424765 4.731781707577492 11.735307550395511 -0.05006632052877184 0.028257966404428753 0.4382095668381872
Ni 3.1573922251039424 8.548231427426284 4.297909729499042 1.9973882303178248 0.944499888504696 -1.1539951738584835
Ni 4.128234966662321 0.7637035281659283 0.8104154628578946 0.8432850701265671 -1.6709488887761093 0.6907394626849458
Ni 2.204172970833249 7.697374261707643 9.327962266372806 -0.7404478856536667 -1.4990845264012183 0.8403714960241978
Ni 1.434795584476115 0.6718047505053725 6.283758250063067 1.3866473569447086 -0.3949908653588681 1.795988577487978
Ni 5.065326283640407 7.589583880580862 5.9833271818850156 0.5524184834831389 -0.38084491287578925 0.08678013101003763
Ni 7.041437112014253 2.0409549219876273 6.8184690713282095 0.40158934451199224 -0.27411250711354085 -1.0058011585173388
Ni 7.580647507770762 7.057712757948349 7.529574475438825 1.3299280498757935 -0.7606382445586126 -0.6752508801310436
Ni 1.5458447875057526 0.5346461987344916 8.6664989671297 0.9798520427517446 0.38399811379279025 -0.12389066270908985
Ni 0.6410711981065059 4.622985061330566 12.36641026155951 -0.16069420469068454 0.8779952199142427 -0.4325595676412615
Ni 3.305276270604961 5.069665224984153 0.1091566860605562 0.3149637368019479 0.15399879494837995 -0.5069608653709721
Ni 4.964810553106972 3.4595579466404836 7.261813789221168 0.45759722733617963 0.7233307663574058 -0.3603773890500568
P 0.5754710208841017 8.768391157566013 0.8530423304336737 -1.4567453993133752 -0.5629880314688691 -1.3354345815163196
Ni 3.262634632165033 2.6383625224909015 0.10027847352804294 -0.7478760597969377 2.047290771575222 -0.044682173398723046
P 7.847049274486718 6.259098292366437 4.021501625501198 -1.4344796459366393 -1.7942242864987035 0.05692730931466325
Ni 1.5370930504975144 6.039954059136947 7.060922651363713 -1.2904449041795065 -1.1433163539883986 0.47226845619510927
P 1.993420434798368 1.2706912837815576 4.343646787157179 2.6358108858769254 -1.1246802269444502 0.19226015242242372
P 7.9106932353884 2.8027714722585304 12.568125798272279 0.9900868331058755 -0.8920588970961605 -0.6145653893255286
P 1.9021457261481043 6.381484133630374 12.289339585146458 0.6501031772208223 0.35114944269388554 -0.09827733301635977
Ni 5.531319352168713 6.396541183272184 0.9092870115757524 -1.2846159562025554 -1.211076492252508 2.50336462028834
Ni 8.937259061948598 6.711576020198477 11.309906662906467 -0.38643063449368287 -1.457532928211677 0.9474530575957488
Ni 8.848827744647002 8.086097247156886 9.38849419083411 -0.629616113011064 0.5745973335730233 0.004760911723753091
Ni 6.09532633611523 0.5995715321010917 2.1173849121682218 0.7492567421945483 -1.2168517041733882 -1.0765553464127653
Ni 5.656003909165827 0.06450067102231852 10.809109745727257 0.09466107642001116 -1.0972239305057103 -0.7510791401152679
Ni 3.5967792745839975 6.002768408642028 8.122276632531658 1.2383600105588093 0.07119770319074836 -0.4272245285815933
Ni 4.481350937722561 3.6118455560159006 11.85931726353682 0.3818795247878907 0.45841766635494596 -0.6402532810099361
Ni 2.275110045908462 4.3370857539380285 3.4057347640398192 -0.13909282437082496 0.14873626099785997 -0.5266904825894155
Ni 5.753140804525194 1.5659793216987559 8.648177556510976 -0.8734122285292507 1.1081817150687947 0.9992499876623824
Ni 0.49105368591497645 8.957125874228902 4.319488115662603 -0.2308508682114282 -0.8741750748372041 1.4893827257324221
Ni 9.22554017118515 6.371938462674131 0.6776567822453747 0.648558972662154 -0.16610920505866877 -1.9946806015786742
Ni 5.973272839294643 2.443608678687325 13.550436269484278 -0.11199416838182004 -0.26367074295492654 0.15778423013274118
Ni 3.6893925927977573 7.518268302111833 0.2548343337293296 -2.377131168378687 0.3680552173102887 0.5396555273905157
Ni 7.566522868928352 4.268262758794131 6.939438755991869 -0.8550632937084177 0.79118089323216 0.027200728784507994
Ni 9.092039254649148 2.049678963625586 5.44977864299259 -1.0413870260417484 0.8011968827072654 0.23740795260365566
Ni 7.900427484804896 0.9000958413590838 0.3036741960377503 0.19148676459150893 0.8512104956212309 0.06061015748288917
Ni 8.605883956557557 3.2500332386879816 10.013192809210542 -0.9222541897326182 0.020540800265829138 0.5427279956682525
Ni 4.746986465860791 6.351748537740569 3.4092613078553753 -0.4975920225615624 0.7636186673431752 0.825883586820668
Ni 8.978211282801492 4.739240993972699 2.5563242198287623 1.085040501065641 0.15215531398173796 2.945504375418869
Ni 0.4645325993355815 4.507929261400533 5.330132797028279 0.21563790791641574 0.1457617517505683 0.1094145805801019
Ni 3.8161266071955344 -0.015132750320573726 8.683753182813662 0.45485154627024244 1.757225340676851 -1.102514232370372
Ni 3.2482145760396453 5.243795249719794 5.442468911596892 0.6536703257467904 0.8554487020722945 1.7110920366538984
Ni 1.8239801594300113 8.650768919990103 2.536097367734828 1.1657834247426633 1.113563291095682 -1.9455936142440364
Ni 3.146332540572434 2.0425243263034507 2.5158972878321637 -1.0352166355649783 0.9212522308306651 0.32121845946240807
Ni 2.1559184040167296 0.7290021523850568 13.143883927828275 0.5136948416606959 -2.019306884767787 -0.7568862337153481
P 4.43519198725717 7.517548222484573 9.718706090673424 1.1207125005459537 -1.93583139265095 -0.4176726232271
Ni 1.0566983894240058 5.553134072158657 9.6363520607901 -0.8406286063403265 -0.4948638249971219 -0.8521772304098743
P 6.827231886484561 1.25300317396322 4.250889453017967 0.25280526099533235 0.5225489496172161 0.9351618989332218
Ni 4.507929261400533 3.8480686009175846 4.121704398350477 1.5885679152750318 0.4951728715971085 -0.475169431891988
P 6.796923919608985 6.442367789294224 12.898066283482853 2.6483213596391098 1.2164369852334729 -1.4053094521305862
P 7.7468474248164485 0.9810900285616958 9.188751487664232 -0.1423082459843291 -0.39314095663432297 0.5588665531013279
P 4.606663256446004 1.3940003040548028 12.133428498159505 0.25919625212334074 -0.21192394939993822 0.8909687493557751
Ni 0.708131844521635 2.4301210333613374 3.396898094562725 0.2705494723526308 2.832186088908987 -1.5115554051747193
