# total energy = -340854.94750962534 ev
CRYSTAL
PRIMVEC
9.39099573666577 0.00000000000000 0.00000000000000
0.00000000000000 9.39099573666577 0.00000000000000
0.00000000000000 0.00000000000000 13.74467151700612
PRIMCOORD
 96 1
Ni 9.197757183535312 9.342087396480846 4.084778862151608 -0.04969582456323054 0.2259295196504109 1.4403001092731582
Ni 4.540349211054334 7.354764886003 0.8806086925787936 -0.3166254407750869 -0.061022819540275546 -1.288912269585064
Ni 1.4965960300647472 4.586778293805503 5.330197686570638 0.4175651511149583 0.46258439613812596 2.167268215272835
Ni 6.297977357654579 4.885205355226754 9.289019818867864 -0.009946312579434484 -1.2424915162286794 -0.8843658993272769
Ni 8.223694936326666 2.1993430204440974 4.418224946545979 -0.16723946200837006 -0.530764395548473 1.0203757138974041
Ni 0.9587079692357162 2.310119205746038 3.838199488001637 1.7407227150361375 -1.4143813325248673 -0.03733216079155506
Ni 6.348491523536161 3.255304141170734 11.958922156454806 -0.8270472681114659 -1.2161533925547827 -0.6057819867059439
Ni 4.054881688234411 4.607288228418884 4.985948200720573 -1.0581927847451778 -0.6122657946580745 -0.10589808278641116
Ni 4.133230765377008 5.81888632091638 9.549206745790173 2.1951438586371808 2.135288319932129 -1.5605300353012093
Ni 8.08007843905449 4.283571215571885 12.959342111300526 1.9733543292970723 -0.49226855346611986 1.3397411793114733
Ni 4.717970503763803 3.071653829220518 9.581314560095644 0.06021343626510275 0.9849842217719876 -0.03983127306432495
Ni 3.0971691645431165 9.25596257489691 1.2859034068907715 0.28364821451811795 0.8853791710831397 -0.34458233099932917
Ni 8.169499500129861 6.510007258616534 3.2332418749677965 1.9311789814806033 0.7187112653075235 0.43313009543275083
Ni 5.258600735337846 6.2598593060997665 7.430328593820357 -0.9630892214711091 -2.0961625575752607 -0.7631944353215631
Ni 2.527793095124953 4.53070465846828 9.784199509442896 -1.9764131707280543 -3.0128017151139472 1.769941759802255
Ni 4.3397857158446405 1.998873435191425 7.262464545645367 1.773230972076488 -0.33144476517610666 -0.4249416460846875
Ni 3.7936241878020613 3.562164316732468 12.208100019115546 -0.8744316709327006 1.1258899309818353 0.1479315057083775
Ni 2.2100487555444883 7.096258947311367 6.074732729625181 0.9408005852762377 0.23006513908533927 -1.163891607036589
Ni 2.4185758151095604 1.1041557106698003 12.320022844992714 -1.8614195533982778 2.178320102211623 1.174570426906674
Ni 2.7593093121687593 9.291338455706713 3.739828808022167 -1.4438461747532036 0.3313869153549777 1.0855372381964012
Ni 3.298530894387488 8.899132911204317 11.243224043902693 1.043373717454474 -2.2038537277063526 -1.3103691539072593
Ni 5.012105880149195 6.640260369004625 4.945484278439376 -0.13863208268432253 1.0984919985848567 -0.0977667119285284
Ni 4.594854550109307 1.439883807019781 11.481831401801152 1.7380827063101294 0.5493992370408409 -0.6294183951779612
Ni 2.380420199571939 5.475063186271191 7.644346568572446 -0.1800101314104771 0.0831042248203472 -0.32086339011583453
P 6.485637624769591 7.119614353622483 0.026523928261003808 2.1491280540286986 0.808078440318447 0.4775032222314872
P 2.947373392098961 0.7954070058723748 8.363138075108829 -0.6467126634820347 -2.0391303472516173 -1.1525599840738536
P 7.292361719562563 8.886060645186998 5.822449264685756 1.6070816578085032 -0.30480659376328795 -1.3629515559896657
P 2.485636915418238 2.053463293207717 0.6536358392556618 0.8552733528366947 -0.13490989663772893 0.40682231077615744
P 2.644025448929812 7.11472164486169 3.606120750315275 0.8697396647736699 -0.5888355886595923 -0.06478845723029487
P 3.0497446362475245 5.623985596115052 13.476155838674481 0.9250988582702647 -0.8433238937843025 0.26209979892338087
P 0.1500051916483119 6.283195930419478 6.33832764888778 0.19732805386363433 -0.6924268776896978 -0.768916939627637
P 8.696099584124973 8.36050296171482 2.1774169236788405 0.5115047759879127 -1.1635092839965058 -0.3395509392230088
Ni 7.879158086008117 5.390271886076954 11.003502913913964 -0.7104801356469829 0.5213137916585344 -0.041262606194212806
Ni 8.087178031805276 4.33449858526436 2.563188697025728 1.4257250396724608 -1.995897247594595 -2.3927231092796726
Ni 4.913415906315854 2.8124341748555244 0.5611495571831262 -1.5529324254596095 -0.13244857958142997 -0.6048142234760359
Ni 2.417580369565138 3.069803803067205 7.913068971488391 0.3593898283258069 -0.4704931094622413 0.3868260701598886
Ni 8.344472532051341 0.9983191891071629 2.221550847080417 -0.6388085781436095 2.8451932998019323 -1.102803738586333
Ni 6.479251747692165 6.351430905190918 2.0876098926801134 -3.2564973004985265 0.0955031127053323 -2.1575790130095296
Ni 5.865259057693336 3.5495991644830616 5.996800612691755 0.8881058259856833 -0.2806701057264005 0.8555602879494943
Ni 6.847857719995189 8.756652724412096 3.4075519025927066 0.49786841615140065 -0.5174725635355732 -0.014073190263614473
Ni 2.516120087467246 7.700804295633884 13.356178355783625 -0.035709537586467534 1.105436805333806 -0.4982785071056257
Ni 1.5848995626515687 5.426446001521433 1.2455981924369397 -0.14349635275515932 -2.630228506693141 1.1846051854348567
Ni 8.471335492990974 4.5401989551231 4.852335931169843 -0.09960839312295747 0.740432201924383 1.8466069138654777
Ni 7.644035726614706 6.589830722084361 8.730188898523584 0.3024290946700469 0.06868213585774624 -0.4381725429526647
Ni 0.617865536626373 7.158399165872145 4.273767955158466 0.8486689601462997 -0.4565603014312331 0.41435384326651215
Ni 4.620980300152541 8.195465603246161 3.066009840803557 0.3603755892778439 -0.5010329299223113 0.056477109151122085
Ni 7.353591011540239 2.6058698333921906 8.383768214467196 -1.177959912204197 -1.3005848208269861 -1.5213525937707992
Ni 8.1481819398861 9.034917318060943 9.200147191941495 -1.7465457494758179 0.02917816422585297 0.11623314616383207
Ni 3.0253092654306672 6.535550766926238 11.445916477838052 -1.2391107726819046 -1.0085221569929277 -0.45375085700689594
Ni 0.13382356695402792 7.730338977116981 7.90527538415522 1.8625143291243536 0.09877098482332666 -0.15709620292678106
Ni 1.2348877618386978 7.47785266667039 1.5022653741701033 -1.087763813534075 2.8302634179649773 1.6337673946298057
Ni 2.9328079577650086 3.549176569676467 2.586595753813206 -1.1550210440198367 0.1247571244744432 -1.3002762884476315
Ni 8.513801575555858 6.2195343705549595 0.5173283539384292 -0.07675848510797749 0.49474452581043826 0.4820471328484278
Ni 4.083608744087126 8.728676948215547 6.1222474114795125 -0.7344890969670705 -0.5045774527404601 1.0304644655919737
Ni 5.609110258922929 0.5449576023935699 4.970581714453232 -1.128000806677251 0.21263125987960796 -1.2135537501484068
Ni 0.37565954917486916 3.893403517136846 7.93970559169782 -2.0699103087469513 -0.13437099341512343 -1.0409607371376073
P 3.268395189179458 1.9545479354775255 3.786959398152283 1.1211416176635725 -1.0028796139951697 -0.3752921013783601
P 5.177396795501811 4.905029747153881 11.134984366539888 0.2597904340639139 0.045105891199702965 1.1392583818689412
P 2.120007888752779 6.903227030654755 9.259427852310985 1.804994380531014 -0.944930291173895 -1.5596800285960881
P 4.701461133319516 9.37627062083648 13.055059834994154 -0.4775207057329841 -0.754838864268016 1.0454187729089608
P 7.057483526057406 7.579341157222957 10.54131097394169 -0.1501915053871478 -3.048532592856653 -2.190142548767848
P 8.720478608967616 2.7401704629278854 0.7185539143451206 0.04823132420256209 -0.2704216885255149 0.2667432112326632
P 0.8555497596473169 4.335193518946315 3.425406063621534 -0.5821190958713652 1.237933207434036 -2.980628729925828
P 7.385529787923072 4.539588540402464 7.168341413021955 0.5421096453579631 0.8425001123314264 0.2649498667776663
Ni 4.762690425297191 1.232511839926067 2.403255344721159 0.3685218725340621 -0.37909039207852774 0.17688109886319212
Ni 0.8735203690228505 0.48120213257203087 0.45417202964268405 -0.05073609290228682 0.4899357915678853 0.07924988407126352
Ni 0.3184223694701559 0.9715924153389938 7.644978582583197 -0.4547864973602619 -0.3149953613708317 2.9884145445188337
Ni 6.345073201100598 4.875945833464486 3.8807256729390147 -1.7680764244587421 0.22289664636135806 1.4269501703288134
Ni 1.0904636389361422 8.06928818499278 10.452094636572623 -1.3279989511738806 0.4025352533650294 1.4033836958627832
Ni 9.41231326234113 0.6080265904292856 10.729887802237226 0.5887345443053538 1.4629294166368998 0.8725221126148135
Ni 1.3048037248408126 3.604564662327437 13.452761929280987 -0.4663302363338033 -0.010402683390562729 -0.4471012129008623
Ni 7.439837916068301 6.818529640417539 5.410012698142333 -0.09672670069978825 -0.557849167580407 1.01830057653593
Ni 0.903513331096209 2.9554026934242543 11.100664033647003 0.29823819651715083 -0.11069139040999647 -0.6915290484657768
Ni 0.38318267583181936 5.494709149279979 9.67733467385088 0.4337836698563497 0.8112406400965126 0.5022488046072834
Ni 6.07603056523121 2.494624098305145 3.987686296687193 -0.6967288474991614 0.7645532633423027 -1.9418164065897914
Ni 4.207278766488047 8.16227782443495 8.792012640529203 -1.799645971734907 -0.47609014393404453 -0.18706035338903912
Ni 0.19089546513438424 7.838711067519185 12.797388755820437 1.076218789008953 -0.661849519123473 -1.127229218618549
Ni 1.2256000670893235 9.219431601615753 5.976815634738122 0.8193087618166276 0.03776847699802528 -0.8571361170770463
Ni 5.2871024072937125 7.051924056601765 12.045774780205653 0.2503354592986011 0.6239738271236221 -1.0643947997908314
Ni 3.8949718134190965 5.605832801422897 2.4963896054971393 0.9756531741790488 1.0831815934800315 0.3356233220338284
Ni 7.275542446260107 9.082041334494068 11.730967004981235 -0.5439716382673664 2.3905273871799344 0.9592726759384963
Ni 6.396723677462133 1.1044374405408632 0.33361324411786863 -0.5744083574906688 0.5118526462456346 -0.3335124463384127
Ni 6.223225031865885 8.099132769334046 7.597353086979579 1.4895336494879896 2.9166761383332673 -0.46926360793051436
Ni 5.2553514508249215 0.7533071721398724 9.109432051658375 1.4248722047538622 -0.13708530702249297 -0.006220269878098965
Ni 8.355760508885261 1.7739684791218953 12.544280761458369 0.1636201200882279 0.46720878228401475 -0.14512720349036295
Ni 5.839499556482484 5.044016483544922 13.610756980072644 -0.48323241140578066 -0.023312192363379204 -0.21181904839095775
Ni 2.78268350047128 2.419505523684068 5.6889337223907575 -0.7974836955217361 -0.0126138321092686 -0.022457814782883903
Ni 8.080444687886873 9.114299404730772 0.1139043259703092 -0.21923719523189983 -1.8736068394930894 1.4709175770486989
P 0.5533991684301852 5.690314198758966 12.084617816628668 -0.9885847946390522 -0.17339571141775298 0.24849223544227525
P 6.244749194015092 1.0156549671732347 6.920345876720108 0.19403935581003356 1.2702725429966897 2.0818294287820405
P 4.294417815607808 4.330986352871776 7.334377034333746 -0.7822529946149108 -0.7604428407183548 0.08336313490868869
P 2.895234583960917 2.0208483651343325 10.05810292468769 -1.327214250489056 1.099950585408254 2.8619422371254966
P 8.529362455434233 3.4474908682141567 9.82056801849841 1.650335840511448 1.5128882650535298 1.503610696406346
P 0.6132939999185921 2.237385944033294 6.1318825730698645 -0.24537297308700323 1.2203244932133372 -1.5640501326393257
P 5.6370296891452645 4.176269698679721 1.9403628364695074 0.21477633124706882 0.41674625475808874 0.9753163596649203
P 6.956182855418882 1.591773771505504 10.37193497545866 -0.28277146834011946 -0.389080156301388 0.9407545625296508
