# total energy = -340866.80285867926 ev
CRYSTAL
PRIMVEC
9.25755142099381 0.00000000000000 0.00000000000000

0.00000000000000 9.25755142099381 0.00000000000000

0.00000000000000 0.00000000000000 13.54936227226118

PRIMCOORD
 96 1
Ni 5.338978069683214 4.368971823729561 5.596686085262136 -0.676165421525513 1.586085000952178 -0.5258900981753072
Ni 6.746153670023863 4.453872828517125 0.46427453941779995 -0.5352874802298071 0.5992207885486583 -0.8904311316847503
Ni 0.38417912961281414 1.602371073674613 13.296829511393074 -0.6482941490365416 1.634167972502334 0.7163131973889921
Ni 1.3205989787319585 5.526128730765473 12.500993913566424 3.5027804441046255 1.3126425233224686 -0.06134112211164275
Ni 4.564232099924011 0.7510142364942466 6.15635598984556 0.026421941636954493 1.1339120299553633 0.4203416854188309
Ni 6.3739445544978794 6.642570926313466 7.339405342666047 -0.9886678412711618 0.13712233090801543 0.23617408019655456
Ni 3.6532797749756862 1.730291920273082 8.889222222242031 0.493998134562717 0.8814142728981208 0.5371271045417072
Ni 2.54900200209598 6.137006781459725 10.008995284818981 1.2551989364930187 1.6590621646408523 1.8043750017794602
Ni 2.5227846162538277 8.86725312678228 9.67847199793305 0.9187693165078111 0.7985404189210248 -0.8022870304476505
Ni 0.9315411194797326 8.242238794950682 3.593290841269066 0.3730948366167252 0.6920823498660855 0.9542258575432081
Ni 6.907605368147854 4.4489200384657295 7.760573019288861 0.11625500054070301 -1.8387789331806268 1.4964321763800357
Ni 2.2687944333564762 4.887959418255308 6.575099113731064 -1.8264510077428933 0.34183253616833387 -1.2722916303092475
Ni 9.119651010821986 7.9017738235111175 1.2252563816098734 1.6329281865579621 0.9396788129669689 3.005501839018424
Ni 7.18161037738374 7.777842981608258 5.457303464154074 0.9503028683397181 0.9205860580015759 0.6702014906325942
Ni 8.472483358255829 5.846254861564073 10.272056016674009 1.1381252967057625 -1.0598526889461037 -0.1123921751511871
Ni 0.4690005194574959 3.4673973984486444 1.7002150612114402 0.546630158936136 0.02037702099445523 -0.574302942261056
Ni 3.3734239931931045 6.927870148376834 13.071029498562085 -1.4221298661220347 -1.6408829226286643 -0.6034301986443156
Ni 8.005236219052042 0.19988720043311792 9.470218748211247 -2.9385832228190036 0.19996420593490077 1.547284997365845
Ni 1.3289030024256065 2.84917810941653 7.966348022474666 0.686636753370482 -0.15485857184551396 2.016772548381707
Ni 4.815204321033034 8.412596257615686 4.539456114850086 1.8688482417621815 -1.179539340876175 0.5258019093368751
Ni 1.5351427346966076 1.5112212216259429 2.5298286871886067 -0.32649539159063123 0.28090896121008396 -0.36054708185870166
Ni 4.869194361368994 7.146977877229965 10.950391067868265 -0.17748633654735882 0.7920733231394423 0.9533437120485712
Ni 0.8648654563261536 4.067527431853794 10.491989519120757 0.7554281611125829 -0.9858959349529794 1.158601048061611
Ni 5.0977818229560095 1.420423156534194 0.3377052953380295 1.8578691170428585 -0.23538192331256239 0.23562103590656197
P 5.811372407519853 1.8634988287768721 7.725182325667404 -1.038029165313109 0.5797734784573241 0.8016275424867807
P 2.87778394354515 4.110982378585102 9.004269517727472 1.3771497018669185 -0.7218762932990664 -0.13849504288582598
P 8.394034866862325 6.372981769142094 8.169086548769148 0.06672732612422057 0.22042247378925264 -1.0065118114311182
P 1.7445578071314003 3.2929110678155618 12.487824120805461 -1.0197257390182308 1.2587272613612515 0.0019208711717966917
P 0.6211085708546202 0.6500985933704044 8.869168514187203 2.1697999805557533 2.2428025981657247 0.07635559324260398
P 3.4535573589592317 4.591523361739924 3.293877556191946 -0.47644778438377944 1.0677464898718836 -0.3791855228954953
P 7.3951728328896085 2.039771866849057 13.207146055501678 -0.2508003147501616 1.2665339018898638 -0.2850067854285414
P 4.285690890454136 7.642756790150388 8.55636788388892 0.1622209257478561 -1.4048885625430836 0.39012119597139266
Ni 8.164716058706972 6.838016353537874 13.295352931929155 -0.9793442498773908 -0.16087495324292292 -1.657401746219294
Ni 5.7379877967957205 3.4080750084498757 12.118902361816394 0.5934432626349327 -1.8462266477079234 0.7861417881463557
Ni 0.12569533121836537 0.9549071794605211 5.666831478717142 -0.3226791031683346 -0.7098538149168936 -0.5801321473483235
Ni 6.463983500366798 9.006412640899242 7.553105735689234 0.0334060862642715 0.42548286330013824 -1.3575445260414813
Ni 6.962308239949152 7.388026003133203 9.678349798253278 -0.6836681576604612 0.3401980858887044 0.2071049307447401
Ni 3.596244000196907 8.999099175215875 11.700484177988468 -0.24562854074123502 -0.5522958418623456 1.7946197221649094
Ni 3.084866113002463 7.236192901015567 3.5547433225868135 0.9277581502699828 -0.453248977669813 0.17686207269979862
Ni 8.66016169977347 4.843717579646675 12.409779258657268 -1.5257754054288433 -3.8971989818997916 0.5325052894989797
Ni 8.841156089109601 9.159060407548697 11.81691362591255 -0.4080754664569682 -1.4077897953502787 0.4904875503062972
Ni 3.000548333959269 2.063211987241829 0.1510239921167162 -1.6021952762504794 -0.04574661010749541 0.36879980878579716
Ni 5.140199923919549 8.149191144844934 13.425914032214834 1.8820621693492945 1.0176775982399506 1.2003485643120424
Ni 7.131101176411006 8.462725898977006 3.0532136186758727 0.8747435457461645 0.6793993550817783 0.8294700186203456
Ni 6.858262618663859 6.353355759966472 1.8100049932012034 0.3499099138598296 0.45588718662360844 -0.13871564353706434
Ni 6.073768447177329 6.455411007679709 3.991615509570725 -0.4327068918524032 -1.9054746347359635 -0.04315519523123535
Ni 2.5010108551306836 4.530738278604481 1.146028404380244 0.8936853769559898 -0.4241397190086824 -1.1967346217085388
Ni 7.591738423845267 5.078109526022898 5.66504291976774 0.830494603230118 1.100402071123376 -0.2422742795570214
Ni 3.231579789141741 9.205931390782743 1.6301104009830263 1.1686658884967809 -1.3856050317231234 -1.0039034272739935
Ni 5.384784434494997 -0.03595262699738126 9.515554829406936 -1.3157206480271597 1.0783995987103556 1.148723383936583
Ni 4.325433559034772 5.95494777370133 1.7525554058704667 0.4134321027831912 -0.17598121275674208 -0.5323263407189541
Ni 5.710122566786936 3.036106589262838 9.885587494575754 -0.13616433787012033 -0.6997851178269819 -2.209759808778143
Ni 1.1289028598642137 5.266222972460941 8.62980526265659 -2.799779133333191 1.0617409071077522 -2.6575768167991067
Ni 9.26329117986395 3.3379212831985225 6.25109314309968 -0.4679623726205876 0.18520864489228103 0.8458744281202981
Ni 8.787416002664086 8.6107078596715 7.5207904006753905 0.17131260363647915 -0.499300777722553 -1.710721540688357
Ni 5.821509426410093 1.2973440093691453 3.5325622291977608 0.9764800409557182 -0.3666732493610975 -0.38518802033583344
P 0.47540396782861766 4.906187537154743 5.016706038447392 -0.06561018180064185 2.8474227033530832 -0.21385587631532843
P 4.3553447079246 6.312131883146166 5.4301103323840385 -0.1454578473569043 0.2576350782838079 0.08081954255122854
P 1.9709141988074146 2.292910355008598 5.581578686972655 0.44375492213644874 -0.06805093003165055 0.1700576481834555
P 6.815076140925991 8.001181411495947 12.013623634671577 -0.1565570425938594 0.313806226158737 -1.0086573970192112
P 1.4775422492764545 7.917104328791699 11.402615052501204 0.8230497169162986 -0.563019913148069 1.4899313991470404
P 7.162576851503985 0.6413113254885643 5.26075638830141 -0.13187393802488256 -1.1700907938687655 -0.6561552969521731
P 2.0903088404762853 7.273713757236698 1.2527429777623929 -0.2128922268504785 -0.34549687239379856 0.7282845108182554
P 8.680880100025849 5.242829139825659 1.3548630283361163 0.06694561278261374 0.8366961040551397 -0.49204126794666225
Ni 6.719195680061875 5.652170294409861 11.810287996305478 -2.624371533691732 0.5981820628714988 -0.7224769029975429
Ni 4.2923192973266575 5.261668257123957 7.507214201403668 0.25904918502251517 1.2754152635398939 0.7877782953085142
Ni 3.780913637477719 4.261936013310434 11.114771855286202 -1.0556651332273175 -0.21119786986719113 0.04604434385357231
Ni 8.644683073668922 6.462317141097169 3.8536011545740574 -1.2949949854440341 -0.14081109261351232 -0.44750127655275834
Ni 1.5881977623312742 3.578395440908888 3.85995553792224 3.0349612819301215 0.17340959537482395 -0.6211980641506979
Ni 7.515641350532239 2.8567693016448366 1.7484635681083793 0.22025818029724648 -1.9183509764779991 1.3904729013383859
Ni 0.46980685219296603 7.823528998250569 9.574399529748412 -0.8244432548297157 -1.7146255037284532 0.2440192872725862
Ni 6.774315141680582 2.6509646742942383 5.770050400653669 0.5675537964626807 -0.5337684724821194 0.03117719693375276
Ni 9.005523915955441 1.9336710691312213 10.60482888857394 -1.1265404200816405 1.139839708293708 -0.2865103665572614
Ni 4.21761085673832 2.6897908452765793 4.361932381570531 -1.570150846220425 0.31381548213011756 0.6405618133892904
Ni 6.640386144159953 1.1188121287314643 11.31771497346879 -0.01611361773241096 -0.3772947336306857 0.8813528235325659
Ni 3.7229613651006446 3.059620770067594 6.686380437267145 -0.06859471835026251 -1.0181751067016593 1.0481533982313045
Ni 7.37767606055851 0.36274789789509404 0.9137823584412433 0.18128899812290067 -0.7611617211622503 0.23160960075432369
Ni 2.0671464466284513 7.529814661875578 7.854850072233533 0.813972951426011 -0.7120202264405932 -1.3294457109227364
Ni 1.6080644678458433 8.894507358392202 13.386580547410405 0.4596384261359246 -0.49264033498324183 -0.8681404386073501
Ni 1.8811992672409243 1.5007416733302803 11.220958748232968 1.600353080835418 -0.2711166577100105 0.29276920298277964
Ni 5.349189148985436 5.470824118116807 9.610562303164796 0.4185786799811371 -0.8126087240886327 -1.0277691781479978
Ni 8.850052596099117 2.8347733592857427 4.0488475444412595 -3.07798277979697 -1.1208400272627537 -1.2740191545233155
Ni 5.275758250503815 3.6354127005846713 2.4301461499242896 -0.041837247750760205 0.2263177562277651 -0.8626981845458561
Ni 1.3614710685953426 5.888719250285102 2.789461347723949 -0.33858806108910716 -1.004637991447173 -0.8032799904885392
Ni 8.04375689083495 1.8953540634812673 7.716348770028074 -0.03123556097551395 -0.26384146420483595 0.39979240051256953
Ni 3.156769515486926 0.4481719543422914 3.895807257608294 -1.1686612605110904 1.0311064700513468 1.8534499049292403
Ni 2.0679518536087715 0.8350024467041142 7.1728832835866365 0.6367781779771421 -1.9315132248915705 -0.1891563166861194
Ni 0.23620550071466762 6.933295073554624 6.097822343234414 0.675753787909391 -0.9883505671410591 -0.29035879376907414
P 4.353030320050117 1.5341058889288388 11.14183075255952 0.8020252921458316 2.1954487914721095 -0.8354023249443805
P 2.177116900872424 8.248783883859721 5.8359539840123205 -0.5351476122178332 0.3845061637774604 -1.562110749524768
P 8.960884002632397 0.4643958133424229 2.625486966816771 -1.179319511555885 0.4451816272806462 -0.5632500268810041
P 7.719742588407217 3.778904748802667 10.314749992672187 0.05694247882331483 0.23486898823188582 0.3639262827435797
P 6.823722694025062 4.1597881900822165 3.8765135945314473 0.1722068333159744 -0.5722725420945887 -0.4256813524641895
P 5.197504167691768 7.917678296984571 2.2932158542080296 -0.5131327985096389 0.5910835041535046 -0.4535811641982511
P 3.774803653489082 1.9526490497019884 2.3251247827111126 0.24791373723098595 -0.37746339799806605 -1.1496767489887878
P 4.747013196699244 4.916231980530003 13.245666727284584 -1.0721711013021407 1.3466911282667453 0.201232274014047
