# total energy = -381171.1584206734 ev
CRYSTAL
PRIMVEC
9.21529046431775 0.00000000000000 0.00000000000000
0.00000000000000 9.21529046431775 0.00000000000000
0.00000000000000 0.00000000000000 13.48750909035987
PRIMCOORD
 96 1
Ni 4.326283928964211 9.032274681415949 8.337478650359124 0.7866979177601419 2.3369669374549753 -1.2411601990117658
Ni 1.7701743381842094 0.4988043144124455 5.75046650492707 -0.14583734218351013 -0.8499167165104718 -0.6467936532316151
Ni 8.341957281468115 6.012083068724681 9.279069372218283 -0.027157791361714517 0.2882576882656713 0.2427008255714788
Ni 4.1683614982753046 0.8765372227074885 6.091795330232474 -0.45555602853643484 -0.8336961408865513 -0.6965491273881875
Ni 8.611679614655582 7.924421691103194 5.218020851571232 1.214098052687651 3.003304831367105 -3.103796398425964
Ni 7.658754085668725 1.0185015351012456 9.746694673268246 2.4411297827178347 0.4838278788979345 -0.03591419739810589
Ni 3.835910683690897 7.047255064064956 3.1287781434455764 0.7201289715906565 -0.8289761097030626 -0.41002410554290675
Ni 7.624104593961291 5.107712904579969 2.5268445932227426 0.258053139657833 -0.8735035026914763 -1.0588165343721057
Ni 6.632290539707047 4.411737316358636 5.918358958243178 0.9292905277541093 -0.641169107955986 -0.26399007396755825
Ni 7.0445826298641165 0.6381367398828933 11.88141668231798 0.039420667889467596 0.10003313936520192 0.5529512160581573
Ni 1.0273574291254062 5.2392427437130005 3.502787152911105 0.8868184746328276 0.3747534552660707 -2.3423215168986693
Ni 2.2870784043686148 5.565804987765215 7.2045821869974 1.18280849854575 0.28256757985942954 -1.1033446986914675
Ni 0.16798092010344506 8.301898414326569 9.353115151691263 1.0742701499230143 -0.4713073778334206 1.653539177940094
Ni 7.656929458179876 1.9098965704363657 5.7240047986935885 -0.7548494057909774 -0.8919642804998252 0.2069177544345985
Ni 2.511194265625207 0.7555238729192767 12.597899977679132 0.4090496574447794 -0.01645788844570714 0.25796932169477504
Ni 0.4245106436291131 0.5910982118319826 11.164635733078594 0.21112742164057188 -0.15582710640637035 0.670515165218271
Ni 6.532654820467481 0.3054638368011051 0.7866171840815245 0.11580017239147153 1.1485858299174543 0.4495039088050839
Ni 2.7481838874975657 0.06543040452689362 10.107458545916995 -1.004029925549529 0.7159226468187928 -0.467291314695492
Ni 8.60134005888544 3.5782695961492936 9.794183829017163 -0.8470561071332251 0.45341070005865786 -0.6062668967621623
Ni 5.41552203277457 7.151719595446728 7.484636703722731 -0.7741954144177571 -0.20210310665477454 -0.5930820226407721
Ni 5.6114759667285234 7.964830739277954 12.654183285006878 2.163072946244565 -1.6430465059388866 0.8301014815567574
Ni 8.986391750774642 3.4829927092441992 4.4841243435690235 -1.3750905053450446 -1.2245886678063298 -1.4257327529819444
Ni 1.589093882851478 3.5753483491090656 12.996010657520094 -0.033680422971580706 -1.2874853073305503 -0.24222362882474416
Ni 0.3112630190169264 1.7020641272241983 8.541855359690896 -0.8169166074353673 -0.4542200833338306 0.8454483963264731
P 4.111862553153423 5.276048613361802 8.260626814975263 1.0613783815620108 -2.249259152424346 -0.277861946853644
Ni 5.167225249645555 6.03198809587576 10.962944359354148 0.425012608531939 -0.3076936855030959 0.5506958443650773
P 4.59037571974922 4.230371187025124 12.421146101164657 -1.3790345775944572 1.5320103305949615 -0.7201500546365791
Ni 6.5151273382261135 8.8215302064539 6.395358974163878 -0.48571018352231193 1.4338224719686146 -0.8540258535828389
P 7.147056658530781 7.23066698785566 10.718536428751875 0.3098528979379438 -0.7109341924652659 0.16679826070589338
P 4.375042030194007 8.102064843136224 5.031730992604935 0.7513830445089318 -0.4394125860073529 0.9707835047915733
P 2.3424254381970315 2.7653519734153713 1.3986820245126437 -2.170912754003958 -0.5121231262982018 0.9695650590034399
Ni 1.2414654850643723 8.51206232599671 3.4146327639157645 -0.14040922918940335 -0.7238426729968179 0.9457149918587197
Ni 6.358633277541103 5.205911038525292 0.06055643746198362 -0.049496564068230886 1.4366992792957771 -0.6219765941879353
Ni 5.518272520151666 3.887359649702227 9.905064967068054 0.6943544337297138 -0.021658973030672376 1.0949726725776885
Ni 5.595469007394531 1.4547073037106524 9.766076271927576 -2.2943426750265457 1.3185717443227098 -0.4567569908230714
Ni 6.333613764247039 5.202731763355327 8.202347475758202 0.26215842007545814 -0.6772982495783754 -0.18884444187265542
Ni 8.42744753002393 6.730378090168197 12.533011432224686 0.11000439164530088 -0.10982081487958506 -0.6802401058155187
Ni 4.636645692585131 5.450300538546871 5.888269192199797 -0.6562794812348632 0.6352887379158091 0.9055813570626274
Ni 5.356645542742975 2.5534832330309016 4.645825964829531 -2.149182304305402 -1.9365111923267941 2.5643830689532416
Ni 2.670895247351224 4.940851642253772 1.6035572810522272 0.08451267513209962 0.5891346079572499 0.32211937401012264
Ni 0.9293067398256473 8.36604605043706 13.356612341058721 -0.6026645241228846 -1.1648436865372134 0.525464066381482
Ni 6.225417040274438 3.3185366376987573 1.2048826254419867 0.24135485306654564 -1.477713774034926 1.5637523988932487
Ni 2.9135338422067365 4.657693415739327 10.693611832948392 1.2512417516174839 -0.2596960745778947 0.08807596700332573
Ni 8.536888318193473 0.5831472593199684 2.2127745967659003 -0.07650034635058438 -0.6323126860066207 1.7796376469337802
Ni 9.223123344517266 1.3947618399987225 0.26150782337150735 -0.07700839633525447 0.7998789352267901 -2.512032066155351
Ni 5.481199407082782 8.465783137870453 10.244976480717977 0.395954257713402 -0.12537804588789375 0.5482152440350688
Ni 1.8114864848130459 0.4882758451901735 1.6034761864971674 0.5239291177941945 1.702591455382055 -0.6784110230265801
Ni 4.076051934862177 3.2753906482907245 2.6411510546958827 -0.29466410601264736 -0.8396405313954444 -0.11506740799050505
Ni 5.474628905064856 2.3323254799759288 7.350867549035203 -0.020835705798428632 0.3739340446885689 -0.06800799260885708
Ni 6.232982793649919 6.598940403938642 4.404184464389642 -0.4809523571223524 0.9621782796210657 0.810613805145791
Ni 2.444623008153265 1.4464227576880504 8.13095846449247 0.6131312279821634 -1.8406041593148237 -1.5386985412484144
Ni 3.704095170557086 7.80842883149642 11.54092460537615 -2.6379425875079474 -0.67726739634044 1.0952989455688555
Ni 4.060690045852525 2.45273246365926 0.2685658142488274 0.9374154708540887 -0.13646155739556495 -0.8755061349438019
Ni 8.424682942919613 4.261500437819729 7.453346185347042 0.7310427902896829 -0.320300575633829 -0.360027976130438
Ni 7.71543733659756 6.842224069118495 6.795114583331907 -1.5823795270761327 -2.4277564467347217 2.2144101630659607
Ni 2.151410899869456 5.757077554222526 12.751171451329546 -0.2861398705917201 2.0217113804442213 0.09571959959151256
P 8.549568557711938 2.487243726011478 11.607714265229331 -0.1499629343161095 -0.43331675752226023 1.3196145837649274
Ni 3.3848222211699195 3.4043862825781326 6.472251356825269 0.6361870813603625 -0.2396062458065551 0.4980764183971487
P 7.461666671002001 2.201127391295415 7.927593594040879 1.023309342604431 0.6361891382428914 -0.1076726581883307
Ni 8.33308295686326 3.8634367559595417 13.422229815979675 -0.28554903108525664 -0.3427743312563129 -2.026028005541704
P 1.4124091210146097 7.655169337723461 11.374137986901768 0.2951199626031434 -0.43054356565249724 -1.0268916606390508
P 4.890029315986086 0.669756244123996 12.702306452731715 -0.7701834650448864 0.9816137626378578 -0.7638127856318523
P 8.014169403799656 7.747773790427717 0.7970009732453373 -0.23875829598396298 1.8523841826688874 -1.201959103332272
Ni 3.704141247008824 3.050362473289708 8.895241470887257 0.8179748734965525 0.670677144717432 0.18603114079357638
Ni 6.1171742398501 0.23787797586187936 4.073403460416241 0.20912993159456886 -0.5953217106045683 1.3619958769446157
Ni 6.1903989369530965 2.926195651144506 12.287066391192411 0.7527143617258456 -1.2719494164784804 -0.4275374318363218
Ni 7.182489449917772 2.48618396762149 3.3466423517302735 1.3310680770175076 -0.8024502954983922 -1.2584814638990327
Ni 0.6618633479411724 5.27993746588854 11.15399483731408 -1.2774598047737482 -0.554506219250103 -0.4028957220282416
Ni 4.109669314050666 8.791211901209897 1.2157787847491328 1.1101100424397592 0.7742884883521955 -0.49439948376619375
Ni 3.4631337585448585 0.21719886432159188 3.5558064043976874 0.7897091937826399 1.0302484929264257 0.31026735976754305
Ni 2.67665480381855 2.4195482031171145 4.4929728653609065 -0.5321137104875159 -0.26812183674774465 -0.5394508675788775
Ni 5.865099187678521 4.350142315674463 3.7188976914426313 -0.662634991139246 3.0507108314548947 -1.1191366714184017
Ni 9.032689369481595 8.934012040438192 7.310984693939299 0.259538723064424 0.5558213385171008 -1.7883835114472102
Ni 8.482785348561999 5.759639404939193 4.6600958419329785 -1.0548770901083833 -0.43568808596791414 1.6111501714509218
Ni 8.725488450449946 7.096759603812917 2.5670509050098524 1.8702903735253467 0.05287447940152829 2.101981478249883
Ni 4.142872005173507 6.2783680986124475 0.133292724176551 0.8636086121752674 0.10784672187234974 0.6476272048765039
Ni 1.4903981232273786 2.6297766218196896 10.42165018420643 0.30748362637481885 -0.049744418412978844 0.7252722063544929
Ni 6.634096736615201 7.865664999846119 2.477008303022264 -1.7034584313680405 -0.46622353555261 -0.5875729198970849
Ni 2.2871613419817445 7.0271104393648365 5.163288477609009 -0.04026810349142742 0.24642763960376268 -0.3666236270700847
Ni 3.8554931756798054 7.055825284088337 9.214719921249179 -1.170229890549791 -0.06039804147208308 1.3213742467685112
Ni 0.40516498460214095 5.503730791982961 1.0291120204076123 0.18138027228512632 0.5953687617924198 -0.2159022173213959
Ni 1.6488366101757577 3.6869178693489326 8.297663988411792 -1.390297552102786 0.638102038994888 0.18316101833463294
Ni 0.6671280433168258 2.421243816541095 6.388331393744706 0.09730597024202596 -0.5453978291909317 0.2934523450927333
Ni 2.3628465216075827 8.059628431084965 7.41052273110118 -0.6110432351048831 0.0710704335842647 0.6938396988768244
Ni 7.391280283326102 4.914477481278593 11.463249844564238 -0.09361643720558072 0.2454017694424096 -1.7773280249639973
Ni 3.2674747138820317 4.939662869798916 4.150564929555785 0.22168000034543756 -0.7487790312271814 -0.4866090411874974
Ni 7.148586396728503 8.394493651740477 8.58605373525664 -0.5734951016477801 -1.1977216682121565 0.4293500595650283
Ni 1.6273189072138274 6.2548691082257575 9.249005408987877 -0.7309438028179734 0.576933952126 1.0090572035607912
P 5.3522406339567645 1.4165283558000412 2.5552221583195167 -0.6221789400067285 0.6167269157532217 -1.2983687870122738
Ni 3.7275020080402985 2.2650538604375603 11.173592073767544 0.9268919456149456 0.3007550494017336 0.6778353530287682
P 5.5168165042767265 5.9550588520529795 1.906445444201144 0.20156754586627867 -0.13881797344288352 1.402256267126559
Ni 1.463821225864549 4.290795845835135 5.51483982449714 0.7954165285800624 1.7220860737715569 0.7489163281359941
P 2.42009190524763 7.499900910654698 1.5381959912029415 -1.347460916553234 -0.5667557260414176 -0.6075413925992118
P 0.5559897986652326 6.605639920021437 6.643650228118684 0.3678613561319278 0.7834465007023798 -0.3460686857368685
P 0.31401562624379087 1.245851963269888 4.201237968119837 -0.23619876278690288 0.17913929876974954 0.32533402429267844
Ni 9.12796625638669 3.2210480811102093 1.8341127872038068 1.2267154843413453 -0.5686565426085561 2.2595358517600053
