# total energy = -340852.9579446681 ev
CRYSTAL
PRIMVEC
9.50607958729084 0.00000000000000 0.00000000000000

0.00000000000000 9.50607958729084 0.00000000000000

0.00000000000000 0.00000000000000 13.91310836524444

PRIMCOORD
 96 1
Ni 1.8199294283318017 1.2554394110781253 5.0340822764799835 -2.04936899426049 0.35923067704012324 0.2958498987906324
Ni 4.775730798861988 5.504970681209858 7.53912341516994 2.742320119884774 -0.5543285560216583 -1.2278280006792337
Ni 5.515322801865769 9.304911917896902 12.38215155376696 0.9447107189639214 1.4572735039027032 -1.1457103081418722
Ni 8.784853316571347 8.639353262614176 12.240544239395275 -0.9056422922075499 -0.6165970750435767 1.6518749028637938
Ni 7.981199843319469 3.762297161574643 4.443652069285217 -0.9009582564683193 -0.4323271399154812 2.467293842707712
Ni 4.734807126296614 9.335616554920401 7.5251133550940175 -3.254178165447047 -1.592293443755735 0.12483554312086241
Ni 3.962257545410335 0.6885177386694614 5.224776133947097 2.024532394832784 -1.147166066751792 -0.2158986177769701
Ni 0.2697378597315388 0.5046910730864878 8.477465678079664 -0.36852238675469434 -0.6807180738932019 0.5697634025194896
Ni 5.945976724799373 5.950235448448454 12.256864276807642 -0.7850030465562223 -0.38275575674525697 0.11553406321427845
Ni 1.513824159974629 7.946445616397515 8.499851544868095 0.5550489791274505 -0.7008097024367543 -1.5531851649003638
Ni 7.30919606608568 6.917383984290779 0.902203950801819 0.3872682999036298 -0.16778890675393685 0.9979808911419716
Ni 6.277273104027218 2.0659657798618887 1.0484388247100485 0.8228761674529118 0.3737988046622852 0.17572898753661995
Ni 8.333789840792711 -0.07903449618485044 1.4495649632713956 0.5531759304744537 0.5703853523742048 0.18541921824119034
Ni 6.909703071995117 7.728005413870281 10.83904866870491 -0.30920832237540946 0.2726441500981304 -0.9735384418288913
Ni 4.86979345624512 1.9791182368753004 12.833228338057 0.9898150675017277 1.3600001866708256 -0.21088779482594
Ni 7.664847021181698 1.0572946884410364 11.995923343113732 -0.8229949524189633 1.3043211479409667 -0.5192291412153638
Ni 7.246798159763004 0.1778996249686853 7.159685397156306 0.9452187689485917 1.224179605293369 -0.11925290682676237
Ni 8.55107980769151 2.166948863174775 -0.06491511619382816 -0.1372416300946991 1.335447437032126 -0.07350783938116373
Ni 9.411978892137045 3.0333899920118563 9.639543980447206 1.9485688948222766 1.6812821523813173 1.4909246162982452
Ni 0.6295933538230662 2.326860133765886 7.461112723755192 0.4354795695015339 1.3073049131596388 -2.1541095664036902
Ni 4.386010054573332 0.1928118119961657 9.93842557893622 -0.2725374493169371 0.42622591211374977 0.8850485272165983
Ni 2.6092287214271837 5.4326484278120954 12.969020783553367 -1.869013820805768 1.1565225682660276 1.3975534623342512
Ni 0.36861629702677706 7.549899506974843 0.5151354027142642 -0.4361645113837004 -1.034622453624405 0.7525097019142072
Ni 8.163231761078901 7.837677053913655 3.3931846471941114 0.29690045154233385 -0.09676706701942044 0.6547545599499046
P 2.5841136591931027 1.8509572720608103 9.344016126831844 0.10640484721950062 -1.5571181814061827 0.006762772645130288
P 6.999697127320646 8.794929760919615 13.843626684136419 0.9198242401348867 0.3202766643744291 -1.6422353228915008
P 4.437437945067798 7.82859874792064 11.450752531377967 0.08134353337549861 -1.239705211732794 -0.40472866147192227
P 5.275113677114445 1.598741968807728 6.847016180853397 2.091181302310585 2.7166710518581016 -0.42770172532832784
P 2.379058016705833 9.263531953511983 6.941486649050247 2.4624514270137463 0.3315612361493128 -0.4572213320539997
P 4.2894853225805765 3.8938232785582714 2.861258656128576 1.4412542456563116 1.5145455981512947 -2.8890385791216566
P 9.468863272306894 6.1383892814534375 2.401290835613126 0.8394258442814768 1.3266966874226893 -0.4255216869578736
P 8.906103361535656 1.2877315633904547 5.591427524325962 -0.39549197336500275 0.9140264025061872 1.7907810651451095
Ni 1.5981050614762808 8.85819272048351 12.907232216931373 2.1348502039534463 2.451783405776939 0.18147334621956487
Ni 8.44907006778465 4.273163383952296 2.4055904354043736 0.4798408692257285 1.5824911129533328 -1.6919833408489053
Ni 8.31345633658427 6.398532655071102 12.758905054908944 -0.02636383470550943 -0.40433065470255525 -0.6713703141297147
Ni 2.5620025181043538 3.833383624627807 9.874940177110295 0.06899092534741666 -0.5205445175926777 1.5729371507163104
Ni 4.0016222209256 3.7249572810086047 0.44377801639324566 0.018837958642109492 -0.7440291752470218 -0.6017373843229249
Ni 0.5426650091601004 9.088838729183554 10.499457284440933 0.4246917348574105 0.7285763310270613 0.2930291415123857
Ni 9.23814121497026 0.7922442765473574 3.6270218468070916 3.9165686446756554 -0.9662398512849489 -1.4197526241391096
Ni 6.776209196539704 3.589200958614618 7.503617257353696 -0.9938072193802561 -1.432359771380159 0.761184861090702
Ni 3.8545441577591713 5.19122252487532 4.544897520394341 0.7147944467516206 0.33657540153445265 0.8075973869169705
Ni 4.546843414883106 0.8300423501488539 2.1618469502674955 -0.08215831596731012 -0.2817651385627922 1.8476173574078631
Ni 7.548178906571978 5.377798348671047 6.423209487036829 0.1877686923099734 1.7414999595217944 -2.520499223086098
Ni 0.8755137311823528 3.5756262769831766 4.185494515690528 1.0943280970151539 -0.27637662055736917 1.299323437616059
Ni 1.3622402150902009 5.533622005045408 10.778220216119875 -0.27268914440345293 1.5051880681957948 -0.7373795311409882
Ni 0.18827265899965784 4.746556640649878 7.4418714680897855 -3.063976695325865 -0.21226462056880865 0.5919713060750965
Ni 4.4647964420813055 6.8538833727375374 2.533326478461913 0.548505521581978 0.3340824599092698 0.3121926018147139
Ni 2.6843932926175245 4.982877778855503 7.931765377711637 -1.2635398522585464 -0.6009562831825263 0.5752048852500351
Ni 0.5306959043686804 3.8424619306208223 11.826531659363633 -0.6669891543428835 -2.256452841959307 0.25572706262781764
Ni 2.8867587145853975 7.200712685989035 0.7836517312205646 -1.9672119638447605 -0.2955987020117748 0.5676972640190804
Ni 1.9446301801814145 4.895783077799995 1.5830616905506814 -0.4516196695965061 -0.4621719911910557 -0.18120029506383634
Ni 0.07164827235597794 5.632323629260573 4.605225002585835 -1.4729819157768955 1.445348470330343 -0.43351678934820825
Ni 1.7443751078789334 3.0741995916223446 13.718130273426477 -0.5250107808941474 -0.008071721264540938 -0.2326490977624316
Ni 8.09192665819554 4.976850924405689 10.858109308858412 -0.03717892304314242 0.3652653132699774 -0.8121454112989691
Ni 1.7318270828414666 6.195416252816894 6.046330505644471 1.0681424397587216 0.8901753069202024 0.05852987791509275
Ni 2.1380313691111583 6.413067450739501 3.371814029704165 -0.06132826659583632 -0.2113066275309135 0.4014754446419473
P 0.6710636259639366 1.4990327001577362 12.227535169498477 -0.7918838328364556 -0.54824969681743 0.5629906025720304
P 5.012517734966731 5.392779930079417 0.960827943533681 1.5320928630064388 2.684856478450666 0.32590146676037424
P 3.9560690876077658 0.47463665190584015 0.1694667817787332 -0.4448458412077823 -0.3496821141197397 -0.5111723323491584
P 8.084036612149253 7.5367430928446515 5.838497186705726 0.3567459629450566 -0.33631854832864017 -0.4230948226839359
P 8.052714079953455 1.9866185336590592 8.699796718976469 -1.3066004308934467 -2.0702746340649054 -2.3525064278514707
P 5.812996177640947 4.843984450202148 9.41664257477597 0.9048367655871192 -1.1208914493259792 0.2205176046062202
P 7.824149902680083 2.2237667007876074 2.763129297903756 -0.874650471811726 0.3877277560385516 -1.8999135957084183
P 5.243658059804613 8.583238874889807 4.153368719770741 0.6535677387306551 0.038046156139444155 -1.5231863045454284
Ni 7.1850656790104965 0.7380700796640092 4.090203672826457 -3.1551459565425337 -3.2104817530003613 1.494427230134865
Ni 6.169654777171792 8.76051775286232 1.917713715868091 -0.5082009084256602 -0.19329245034168002 2.510559338264567
Ni 8.69095226254097 7.891148751516496 8.223258851155862 -0.784928484564545 0.6596681952014382 -0.45233186517218227
Ni 5.940776899272484 2.546355511125816 3.9784112264301585 -2.4545062040247405 1.5748405383866104 -0.20263223968536714
Ni 0.5689521710056359 9.030300291167856 6.093454043307903 -2.4989886027078314 -1.945730654042533 -0.12505151578641044
Ni 2.8205298581944653 1.8335611464406858 11.817377304734025 -0.8894962785753068 0.09359175461523236 -1.3420371744345014
Ni 9.531841049483575 4.757279498409167 13.836419174603533 -0.11168949265720764 0.22112027118722566 1.5096291346862838
Ni 2.4145537178345453 7.7365703915663095 10.551826276813209 1.7544274662167398 -0.1805048116587085 0.8912495138209877
Ni 6.078206291671466 7.566658725263521 6.8505923679890754 1.698342964518346 -1.17980133628831 0.5005675602501186
Ni 0.8237873497892682 0.9616255036099259 0.6641954834718383 1.1842498589779669 -1.628146191788286 -0.5276482185169944
Ni 7.485562360419104 6.000703224905961 8.593347639908627 -0.33555364513815755 -0.69363478195487 1.3740741482653884
Ni 4.110799544831135 7.690152205007256 5.713237477377171 -1.6741522262047555 -0.7796649221727604 -0.23044694790479023
Ni 3.4963075490190683 2.676227570263597 6.467856690971276 -1.5190337158296356 1.3197277123040239 -0.4799995062907798
Ni 6.9240857703903345 3.5062414021737296 12.291660330479719 0.01721764942986712 -0.07935967017625042 0.972318196268545
Ni 6.690625962136435 2.7563448089119076 10.076053648398295 -0.48606679553078225 0.6154781309477851 0.2802800693768334
Ni 0.42963677241920356 2.598600924463632 2.199412124919433 0.6945588364310361 0.015434075166883096 -1.227380114508538
Ni 4.44090766411225 2.982732093962871 8.561793159371227 0.7845556746061585 -0.13913293358014103 0.72335107807238
Ni 1.0338717083710982 8.36474163588513 2.7832337055944674 -0.45465279999587505 -0.4613250698097281 -0.5872643875177306
Ni 4.881219763892874 7.87245979907433 0.12868094736717925 0.4119753157320066 -1.1523959476921637 -0.16547748501194082
Ni 4.043677116960261 5.747176082671689 10.417731617128728 0.27345507603520003 0.6266346617852369 -0.009885891655144266
Ni 3.2629428015609077 2.7933329645337137 4.057257502239447 -1.3615665027166808 -1.8053653907171874 1.38669440813256
Ni 6.280799859549112 6.444447019412741 4.1652228009993175 -0.26495346632209205 0.051540333971137046 1.1075597652140796
Ni 7.0899003163968 4.647056505750511 0.6219941938117397 -1.2321099158840392 -0.8220269320787392 -1.3169730323770223
Ni 2.757998866757756 2.1463111644199717 1.6673606536035237 0.42444516606424315 1.4180880919524932 -0.6345721714647587
P 1.6632407187162221 4.002648877519574 6.364899194930904 1.7861168269002208 -1.486079629501118 -3.543597735231303
P 1.9247814860312398 0.7365633660515558 2.8346150162990216 -0.370017226132666 -0.20556509706144602 1.5171956341796322
P 0.30260132742625573 6.096258336782186 8.954184161412174 -0.582456681716442 1.1038972287608277 1.2496798064470027
P 3.9466010323522225 4.2609480716999135 12.06279005744407 1.5342060526947 -2.7137261102971655 -0.8440782554518237
P 3.55366723316761 6.898847129121794 8.459768209737048 -1.1599845586726991 1.6805645574890027 0.41579443236778074
P 6.151222488878119 8.734879856251679 8.870483130764526 2.029458371379492 -1.2149151492723076 1.4075139159810728
P 0.9676998884576087 7.077894137895042 12.19159743566958 -0.9909432675688999 -1.3224996186222062 0.47923691709314237
P 5.903779237571104 4.311539427191882 5.373799140994334 0.35823514589607336 0.6899354787264117 0.12296172313691725
