# total energy = -340866.7760328807 ev
CRYSTAL
PRIMVEC
9.23929694030615 0.00000000000000 0.00000000000000
0.00000000000000 9.23929694030615 0.00000000000000
0.00000000000000 0.00000000000000 13.52264499458501
PRIMCOORD
 96 1
Ni -0.04527347923438385 5.527298559257837 11.331949727327968 0.28397268773707224 -0.016144985190978647 -0.2944928705421057
Ni 2.660954493463294 0.7948557970625334 5.845447283977851 0.5242857298026647 -0.2642690386605578 0.45948724527004087
Ni 4.052595886341269 1.484154473748546 7.53425033843817 1.512886465281317 -0.9385339007292481 0.5055794116424132
Ni 6.502321571768709 2.406975458204018 6.8328029101256 0.08323817929505019 -0.11669620184317966 -0.11075669643029312
Ni 8.740097783994223 0.9680750611661539 12.472490125962464 1.5889240130628701 -0.7979943166095677 -1.0200995774178818
Ni 3.475186020266532 7.253513375134426 -0.10582967963804882 0.44135711132823346 0.6125619857422548 1.2741050293689027
Ni 2.648426006729998 9.135927746109175 11.583592144375704 0.14438415467675134 -0.026343265880219145 -1.7034322061157952
Ni 2.248530753934626 4.759734721606427 7.575670106893455 0.4000474539461691 1.089575412821517 1.5590423950120893
Ni 5.024884066939859 1.6339604353220445 4.910099660648483 -0.7349791492296116 -0.10759963885855017 -0.0748656389606388
Ni 0.8870870793745752 5.068087019716328 0.36429162180218844 -0.028705852575124757 -1.288392906746484 -0.36654263732050424
Ni 1.6777362245125733 2.181157800203656 7.7345333513169905 -0.945975444608958 1.072421783860366 -0.30961764199868613
Ni 8.28471131341111 1.3380719488664328 3.2940625375785935 2.518390147162895 -0.11387673011651356 1.3637524546244064
Ni 2.877357307819682 5.167834470138648 10.18724425360544 0.18269539155212408 -2.3551276675244024 -2.605846735414667
Ni 5.077012180619252 4.754024836059837 5.928881831615283 2.097859999882342 -1.942784169819699 0.26740295630384914
Ni 6.978782878811003 0.32795623848652933 5.189463664417885 -0.4300882232826335 1.322181316050839 0.16291538071171943
Ni 2.180557245898594 5.866029665906881 11.9847143758128 -0.5783475446440749 1.2314010627424727 3.108040518414299
Ni 2.36069581952623 2.8760638062395487 1.4514667648888642 0.1001958901953113 -0.014336214117014018 1.9203939750499572
Ni 8.623266873417135 5.866269887628905 3.93333134493413 3.018886744965762 -0.03319782690820734 1.2551827385431027
Ni 4.322392598066181 3.130643395803886 0.3243325862027544 2.041373891870155 -0.24404679807641197 1.8360311952321604
Ni 3.2990480622403093 1.0428856489828937 -0.05697966853459494 -0.34059763531996823 -0.9470738198794594 0.28327077657404115
Ni 1.9737171039381947 4.779146484605436 3.588530944085158 -0.4695281744458107 0.476258808301425 -0.6636513482189021
Ni 5.496827357748685 7.746466827323426 9.927392721172357 -0.4211538969074812 -0.13417378980265277 -1.9532791558137519
Ni 5.055327550558008 0.09290759885251193 11.563226885926197 1.584678864633271 0.0074988794802064405 2.4322119114029146
Ni 5.30675653984502 8.488447051579188 3.803365849740484 -0.8453224122715699 -0.5199197395244852 -0.594471446789131
P 5.852688121037501 1.3320294486278075 0.40444191084954234 -0.022474526953432262 -0.03678760114199471 -0.9994816440572142
P 0.3508567600330985 0.32820662343525525 7.805081851427189 0.13732904760218284 0.7345446327953543 0.7401766342701511
P 1.3125437712527916 3.4967967359517673 10.729961483371289 0.45750801005648306 -0.41072910202973134 0.8240635028927936
P 3.5635876139716776 3.449824149998908 6.611423810404497 -0.2552406099097023 -1.2372361813670112 0.2361524829299997
P 3.993519821317157 7.1570551144444465 11.312098173791714 -0.4616060913852566 -0.15940891022035772 0.06804887314912152
P 0.6853950737031088 2.810677301363784 3.853629473285084 0.7289758804583252 0.28721870547819567 0.35938879988454236
P 8.676540659924648 3.0578284961393534 7.095562049324885 0.8709280286548162 -0.7750557055355233 1.9421984725195585
P 1.1312502855000357 6.19340567654175 9.00781288210482 -0.8088531137009425 0.5576666192559556 -0.10789351594988517
Ni 1.031696860314736 8.017520083440466 12.61067767155726 -1.4445020631696477 -0.7296662216571304 1.124893885617153
Ni 3.1389772416987487 7.19208128937507 9.220415573604715 -1.0921992235976092 1.4318139261790181 0.10287343702747445
Ni 4.581240742844961 4.775921969952102 12.280779332841131 -0.6161054801191389 1.0466279627257138 0.001315890597946121
Ni 4.446116024205981 5.598321035304186 1.9877746943251489 0.8059194849939153 0.3764043606059324 -0.8097918234651279
Ni 7.9991061645175625 4.188228766315301 5.569720791437726 -0.8603068014955442 -0.6590678426132778 -1.5872571668834083
Ni 7.169703712038755 8.365047000834421 13.403943385605931 -0.862461900165334 1.945727311608423 0.687122691867965
Ni 5.219639208423008 7.585841648961807 6.076292043476434 -0.3344277590638305 0.8566617485437892 0.702640584997906
Ni 8.320319564052795 3.2090018736689934 10.887189372225656 0.048045690554317254 -0.25662103519699675 -1.5999543027351024
Ni 6.212022859998676 9.293254495441452 7.238008910837122 -1.0189456663190968 0.13650578036993907 1.6856828525521743
Ni 7.764797592573322 8.92689789075955 8.981862468618235 1.0324791820291572 1.134745581600252 0.34825926563028414
Ni 4.774859450796992 6.083809135516412 8.050720573283703 0.7718986479637803 -0.1263892607612275 -1.0134211369564419
Ni 3.3518691231947737 6.101853482559279 5.771397090304291 -2.575623931974383 0.63589037605555 0.6033414955852512
Ni 6.763747480410756 4.685690995440767 3.6962666906945043 -2.9038365633664376 0.029592368945136133 -1.4387150241742253
Ni 6.858468753264555 4.690966634028313 7.557481626817373 0.5945380383610084 -0.3150673522593477 2.125839258704087
Ni 1.235635863016835 9.237393705773671 4.278200116580909 -1.2575460965689569 -1.8606348527134537 -1.520441909031072
Ni 8.079811423820912 3.5560391083218965 13.073193183706312 1.4441979016656676 0.04754663943071167 0.9191521537685268
Ni 8.361563785865062 6.412219947415388 13.427039780248919 -0.6047003236059909 -0.23575241927810367 0.5908276793889566
Ni 1.4467630387856776 7.778942956281786 7.256724954771958 3.2594155025865867 -1.2261182170769787 0.9003694738443849
Ni 5.920264339302491 6.394628325925567 13.253774319660295 -0.3146374638107807 0.9061652545905554 -0.046024803469546544
Ni 3.6427776285668703 2.7354047486969963 11.77323425889852 -1.6419841261126433 -1.1393784523865733 -2.6491081172064637
Ni 2.9447579794416554 2.9067844687677264 4.589180070757882 -0.25531157235695384 -0.6987625900997385 -0.4027928779017902
Ni 7.0929343932578135 6.217501763120244 6.011032116969583 -0.41228950453831575 2.4238319148693352 -1.2714503653548748
Ni 6.770094877450413 0.09030304102794247 2.1858541348692415 -1.5281709022442134 -1.5962346877916702 -0.5350136577431303
Ni 7.399706771580551 7.026845701809975 2.5415134814834373 -1.5510148967219222 1.004530005114399 -1.0181131431154724
P 7.67044589159956 1.0657898662482632 10.73615550808073 1.8247368532652637 -1.3414134248075735 0.9892442825999221
P 7.008062211007032 2.5886569944308144 4.546719033530589 -0.7678100797167035 -0.5009820220797179 0.6565229647042371
P 4.022623606870168 1.0027409035137405 10.071422274260858 -1.41880157307975 1.8723585689082851 -0.7280230296267527
P 3.6589371590215425 8.285847746942228 7.360443455045288 -0.40417201763750393 0.8960132537582182 0.014576612262594251
P 1.1791745190439935 0.9749306195408634 0.6684945516289603 -0.33051454005235337 -1.0667689564499627 0.14720465484468195
P 3.030267673185502 4.979916408436207 0.37106125471478885 -0.298512276114144 0.15690208463810396 -0.15744433029481916
P 6.979023100533028 4.996242246236895 11.860955840344397 0.05179538740473661 0.3887160880937499 -0.489039505005861
P 3.3340834764679337 0.3376362499544308 3.7735617254748006 1.0071620434206074 0.19817446102432967 1.8816201967158692
Ni 7.286340597378822 7.732958975108028 11.178927566468436 1.9818379412880511 0.7564082656376651 1.3678644199102505
Ni 0.4914335878323422 8.15063987463024 10.161645857334593 0.703048619069602 -1.4410518998375181 0.00118116479229474
Ni 6.11713527979886 1.5320047929164964 9.654803893893757 -2.7706238519254733 0.01660366999495205 -2.5564152202564165
Ni 5.3181485930472 5.184335854582355 10.165743485554515 0.052854939017502524 0.4687036216619863 0.015704040998818117
Ni 2.2856450099874657 0.3075725014430205 9.039401114621388 1.1228164342628342 -1.1525399294691958 -0.7877649255720756
Ni 8.745133200859744 8.079543484207885 6.424270762493735 -3.1055025824837936 1.5088040676818273 -1.3584798933715572
Ni 3.744391416983383 3.2158112355586974 9.096886172701936 0.7482766376694662 -0.29199144427649065 0.4540079673230245
Ni 7.626827170458048 6.006679484152432 9.624242147273995 0.43584518037106873 -0.7721243908213412 -0.14326572480159197
Ni 9.11635891506115 8.3822320932562 1.3019416779441948 0.6869493995148944 0.8918933180525737 0.28855156535700627
Ni 4.370621728411171 1.2564889563479924 2.066706008604315 -0.06301850981406565 0.5444565483235849 0.9228303739510624
Ni 0.14002893748708697 1.3622049926329296 5.734737407663897 -0.6042241553005208 0.68059466094146 0.8802698748810323
Ni 1.2240035880926317 2.7870247010413367 13.023348100315856 -0.1812838559165781 0.07838625051938758 -2.4351715082518703
Ni 6.086571685319697 2.7910899917217575 11.796722399734353 -0.5030689865157336 -0.1675996735612662 0.8782441027002553
Ni 6.443005285022573 4.355293734686585 0.8238588742782339 -0.7934077256801498 0.30641147635656263 0.8124783691583555
Ni 0.6135096473168717 1.3359653891502148 10.211909480879191 -0.5438135154229473 0.9502982403540279 -0.05182804041488493
Ni 1.0073882699052212 4.090292218105168 5.793290528477756 1.519392898941267 -2.2128016809282602 -1.528288144548368
Ni 0.2409109735811239 4.092121598911358 8.854763003354286 -0.0011138018894690496 0.4581579849356561 -0.0012261590976172432
Ni 1.4613518887501868 6.607159874838556 1.916091608543233 0.1624916629107395 0.536324920355386 0.5826150616711773
Ni 0.09631874730526485 3.1890634707409307 1.692182789303268 -0.41593584304165143 -0.09163900176423573 1.09253655233237
Ni 2.4326422252726734 8.876793183123365 2.0652323407326625 -0.5693725948389742 -0.6194571702001912 -1.942509318891758
Ni 3.2754601369968688 6.880578390987844 3.5520200141264806 -0.49913802689244363 1.4696613360440947 0.13960370256897248
Ni 7.999632804446617 1.4348535849514454 0.8793371570501735 -0.2332407085998435 0.7721570438314895 0.8579925515400708
Ni 6.4382840042550855 2.463686263195885 2.5166181957143614 -1.4268648097038588 1.2504238837018788 -1.081859789344814
Ni 9.256944058227695 5.847135303539926 6.724081330526253 0.7781166038490341 0.4292564714099575 1.258162647107033
P 5.262832921902476 6.268456486080514 4.458321135544244 0.05350671366888849 0.11894720266088545 -2.1118102914148467
P 8.221810179428603 5.049497554150405 1.8639477880589383 0.29425530061000293 0.5396154181811997 -0.21306346232102016
P 5.137852951370546 7.683353189509895 1.429600120676702 0.6565193651598114 0.813786803557134 0.42928938153042195
P 3.9835783377441283 3.6734982910950484 2.73688857979535 0.4814740339537773 -1.4006619260562458 0.6350663374923579
P 6.209140199334378 3.578601471598231 9.207771595658906 -0.16214199288080464 -0.233457709706656 -0.43694869784789264
P 6.848767491413551 7.275410509026691 8.132005136509012 -1.1906125679712012 -1.4182127904558157 -2.324630270266493
P 1.1822974014303167 6.808345567034371 4.627854844074183 1.66471936292663 0.03951914114054484 0.4924199914423197
P 8.30413231570712 8.428862825220024 4.209085555365259 0.9998999625415553 -1.475824013211381 -2.1434669990881794
