# total energy = -340890.9629533359 ev
CRYSTAL
PRIMVEC
9.02359898957499 0.00000000000000 0.00000000000000
0.00000000000000 9.02359898957499 0.00000000000000
0.00000000000000 0.00000000000000 13.20694924060719
PRIMCOORD
 96 1
Ni 6.2416866481785815 2.1096182050940966 11.338284889743948 0.3391621884250223 -0.4116878663985748 -0.319394775990108
Ni 4.656826823928075 0.613488332947884 6.20829662450634 -0.38078243506897 -0.6502029360234802 -0.40135074613862487
Ni 2.462973321430964 1.5146291526181914 4.572206218844385 1.262123431526994 -0.5362033071758572 0.5944781316573503
Ni 3.5243651395061852 4.3740723467857645 4.973684189069872 -0.7478968857325442 0.22653707132742273 -0.12865903063201067
Ni 4.959433219044314 4.525533457327769 2.7745031536764846 0.6602603202594823 -1.9605859738878104 -0.5520742127698428
Ni 7.21010832494226 6.295765077459381 2.525591684880185 0.2437999721729285 -1.766998360903215 0.6250331216260718
Ni 5.202790662607454 4.419867112111989 11.463764351457614 0.13907019866300563 -0.29339038150654634 -1.151402730540959
Ni 5.734181388774151 8.011467088356243 12.184242791606177 -0.76157284055774 -0.497887185204478 0.718134566868447
Ni 1.852490749336314 6.305582753257397 0.3722487280886002 1.510847323364101 0.5226829040919192 0.4131392541331207
Ni 2.8966474931705335 1.6881619865075728 0.49024491908600576 -0.31095975784887736 -0.8365639493526495 -0.3514199227464528
Ni 0.5715466444284183 8.900544258417755 4.522719899134918 1.3849470864241504 -1.7998282629490423 1.3761796246441653
Ni 8.622265486418659 2.110132550241603 1.3744872447609595 -0.32628507535203805 0.7160072361127992 1.4367882394651577
Ni 6.727156278631949 0.6794156501793962 4.750764295060894 -0.015133770317644905 -0.10491746404069673 0.4129934725838758
Ni 0.6106792865545729 7.361208491521101 2.368018890681935 0.07307255161595802 -0.3087650641904037 0.5795803886099115
Ni 7.22630568528917 3.880436359165849 3.8488880520656434 1.5106740310110305 -0.055458695188936744 0.24588745082957655
Ni 7.798780858062823 3.6062182067523287 12.558092306171401 -1.068696769600295 1.7747888034819113 -0.3960830699817824
Ni 7.752182992418564 8.703477878130188 6.937900630403554 0.7577164429261273 0.052111118872942515 -0.23013918685638432
Ni 6.88324649550151 0.6915325390227564 0.30313517802227247 -1.1243146160749153 0.2303011663555453 -0.3925282627509885
Ni 1.6833704553965922 6.59214518921107 9.247295002588658 1.6889180716600205 -0.5646281381754533 -0.11132876688367924
Ni 8.90270992219673 4.798596589059169 1.3331356996212642 0.11853968280982166 0.12558167725826758 0.9410780073073406
Ni 6.82514354103145 1.9930693993889723 7.089186683123423 -1.3940413354159347 -0.8494042956504275 0.2289719060211605
Ni 3.3999838498004378 4.195793099780799 0.6521120440859798 -0.9091086534895956 0.5854967540943465 -0.30492486450870715
Ni 5.857091831830013 5.660810504662324 4.741545786241727 0.5977066658969771 -0.09103067875627548 0.8285899300082376
Ni 5.417958382647613 3.1142696321601964 8.935901426689233 0.4203712531051857 -0.7460410634707281 0.552906478863151
P 9.329047907885023 5.518436158392933 12.4747828300339 -2.4152045782116405 -0.9935544799395019 -0.983499666806661
P 3.969607565265109 5.898483080805655 12.440100626973535 -0.25074760713535527 0.3158160574999142 0.8260221692810613
P 2.3008192459802754 8.257883532007183 1.3059205247988228 1.1195704165217106 0.05776008962860375 0.889596551598597
P 6.225218579859299 7.540823231189768 5.859897268783693 -1.5746425634431915 1.7172539424902362 -0.3425933255937584
P 4.7202266310575425 1.174340207747802 12.622911525436004 0.5838630751456654 -1.683536238522817 -0.05852602126035083
P 3.9760323678093985 6.384575339595479 8.165909596033966 -0.8704726862849524 -0.6804241968018669 -0.09550208426406778
P 4.58036084533213 0.8777525532172945 3.888231846410248 -0.2342411248398998 0.45818318174663675 -0.12417117006398615
P -0.035532226093610154 5.737231365262874 3.8330263696044735 0.07839267827729081 -0.4668208028169767 -0.8816215038129204
Ni 1.5190055981715347 0.8954351979726184 2.4322317240884255 -0.4378298149012653 0.9849402559079296 -0.06338206380107149
Ni 1.7580497613748838 6.459335857965482 4.8367014432502184 -0.05787141839548743 -0.13763680865058875 -0.037001516925013696
Ni 5.820853057928513 5.596715880403769 9.20727714539285 1.5632716026020885 -0.00012367006205785152 0.2288083838601027
Ni 8.568954063059579 2.3129650103406885 10.152248292869867 0.7503651447673786 -0.11753875234913305 0.02656155253861232
Ni 2.413262314104428 5.454152038553717 6.970298058177098 -0.18467899764105614 0.03247483269925375 0.0023188779411637485
Ni 0.6353001766417852 8.968555124676621 9.518103136910202 0.20362339995404288 0.5564653998590029 0.40791348695780716
Ni 1.5851395558219574 1.2084584358657235 11.577264985393834 -0.9407486489923798 -0.21580811494569285 -0.6660347608494143
Ni 4.191967093771278 6.395457800084825 1.552160105907813 -0.8080259898139567 1.7864592978413039 -1.1591317237541006
Ni 5.6356256396326705 7.75480885975057 7.939013904270754 0.3352790513205322 0.5641866797626606 0.5661345475176508
Ni 5.163565077410785 2.7339068837797065 4.89786339780808 0.4883149681350107 0.08117666878033117 0.3440804516622461
Ni 1.0458441568620034 7.780923155485366 7.450106282568265 -0.4886199009699392 0.5690352661042136 -2.139815518378521
Ni 4.984663202069363 4.801727777939602 7.072955033100012 0.6645864584386619 -0.35760933938661643 -0.9764342753194473
Ni 8.334665336570893 7.100525737726169 8.900731046918692 -1.3066675366859561 0.01695076892172565 0.4211778081668811
Ni 4.475253963259252 0.3102105820601625 10.466560100711463 -0.032838386686259574 -0.3754525382156243 -0.030216632792696346
Ni 7.7887375922878315 7.517208472399871 4.543573436606623 0.8328453628504818 -0.8700793075012757 -0.8901768495820992
Ni 7.455866045860428 6.070851870413839 6.725480596282968 -0.41493696946349184 -0.729263586902073 0.31537202798396013
Ni 2.1947739096031755 5.392358432060322 2.668939677490206 -0.3307042874656563 -0.7307499416396125 -0.007046108213503995
Ni 2.1404157487509248 5.391780921719263 11.225100984135404 0.3556488732261359 -1.5429609160691944 0.9802569914996472
Ni 1.0513665994983874 3.373616893291427 3.8514236834068587 -0.9061832523126845 0.028549015282286316 -0.3118298191586565
Ni 3.647419960147311 2.4881311156633794 2.534783122902114 0.4980298814299294 0.041089570951458265 1.1649164487566777
Ni 1.4092244917757046 3.6578241698854663 8.182153879096088 -1.4847380278715592 -0.977029485701285 -0.7116199056783808
Ni 3.7154488736043363 2.80194482083581 7.2144414572200235 0.061381745541591065 -0.3223931964967996 -0.3215377904750398
Ni 4.047715838893443 7.036981553011437 5.828689151368767 0.5683570090902664 0.02279360085574784 0.18747815765274808
Ni 0.6599779154031954 7.403294557625831 11.435567409055372 -0.18543335930857743 -0.43980776456324255 0.1883713588909788
P 0.3028364968927556 5.641662427416561 7.66637036989653 0.8834922384730719 -0.5191671776291769 0.7781711112360534
P 8.791755747920622 1.3113184417679158 8.079496904173174 -0.07604526109103676 0.5545445286872063 -0.6855864577290967
P 1.6745183047000358 3.2948138025340064 10.296995845697051 0.6881776154950406 -0.3812694020077176 0.8643658020562662
P 4.027963180509382 6.131454361828798 3.718126175451093 -1.6862736920586379 0.8028429029511205 0.833875603887209
P 7.087423471863375 3.918155003316315 10.218110640188012 -1.285132747937974 0.8719284448948724 0.9075482509810111
P 6.650212049284814 7.739838708878411 10.029027438005688 -2.241925080656778 -1.2034009779851211 -0.2138185953194898
P 2.314751682958342 8.30076367483087 5.788487212751744 0.0883130227147963 2.0741636847066665 0.6127046819677061
P 6.835195830405522 3.9877901174094124 1.7195054579086837 0.3478113794595881 -0.9336624315695599 -0.5580142324033616
Ni 5.2966721874259814 2.967401533549434 0.41434562251222573 1.1125381922652775 -0.3619581032736154 0.5527550408869513
Ni 1.8652771892313404 1.2106782412391721 6.969743106833737 -1.332230215646409 -0.383869558634726 0.030260341546438203
Ni 6.782534106180133 0.7078706675153005 9.215848662158047 0.2420385093971315 0.27302544469694917 -0.009794360382602488
Ni 2.5993379507137013 1.4343642388099624 9.296146963282869 0.2155538328430417 1.3697058439943637 0.25662257785889353
Ni 6.309480948059551 1.865809581577005 2.689872622633807 0.9283232787448334 1.5878068687392914 -0.2983878347211377
Ni 4.083350031656646 6.716030180967469 10.317480317966423 0.3990133562546999 0.5051184128455946 1.034743552583302
Ni 8.076409930928229 7.204649047499429 0.436423662378959 -0.13951551373054039 -0.3932479145258324 -1.0444157855657432
Ni 7.720528206849226 3.9920943741701236 8.133763926674726 0.7109329069136853 0.17324067389712744 -0.43000851908463367
Ni 3.3208468858770916 8.359029054084353 12.56345412874418 -0.10432791008581387 -0.4058370640447527 0.727837653088824
Ni 9.04318028906044 4.991864034134452 10.031127229511384 -0.1996533595627013 -0.8842432577064836 0.5293379475145915
Ni 8.654912867886694 2.1162685976153632 5.616862870067584 0.7478963715119119 0.36361209393727056 0.594533153265002
Ni 3.5556499575132823 2.5335378662292043 11.43362553053356 0.11078035057937695 1.524811241743361 -0.6259661749633025
Ni 1.0657953344258024 3.2287520336762165 13.003997966462636 1.1948985969410646 0.48796426966381123 -1.2833270621878028
Ni 3.276631250389703 8.576687287470332 8.070938020446688 -0.18861715635319776 -1.9247573942249754 -0.06333938348859414
Ni 5.438757778524843 7.86486969771785 3.4542111684660424 0.17840833414099597 -0.3364280773233109 0.7069407550351566
Ni 2.950103294114878 8.21359570772716 3.5375738838381117 0.41203573665629684 -0.3760462059355652 -0.24363490734997398
Ni 3.427902865351046 4.380975400081245 9.199590843697305 0.16167559476734739 0.4781819934660668 0.5430959205306324
Ni 7.166966497745279 6.203995074825352 11.466352319673488 1.274308146518644 -1.222591691980959 -0.7332529105671242
Ni 0.6485170422128828 -0.06233772951786247 0.18707906082686454 -0.5953764751019036 0.3025237112663822 0.0297386647150133
Ni 4.909198842971193 0.38037989321874016 1.737730420968659 -1.5134773047877805 -0.8009240886618528 -1.729242739420996
Ni 6.102235948010805 5.350913041490205 0.2321465240673162 -0.2117084909550225 1.2839243294521696 1.0108865434600462
Ni 7.800314869906264 8.815117845936305 11.34675083039992 1.3626617926633888 1.4031952340010607 0.987288958645764
Ni 0.18146187040015038 4.610021415504997 5.705758856394932 -0.4668251736923508 -0.17321110621077268 0.8448902098301578
Ni 7.7901362501450855 8.897755966302325 2.263988523979189 -0.12651935858118857 -0.44547010505534246 0.9399629198662908
P 8.5975137541448 1.3604338915552332 3.6428729685713734 -1.5653621665825297 2.1282977475469087 -1.703299794302989
P 1.707860503297158 3.2702786366380456 1.8623914422458574 0.4005709305498069 -0.10358614682378291 -1.163121304529468
P 4.788093119731144 1.0121680850989556 8.383150939142492 0.28092053117430976 1.6151639205960053 -0.29537064516136874
P 8.461510068825225 1.6296890644752713 12.434792043635326 1.1745884246288028 -0.6148978329642829 -1.058741458159796
P 6.0512616368132015 7.512850074044685 1.261043459498939 0.4712274165251046 1.0947073347314438 -0.9610097132342611
P 1.8887565940350515 3.1490826774072054 5.936299179826176 0.2601030802083262 0.35283197260263105 0.2623571663498256
P 6.8732573713209915 3.833558761950138 6.035787066752524 -0.17754932857481034 0.8252204993153723 -0.2786924131747394
P 2.4865880802208604 8.135370127310798 10.592237179244963 -0.5830914870869636 2.0394993005552617 -1.032216415286074
