# total energy = -340863.2413716694 ev
CRYSTAL
PRIMVEC
9.26544910695713 0.00000000000000 0.00000000000000
0.00000000000000 9.26544910695713 0.00000000000000
0.00000000000000 0.00000000000000 13.56092133398313
PRIMCOORD
 96 1
Ni 0.21561533570509686 3.373661143928865 2.755280449042719 -1.5101847500794379 0.1325018014168686 2.6953488933415577
Ni 0.9394979914754226 1.2957452377153733 6.898820716907766 -0.27050499226794056 -0.39658880597360735 1.641328237696199
Ni 0.5977641444528835 4.384030554335583 11.722860028977966 -0.9494389776775262 -1.708194403391129 0.7438232298838029
Ni 3.6733798861944615 2.7143688592543627 5.477554589331489 -2.0633442254936596 -0.23396370280879705 -1.6141334224489619
Ni 7.783347726375411 9.165511806341039 5.661983350454176 -0.4481219408558928 -1.0093305118268359 1.4881943618512756
Ni 5.722915722309044 4.05419910301956 5.272120128920117 1.4589336652139455 -1.262443276760258 -1.455333349457197
Ni 5.201660095921696 4.653210376899578 10.569517329089612 0.9808177490991237 -2.2699033110372584 -2.377569798578002
Ni 6.276665278124037 6.345516829186719 9.185937488526166 -0.28073181220227134 0.24294610881306547 0.6631978056212514
Ni 0.8572754710494571 1.6109372797084196 4.708378712969747 -0.029596482710194195 3.8292318698311987 -2.117645667149701
Ni 5.700447008632957 8.618498231904404 12.62992338989895 -0.09464385002883055 0.24755301145745753 0.3276901832296808
Ni 2.310830761631835 2.7408402468719224 11.031443506288468 1.2215012871302575 -0.32906958007571063 0.1660359286185721
Ni 5.420723105176843 5.646068088812356 3.5836634706669623 -0.8870604154403046 0.3874351644987973 0.03752653619054827
Ni 8.382433123846939 1.2760468932719253 9.03008151884031 0.26690673339372095 0.41873680282555625 -0.3482649220572389
Ni 2.4057830823545334 5.376026579497072 8.043782818231163 -1.005117759297069 0.4320376336995205 -2.519289519048713
Ni 6.052580395544172 1.1078975259343449 10.96837174227368 0.5410891745132488 -0.9572217069467385 -1.2376061631119202
Ni 3.39937276473346 7.142438092395077 4.660915524236912 -0.5012419606093239 -2.4726551070196257 1.464265104729188
Ni 7.998093036425175 1.0309665033972097 12.768908830157416 -0.3459732978095848 -0.6698757318620592 -0.12160032401301639
Ni 7.872490610613612 5.105206772470946 11.20951153671481 -0.3800892656566873 -0.3707584751740647 -1.279098625928752
Ni 5.587695760499223 0.9593816448976424 5.004006759528956 2.0174981136938217 0.5229389859667832 3.901302976765836
Ni 1.905226468896001 7.2549577043053475 9.31810170527604 -1.06455960750347 0.953437557313958 1.9081460109205395
Ni 8.908302943805706 3.6425074103310706 0.5759773678186766 -1.9121003675825974 -0.5176908501939664 -0.7726033873402888
Ni 5.377175495165457 6.360017256775617 7.024353651852289 1.310312332527395 0.7037173630018525 -0.12297149332893016
Ni 6.470776433387554 3.0183867698274667 12.201249055850916 0.6856818456563804 1.6802683664048224 0.20157345940354962
Ni 1.6747206302016917 2.5380195696061283 1.429565190190574 2.620316904006384 -0.058051909837409696 -0.08302272085013444
P 6.69491690866105 7.961948520115724 10.75401372798955 0.1870528971898714 -0.4508879336368041 0.2501246288393757
P 0.8155689057421698 5.2400375854253465 9.856199138199068 0.06346485332286489 0.8855136397784749 -1.3105177636699818
P 5.339168623619351 3.2568701600579044 2.9738282993368803 0.7589981378520283 1.6201284636901325 0.09287724504671101
P 0.3490998789287203 6.003992381310192 2.061138031275488 -0.4401921444858548 -1.374718980938239 0.4928203122045319
P 4.423927577465163 2.3955632921752654 11.682258831729051 0.29095323281996344 0.17453830966262843 -0.5054603695660457
P 1.2065930880282343 2.7444630374069123 12.928371839115067 1.0348564240120823 -0.5137961431252507 -0.40958624667453974
P 0.3094280062083479 8.878125376612708 9.760160906860767 0.2599400722679007 0.22342217984752488 1.236585949377522
P 5.723953452590167 4.178495100530781 8.464062655540834 0.34998061919676504 0.29955820088015506 -0.42541035819098993
Ni 7.336521451311779 7.189923518205365 3.918414875369378 0.44092182356302767 -2.455574754498571 2.1966695512530876
Ni 4.861340156407186 8.712023673490558 6.969554080649877 1.1935629088487767 1.0112115308996328 -0.5118495609218411
Ni 1.7901681239765568 4.661299113822969 0.2965879470692462 1.2364216558855157 0.2340467494409066 1.5795759961890667
Ni 3.243453789994822 0.23381360396538678 4.988072966989257 -1.989753339480386 -0.9049673776277124 1.4949414507671221
Ni 3.849682848598004 2.7280724582345415 0.2544005049620459 -0.7700289417448932 -3.32559672639935 2.130813571990227
Ni 4.593049816941296 2.4449944622626574 9.40227460270358 -0.32747446767444893 -0.04783768830856923 0.9427754496144215
Ni 3.0202954523088166 4.591465425172797 9.882100700706903 0.2592818698586115 -0.7339712767903875 1.304674160405011
Ni 7.289119414541939 2.075062147940405 3.2912218119977363 -0.3611410066889587 1.2550192163820448 0.45049069819838544
Ni 0.004560453967575327 7.583538320014659 11.74892466338712 0.583900356141504 0.5753002731773189 -0.5563538139818032
Ni 2.9297534852808886 2.9204509745465415 7.789324867485697 0.1923095176031204 0.09471841202050785 -0.02185026310587205
Ni 3.951473070637383 4.958404999487883 6.229480052859359 -2.2927269937999935 -0.4891770590249898 -0.18409098634807006
Ni 5.195554165071163 2.5830959786923815 7.033249409378231 0.6305933893226688 0.07554261042300539 1.2932764600910307
Ni 2.768525408300437 7.785182285265253 7.012921940951854 -1.371962244128708 -0.5268290650498089 -0.7397668004262421
Ni 0.16992926007868397 7.023617975206565 5.513788980495644 -0.8618296658979738 0.12387832141391568 1.7800066002374249
Ni 3.8690476368796625 6.567507720306462 10.966363919488687 4.038776520365683 2.857974253616684 -2.7422699833731286
Ni 2.3566113448374217 5.671029208252925 11.94329339813113 -2.3304625606775544 -0.3028368716314268 1.5563440222443194
Ni 7.327923114696764 5.1557868582267234 2.3247215226805733 0.7650484578111664 -0.11675045211988279 -0.48942568470068615
Ni 1.9924792015507287 4.639062036370348 3.9710583766037804 2.3003541713279483 -0.43883100247227 0.30912553285361605
Ni 4.05005744734401 8.31533274263365 2.92681263178778 0.7635459051237109 1.3048747064515915 -2.094426034500129
Ni 4.381056345226295 4.346375769849143 12.646372341399633 0.2778277511815989 1.8015028224379876 -1.0828859166164833
Ni 8.98734648870084 4.828540467164568 7.733521848163235 0.9474597424639682 2.091898125871952 0.9866590383712491
Ni 1.195928556299914 7.667186793032275 0.7266548780927526 1.5877976127679105 -0.1536496391390773 -0.0949068738822301
Ni 1.1666404722050225 7.461317783065684 3.524985382538855 1.0338207836587163 0.487103978546045 -1.4936340448096082
Ni 0.390902804904969 8.411378386331101 7.602929978098241 0.22833478665779383 0.1830607453113428 0.11904850412544013
P 8.007330689016952 7.17889763396844 7.191506056884076 -1.9056402137795503 -1.4950345247015606 0.7817585714769956
P 8.87541986552264 1.3521625563024644 1.7023566847508322 -0.6741545617430713 0.541727579428196 0.4530096079654972
P 3.056162005150109 6.555694272909756 2.3945607706001097 -0.04782406146181441 -0.22200884443976604 -0.0974167847882774
P 6.7367504106187965 1.1421889524560764 7.1320821001164125 0.4664366800046806 -1.2916944603158915 0.5326204749206053
P 1.8321684040151975 5.678839981708159 5.9562957032641055 0.513470898575348 -0.2173476915186708 -0.5093643326061421
P 3.139829009065601 0.8317093177931982 7.101895267474477 0.25800043204302664 0.6682399960308492 0.40399795395348487
P 6.8347047367975975 4.570868332182305 0.27646802469909215 -0.06857697773844965 0.5775610441870376 -0.9816142768584901
P 2.6196852365508843 7.7610365253312805 12.25299751471785 -0.22705334884220896 1.8231610241377119 1.6064959605083622
Ni 6.027146738207735 6.0754567889735585 11.943157196031732 0.2464708341368723 2.50622240145211 2.550358215429059
Ni 1.070131556060641 3.428994404990141 6.41004419522976 -0.38078474906181514 2.055969273185827 -1.26506245955066
Ni 1.917327145209803 0.49375484739271114 2.4883743676482544 -0.23938358827278775 -0.8154850171951633 0.929951815487192
Ni 7.64147517222768 3.0879795568052364 7.280696194911864 -0.31197688625948206 -0.20560752026360718 0.3700236538905692
Ni 4.268694245947981 1.453220807875695 3.4724234172551127 0.7025950764719512 0.28079171890592936 -4.401949469883006
Ni 1.9249526096862648 0.9681838213893056 8.979377276068757 -0.22188311749517914 -0.4910992157483672 1.5441577645907731
Ni 6.41003215014614 8.98273229512942 8.860420956780846 0.6787897465222373 -0.2644456734477381 -0.4882427201361785
Ni 4.1366338022262195 6.135774861563796 0.28320215298766127 -0.9970444953706312 2.338853870065043 0.4748722123665435
Ni 0.783701320662774 1.1198406896161908 11.59818136842558 -0.6850259572399364 -1.3248418936021378 -2.892654578607689
Ni 9.16846748455245 5.241288421032057 4.19265733923342 -1.8914621225069552 0.04398617577296295 -0.7572664998729023
Ni 4.04913090245015 9.131841164898193 9.225250788372614 0.03830995132379209 0.7745448273373757 0.2047117479222152
Ni 8.670097517043427 0.17667635999576717 3.620372252816773 0.7346621322098251 -0.7778522944440539 -2.0814992991361314
Ni 6.252510252741126 7.249852441940182 0.886594131125846 -0.3484346148658838 -0.6762250711188548 0.7330055704430085
Ni 8.276121362725526 7.721954861708296 1.9931435342396255 1.0195892134403663 0.4458616840668064 -1.2704970003026699
Ni 6.313050696105891 8.984298156000042 3.333071065218678 -0.4997381223702877 1.1685473606410455 -3.2772700142695044
Ni 9.044467981407264 5.915368362212553 13.532728350487758 -1.7908522847026769 0.3542540497611383 -0.5077712770874093
Ni 1.0489507397870181 0.6791027410501072 0.20658615571443828 -0.3389379882293582 -0.9793074831021843 0.17262566602094787
Ni 3.64587076829578 4.573629435966006 2.088192215631285 0.4843752667609722 -1.4714996748044142 -0.031970639369325586
Ni 1.0118611476858315 3.285379946441954 9.051955390694541 -1.0650422035668432 -0.7892520516405632 -0.13397632907986606
Ni 3.4652779030336696 0.5384773163295103 11.416939921737768 -0.7490747080907293 -1.004514321385115 0.418250350107441
Ni 8.726236872162358 6.843821938553173 9.340396228512082 -1.1016233451249868 0.20466006874867332 0.17674380195437947
Ni 3.428985139541202 0.02325164411139838 0.5616038768802377 -0.3591517441730718 -0.766065586221771 -0.8122505694182657
Ni 7.5841776359914235 5.33469341178201 5.965340634517959 -1.1721718447675105 2.0622319662660873 0.26958967954252283
Ni 6.70426574664009 2.1557456772976704 0.8089737591876794 0.5922993788384767 1.2646055745188995 1.4544710014569016
P 7.972196106641808 8.14910132322636 13.367827449548047 -0.27828360777209493 0.10652543195776493 0.3552999745271494
P 0.7897785286215969 9.016532652857407 5.331340245811133 0.8690446955891742 -1.8915451691390648 0.501942072000142
P 5.472970971741568 7.839718717717809 4.989117183084637 -0.23132935050974354 -0.5082626149015311 -0.22040910405281394
P 8.046412352639935 3.4929723299111233 5.130231823509191 0.8114468425700477 -1.3913416770965845 -1.362092807533796
P 2.4881158616228682 2.399955114972158 3.5710652397451583 -1.6195131987036364 1.9746393666570832 -0.3905125178725404
P 7.945289242924135 2.7787544639286432 10.526149468787633 0.11539445231262062 -0.017596630035840662 0.7398745296486999
P 3.9084628566644355 7.130930404813346 8.725314033448075 2.120386463119632 -1.8222063735339264 -0.6026035889779623
P 5.363156870921366 0.614062069135868 1.1009660435833837 -0.48628842462328514 -1.5280755143169296 0.6669953249904707
