# total energy = -340885.9260422353 ev
CRYSTAL
PRIMVEC
9.16266392736097 0.00000000000000 0.00000000000000

0.00000000000000 9.16266392736097 0.00000000000000

0.00000000000000 0.00000000000000 13.41048483395912

PRIMCOORD
 96 1
Ni 6.52362412020071 2.573407394250857 11.647582644166754 0.6966815392009937 -0.7053700681139271 -0.38273004571364405
Ni 4.582944465982156 0.44969437047346983 6.36849197779664 0.696354237768562 0.1524041967677504 -0.8403532411917527
Ni 2.724774598151134 2.0216226251177685 4.548085112033089 0.3065246048956592 -0.8376209298622542 0.7632643693275499
Ni 3.447461370138216 4.769432159746222 5.010827115578834 0.03426792004393454 0.12043201473652808 -0.5157342406882279
Ni 3.9412922915310347 3.061685741457018 2.7520188623204493 -0.9146372966173086 0.006171676028350661 -0.8076729773499123
Ni 5.213409028086897 4.952722083887938 2.8937817621572726 0.20204088595827138 0.8269241122700404 -0.8120937321254272
Ni 5.369311750505978 3.239917875250493 0.5540451982615504 -1.1030333380986357 -0.09351873528545183 -0.3782452704694131
Ni 6.070420449539963 7.971938879214339 12.740630695735673 -0.4301866965337107 0.6657617096936855 0.04521824840785116
Ni 2.4565742697392077 5.69044478696463 11.717893260138252 0.7419815486893738 0.00395358533110932 -1.293958830870036
Ni 0.6504996424950754 0.07945861938397136 13.296119929792301 0.8987208824973684 0.28966485302584305 1.371145918875
Ni 8.002395573267881 8.941156280023508 7.45189815838104 0.6337352773857602 1.597861938982448 -1.5249199994070834
Ni 8.892649138531494 2.4051900518534475 1.2665815714301862 -0.18760825547270915 1.169863765459624 0.952361807751276
Ni 0.5830871770437731 0.5689336104660032 4.863620677253079 -0.1126315448555028 -0.4278943009551083 2.145725713215369
Ni 2.017975884975377 6.994209363851699 0.12261843035563404 -0.16067389297571036 0.35294870068615347 1.1496947467109169
Ni 7.447651263767979 4.310327733679193 3.6370038959713096 1.4572812172121872 -1.3073907880052258 0.3638743464597217
Ni 8.094929313715152 4.140589389111842 12.75096984542581 0.2817846789468179 -0.22450255739589722 -0.1843424402372438
Ni 8.19242921787392 7.578127594490735 9.220941880385283 0.2855544304018953 -0.53072608611137 1.5105488182870759
Ni 6.873124763395151 0.8595971251419685 0.3151159152237055 0.6003371615412887 0.6578609667893702 0.4985636424462123
Ni 1.8677906646890907 6.939297520451314 9.31784621140522 0.26255694106545746 -0.23252131393531567 0.5618343774804002
Ni 9.25429031109445 5.063654452993305 1.5725403205777455 -0.46337243925706006 0.13737327057655693 -0.4703696965104996
Ni 6.538834141900132 2.6590049982966435 7.095058221583442 1.413986925299926 -0.046811561036900026 -0.1919678179929855
Ni 3.753613451489304 4.917711545988242 0.7682316243131779 -0.7606644698108578 0.08065396350764174 -0.3761662764531973
Ni 6.136474091968359 6.076999242058147 4.8630974891572745 -0.5969669595174751 1.1688633492195677 0.03276742423900809
Ni 5.2990249574600305 3.2896161630201726 9.496460428273913 1.3437744688405826 0.21118450013075243 0.41946519635114854
P 0.34585848438388783 5.89471721092061 12.503385510281175 1.0144907158715366 0.1114426667537242 0.899092149793858
P 4.384600285423481 6.4951007481824545 12.769114668300128 -1.3465029235153392 -0.17971805409135502 -0.21092353315988188
P 2.6049636079453213 8.920393684137428 1.1955516863602504 -0.7775648451106221 0.534909270954782 0.4964841342093643
P 6.26739939321116 8.142492700848708 5.819077589756107 0.257901187461001 -0.6059730196708273 1.0214486352466086
P 4.9352213962699265 1.5524759196636517 12.788801567470838 -0.23684873766607595 -1.658611707366995 0.04684858492242254
P 4.134862724315372 6.262698946746218 8.355965355400103 0.7408415215476597 1.2777125442145028 -1.0375028604959937
P 4.886888345387726 1.4984711799670272 3.993548794998593 0.3238417560178681 -0.11469125559800893 -0.37554946880480483
P 9.29579717753926 6.212515037801797 3.6191541108673064 1.1258246249615385 -0.9660627022771362 -0.1615364980863218
Ni 0.8984871348413835 7.853566427205399 2.2238206220178753 -0.7057271943430298 -0.27927939602646096 0.06900660907670052
Ni 1.9024896720238575 7.317138282390523 4.582376380834346 -0.3675931900722056 -1.4980116050520136 -2.2247897065280715
Ni 6.294667480306027 5.962484271456109 9.096573381267849 -0.0436673589809635 -1.6150749604266248 1.9498364486807906
Ni 8.876568663783008 2.829320590675479 10.109815548499538 0.45151939657321594 0.6105606390415098 1.2163084300754086
Ni 2.443334220729771 5.282907832056848 7.357608851573764 0.732420644473816 0.8735492683277472 -0.1807621790851532
Ni 0.1664855989629566 0.6906321093887324 9.641682233647805 2.7445767771294345 -2.651870767553265 -0.016053968139069126
Ni 1.8416770732171905 1.4907195664985264 11.647742990781055 -1.4911894399238577 0.023846981820926674 -2.9933340933076384
Ni 4.425053445545741 7.419521886287721 1.5517401577706014 0.10081089807149089 0.07665872630531959 -0.28304297683395124
Ni 5.813371082819722 7.941060702631777 8.084483877126392 -1.294219026509958 1.7171706387478105 -0.07267428773627484
Ni 7.166943899440564 0.8581384290850118 5.175213548293996 -0.5667840081761917 0.9904123347660941 -0.21585130947880243
Ni 1.0918871420813787 7.917421030351951 6.618208464778299 -0.6269318813106816 0.4469695724190044 1.2586210748006905
Ni 5.439232037004949 4.938510792529019 6.96899921101809 -0.9281425301925951 0.4644407326205743 0.38378625489230034
Ni 0.5098280159018677 7.760400462964599 11.296146846404287 1.271431339191481 0.11273027521689619 -0.09826807704497915
Ni 4.9549760991518275 0.45796733950504137 10.882956528009434 0.2736268257263739 0.8634324916087195 -1.0445407411793817
Ni 8.204945416453084 7.680932680916953 4.846267508520225 0.6956147884993762 0.4156275677726132 -0.0071620649660779885
Ni 7.486134451200253 6.629333771011696 7.061437659763147 0.7362397611095901 -1.7046187702247289 -1.1919122606192312
Ni 2.2371651253932003 5.798637519631365 2.465477630031575 0.4898548018183048 -0.35080954285596355 0.7576364816178113
Ni 3.412020187045827 4.819707695327385 9.728287730697769 0.9387244194734994 -0.01047004629338842 -0.20578955436742621
Ni 1.0185766700228969 3.8260443078350486 3.6640392514088496 -0.3944385923998239 0.011330080300838551 0.5143458449811336
Ni 1.0176787289828104 0.9601005504531891 2.7571554515762906 2.2825521101495205 1.3171180425953188 -2.3433556145901386
Ni 1.5164391634324297 3.339717607991523 8.214833763090443 -1.2861691596222882 -0.5602215244673254 0.25491048026379326
Ni 5.490231423016386 3.375424508330469 4.964936830832215 -0.38520858916112366 -0.38897705506462044 -0.5100235634566957
Ni 3.8956164131143947 7.005387813534407 5.90892758601316 0.9685790409410867 0.5298534536984294 0.8025922203928951
Ni 8.328632213393147 7.524874193215409 0.4281978452270751 0.03448517826106319 -0.5027776805275599 -0.09431012083849566
P 0.44761261328665736 6.265053751310526 7.842357740732567 -1.1791081668760273 -0.3971415931532838 1.4693273497434436
P 8.714252076791881 1.8941058347618265 8.049723479945007 0.3660358728874148 0.6186806970454829 -1.5231546799765445
P 1.9586201496929316 3.490773281326873 10.415802701904488 -0.684217602406028 -1.0543320162381908 0.8757015387840595
P 3.943986114651294 6.699593076066618 3.62517581343409 0.13194027248644374 -0.5070729654688042 0.4185812510842985
P 7.304585433156663 4.284424883471803 10.4378361592422 -0.6456934781889009 1.104286750889763 -0.49043124314706504
P 6.40750568345566 7.997649313484568 10.598842485327895 1.901460371370248 0.244346845815334 -1.5976253974916097
P 2.7260115577471717 8.976496673815479 5.483305365544945 -1.2197279972799189 1.5687344254888724 1.837763604542235
P 7.035991110206739 4.167124463112762 1.2792526190254463 2.018669508294104 -0.4492804799403682 2.4669457153396737
Ni 2.7709544230698633 1.7920429240932316 0.12326073307920603 0.9094205283030595 0.5215649884373921 3.090689685840677
Ni 1.775266086905495 1.1021401627329774 7.278554305657832 -0.4824749644144659 0.003267357897362115 -0.9782620725568054
Ni 7.107982158696115 1.2045695799485465 9.306808866743095 -2.61815743446122 -0.03354132629055514 0.39609463994600813
Ni 3.12836244501527 1.5552155561022827 9.329607406497615 -0.12450155682021137 -0.2916993669573686 0.5244649356930065
Ni 6.491600610658852 2.2730277910146097 2.5497356526481707 0.6115643977156758 0.4525789481859818 0.5768694174366517
Ni 4.404208385686593 7.218465557281438 10.449328888288937 -0.984885234300278 -0.5135775993565413 0.14372235272303635
Ni 7.669323586041551 6.3992776114760925 11.627949804711722 -1.2037858721283654 -0.4709121992775309 -0.901355491906738
Ni 8.244445659553211 4.350597640527965 8.214686244205286 -0.5210178576846705 0.1595832310146929 -0.9370817416637539
Ni 3.5974358491599925 8.694185843345052 12.640763159283452 -0.0004329737723605447 -0.15661514952530445 0.1951863249302832
Ni 0.3570745009876608 5.173285723856914 10.13026661382069 0.00412482080165096 0.4439184442975064 0.8407615323737649
Ni 8.972703331054298 2.8471786221767883 6.006958008398674 -0.5860827085048035 0.17517620035694345 -0.16969615107897873
Ni 3.922151487115315 2.9150373093490316 11.505685969440286 -0.5253992745818177 1.0722567190374115 -0.25682620922926735
Ni 1.5235677157710747 4.0342200265163015 13.063193107727523 -0.3759783288121073 -1.134307465621569 0.03133352000595894
Ni 3.1811668757705545 8.431675529074898 8.170914367300178 1.1251175715921848 0.2635984949560944 -0.4099027494736941
Ni 5.525141171615664 8.562051070497237 3.6724615718583125 1.246015727331854 -0.5915820410564779 0.17606657338169676
Ni 3.2588662637290504 -0.10055748502689928 3.348959986839841 -0.4535881061767866 0.02060636339644193 -0.45283708694337493
Ni 3.8470176449856375 3.289038915208688 7.653685667948536 -0.32120200440217583 -0.21708595321685195 -1.256454920387307
Ni 5.588391038959709 4.9425606898730825 11.754826124876827 -0.6703596134770132 -0.5201593663391171 -1.042879551426875
Ni 7.996421516552205 9.49160330026014 2.8380067958387634 -0.80089837763024 -1.5505253586800134 -0.2793824972632285
Ni 4.72082422895379 0.8941412834606389 1.5502383971943754 -0.3675332833685477 -0.5988798602694718 0.07239223771948178
Ni 6.2306571118770115 5.870225410919069 0.45320733572621597 0.052562090367432056 0.6754689096791205 0.6104212852501681
Ni 8.0949476390425 0.4026935708895193 11.635217629538218 -1.2834826139290605 -0.8963600955746757 -0.950528354086963
Ni 0.6734063016809526 5.531765777452219 5.848875488291464 -1.1586640400890624 -0.7245499834764877 -1.7140981704700735
Ni 7.387690792683026 6.42422754466135 2.7236824086411517 -0.6953440513364928 1.219544420514203 -1.1684851399445426
P 8.615670978319539 2.20075269995133 3.720765302216756 -1.028565705907364 0.09446670102101795 0.5429673653725682
P 1.9817833634616908 3.4996885530820165 1.7318836232065455 0.5673527361954681 0.19931423105572768 -0.5566610608095769
P 5.089676417828461 1.562738102978925 8.136462751884617 -0.7358204141839844 -1.1580947978491538 1.796451118946693
P 8.95615556045842 2.0046900226475683 12.653341663975601 0.054255676019771076 0.38819029749726697 -1.1349039615549874
P 6.648208858180859 8.217040132503227 1.6440045159058456 -0.8385444701177881 0.07982066897306898 -0.46078076727048384
P 1.8673233688416988 3.5024281895206473 5.792739513024186 0.5933051943951718 0.8189110121575768 1.648919676890212
P 7.242132717552287 4.483053106604382 5.850524767752847 0.7222938404524594 -0.15518895860173917 1.1822353996510995
P 2.590715665931706 8.642508420221713 10.639502721649194 -0.6568104140376688 0.9704274070037352 -1.054992789750641
