# total energy = -340870.88915722776 ev
CRYSTAL
PRIMVEC
9.22612708063149 0.00000000000000 0.00000000000000
0.00000000000000 9.22612708063149 0.00000000000000
0.00000000000000 0.00000000000000 13.50336957372456
PRIMCOORD
 96 1
Ni 1.7886507579446123 3.4263805330634978 4.914132235519562 -0.6321337372265953 -0.17347335873322384 -1.4452294282539755
Ni 2.695735870334694 7.870790353751175 7.079005993688375 0.5148888619687971 -0.16300382666046767 -2.4591611862982488
Ni 7.915878435611385 8.675899086194274 10.337612178030087 0.34600569370941703 -0.46932171486195945 0.4051086705191604
Ni 2.62428874409662 1.809787814531832 10.582995783105444 -1.7615761614463792 -0.34472039923909015 0.10481719101740657
Ni 7.0649250789073115 -0.3048570639023058 7.794914686630575 -0.8115252612164668 0.3529705550630244 0.6245564390999696
Ni 0.4340542084738782 6.538408472482408 12.530870115417834 -0.5978581038731768 -0.27186999093626724 2.213001712754208
Ni 1.1308648188601884 1.6564034558402005 13.316833712058166 -0.4510771668294748 -0.023329675864875946 0.3938217847514314
Ni 6.964987672991658 2.1956890218097183 12.071444980750504 0.4116634409185426 0.3300915935823219 0.33000237630262524
Ni 5.393261609276076 6.161724165916278 10.672509510918855 0.6879706416905572 0.44248479717477346 0.04276284488882313
Ni 4.47333372832667 8.736523965650678 2.1176525957835195 0.2636265199805525 -0.29015053441301 -0.2471616895563098
Ni 4.955721770082577 1.6271750860155336 8.723392419321305 -0.20143050606778212 0.840277907869127 -0.7890556193590411
Ni 3.7480217669105746 8.074466329839984 4.597910428577475 0.2621165110939292 1.0969318531865884 0.8245892934892767
Ni 8.332115147934571 6.8139836550243835 8.342584034058323 0.10594719085679172 -0.4428828039441405 1.1603367998057952
Ni 5.351900882658657 3.234015788478805 -0.0836422206933288 -0.17738889173754613 -0.3897985225246513 0.6100921840455236
Ni 2.300617762345052 0.8266120662658105 3.3928029670471176 -0.5175808069786634 -2.730424911109085 0.6925438628835363
Ni 0.5741261887501017 5.659112454130173 4.841417439453863 -0.42456780768503655 1.0345964854824763 -0.014454227752117042
Ni 8.457166071104878 1.9538814634969988 7.1072822272232985 -0.32001235496944885 0.7142930816351698 0.9407751313549411
Ni 8.370071433748548 3.766215689036283 5.510468479408211 0.16699854964215757 -0.5377984195771189 -1.125717409959713
Ni 2.2551052786502663 5.856523890095576 0.881480765187615 -0.3324420960923694 -1.443296730007637 0.018997109927793087
Ni 8.915898323646628 8.205726436372666 3.614919202848225 -0.6973973343210957 -0.328758219482879 0.2035408675425656
Ni 3.627703846808466 3.692812623908426 6.282928716807576 0.801120263833059 -1.3700012637475956 1.0634195803617557
Ni 3.4833610924186567 1.0151599621773766 13.037070790544153 0.21286625870854953 0.20347941817701087 0.47778835757207394
Ni 3.8339723645389197 4.328382049565515 1.9211517785370853 -0.261142320106118 -0.34049607674509746 0.34366239028822104
Ni 7.740987975258991 1.4810978197800693 4.733862943220267 -0.45194208593293134 0.38407576110826114 0.043304576324906065
P 0.3300434675589846 1.7402412704225076 11.208147988949078 0.44212664250440636 -2.140144876693482 0.327686583685255
P 7.711851866702711 4.0796179916164945 3.365538839626387 0.7647934043775668 -0.5710214432963069 -0.0001385824603933097
P 1.5163877549376925 8.107283663004864 4.716538122242754 1.0683607264171149 -0.5042900034070283 0.913572088577588
P 6.218880021681369 7.963005491502925 3.5085262759836064 -0.34266505937195824 -0.6209412109448854 0.15667634178054307
P 1.2949053540503963 -0.023595819389705085 1.4343278149971828 0.15257800334145333 0.37207976508864954 0.007024253836633065
P 1.8400218321819057 4.8598992167369355 3.0218923706565795 0.250997004142 0.0633085302506587 -0.11361730580753981
P 4.78169856565301 8.713587814329932 7.741238925909001 0.653883470198861 -0.3599277031071479 -1.3034675416914197
P 0.5875806495188238 1.7180708876293653 5.267110931786608 -0.0719284107091858 -0.1835124881367807 -0.251854724156605
Ni 4.6832834706657245 4.565087559736492 8.656591570559147 0.09301479906583981 -0.5423839820652724 -1.0767481791498617
Ni -0.09162005257066133 1.2842584036786582 2.7940762336945877 1.6199222612165973 0.56502151695913 -0.7674020456450074
Ni 7.757668812583169 1.5562999796414518 9.494529630132018 -0.16254051387080393 1.2601961325972941 0.19463688018471642
Ni 7.210439551405622 4.945748326970056 12.398347874733632 -1.2239381787065244 0.47309198053766904 -0.4719516962856388
Ni 3.0030120246940797 5.670239163097518 5.035082145310114 -0.349308789940721 0.5707730747309266 0.531688450024639
Ni 5.428044107457577 8.833942638939396 9.940573190432648 -0.2953755302573752 -1.0744303296499624 -0.4970286938589246
Ni 7.18479091879433 7.6467707679832655 12.562927215731214 0.099807396507641 -0.5495162222346794 -0.9431595724267176
Ni 7.76397025721393 7.135071321261145 6.101524610907133 0.4708180969018279 -1.8463384906954394 -0.3178048057951688
Ni 1.5722888574527358 0.8455680664683866 7.181605137196963 -0.07967925829919825 0.6387365872550935 0.40112346061916726
Ni 7.00225199929274 0.6611359457395175 2.653398096885069 -1.7249947627779196 -0.6626385906836717 -0.6434093101404146
Ni 8.063717892073022 9.740944716187931 13.51633209791446 1.2497973058614735 0.08738819690768175 -0.45065422035944325
Ni 1.2443646312285763 3.819551928290197 7.276844599326405 1.1232488938145622 -0.33455400022904963 -0.27471105992948813
Ni 6.403540950355835 4.5955060999233375 6.5762355925206455 -0.33521605929308074 -0.15905024132935836 -0.4359025159715654
Ni 3.1297051984416577 9.185282775079907 9.004667503024166 -1.7428726714996046 2.142674070873239 1.482110360440725
Ni 6.589225979109386 7.449802186106114 1.3620577182451052 -1.9868029986028104 0.31736180472047926 0.9624400179228845
Ni 1.8652737413391383 2.675069346216243 2.227124281174177 0.09790503727860557 1.703167382490183 -0.877565845686308
Ni 3.7750450924208176 1.1633038808246863 5.918189476659373 -0.6879243618336539 -0.8516321565396818 0.7694260180535717
Ni 6.241548615323796 4.863091456623089 1.678887526945855 0.2646248793380797 1.8610012349139367 -0.8591006970025848
Ni 8.56394926313477 3.5546790528809913 11.191267867285182 1.1329342394231263 -0.9368577985784059 -0.2937441653015393
Ni 6.120418796059892 8.834348588520294 5.519110592417923 0.9561071337263212 -1.274283721038612 1.5087395329924789
Ni 4.5887525750774865 5.4756416958178855 12.87161404488422 0.001868163556990331 -1.864088872700325 -1.2239165814399695
Ni 1.8716489949846071 4.214771523675064 9.974560396480662 1.6913881304670677 -2.3720581247311534 -0.9654348388851502
Ni 8.835861673321823 -0.17276752856683422 6.201664991613237 1.233349444718095 -0.04942945827572132 -1.1267047135736465
Ni 7.094651659581263 5.970088285351834 4.072359797632573 -0.17920563323131072 0.4303342778551686 0.36134489516964863
P 4.068601996171213 4.4150891895946245 10.703107960579052 0.4563525562958012 -1.3129919362420872 1.0378162779713545
P 4.41387134085193 6.7769684341479435 0.8681683867722072 -0.7844877974827006 0.9323737946651234 2.432626887453146
P 4.188163373872557 1.694064505595343 1.7967448390201113 -0.7127280511408951 0.7681993447353221 -1.201273390119157
P 5.446099637680706 1.1530997845412008 4.510706000311765 -0.965072313339409 3.066207384428597 -2.7513382642229844
P 2.8526722878591846 8.182504275119925 11.1845161876647 -0.16017175652831125 1.2886497599522968 -0.7923085790787
P 3.0792198323808693 5.374624833062115 7.427879063512247 0.5365442354550437 1.4150408204857372 -0.8866426111765956
P 9.027156187193238 5.281468630372829 6.859495216106486 -0.7055526164383784 2.467066042967622 -0.4720897645253998
P 7.691665101179865 2.363097093296013 0.9644199550158429 -0.4305235110478392 0.3247568116329697 0.4388353733476442
Ni 0.6057302862357067 8.7092054040816 12.215728687928548 -0.06352835957094866 2.256619449444159 -0.7486247650375042
Ni 8.595354998893345 4.3141553619804025 8.657320434579397 -1.1688448372768063 -1.2602002463623523 0.5202586109211428
Ni 6.032789043346922 1.8477902309800023 6.429007828268408 0.6422389439813972 0.8162784596307361 1.1096824679840374
Ni 4.644948913651365 2.0300615928032726 11.067226282391017 2.6409057839013292 0.9458785140197773 1.351121910344589
Ni 0.8783115906185579 2.3375684003336223 9.180090310895146 -1.1691528554355286 -0.9862844286406499 -0.9607258634452552
Ni 4.621440742466626 6.140338003904416 3.3580850517534873 1.0045171495985925 0.7665623233525314 -1.0296540538755363
Ni 0.9935615992482271 7.766166075401515 9.949822382588339 0.4766136205376824 1.1834774995883166 1.8273606640413562
Ni 4.604916749298703 8.003203726138683 12.528776707238157 1.9155944967787848 0.3945756321983205 -1.1153723192799632
Ni 3.7430304322908947 2.5039431456139947 3.861396103953958 1.4789203927485175 1.0462042449247337 0.25195474006957896
Ni 5.942972698573206 6.565819295319873 8.06685846564888 0.7526266871080457 0.828621040356489 0.9602337543001851
Ni 3.8157784424132117 7.069353619789838 9.01641605294043 0.19558973101628896 -1.9970550153481221 0.4216334076470609
Ni 5.531127622625192 6.688877375093044 5.8491734348432685 -2.2217424350613157 -1.0728272468289006 -1.1899430527080022
Ni 1.6181242555868727 6.293934563513335 8.499858127825107 -1.7923689784575199 -1.827482791441517 -0.6762775216233451
Ni 5.823918757847983 2.9862020215941607 2.7465985849831815 0.4765251745889342 -1.7672372163868983 0.4710587521577242
Ni 0.19148918514770988 5.470410481900402 10.602656659398487 -1.465133366266754 2.254968544104297 -1.5022940344774516
Ni 2.5215558217488714 7.480571319112827 2.710099104597018 -1.779435044004671 -0.33537829590255785 -0.766435310856364
Ni 9.044556662410827 5.920414818452842 2.5782254606295694 0.3195922367128948 -1.1326038526669011 -1.056216377745097
Ni 9.349295631889598 4.041311112982651 0.5174611629328228 -0.3822222528392901 -0.16878932299399316 0.19613274800395256
Ni 2.534001866854135 7.955384710734247 13.377706774326528 -1.322275161316226 0.3859956038387933 1.519440721460067
Ni 5.872420506638475 0.7420140188320034 0.37994020672747064 -1.6332883981108581 0.11514325553376298 0.2152890092174292
Ni 2.5388824879517515 6.049451428417423 10.934731720087333 1.1331597251703711 1.5907911481785957 2.0894733184805436
Ni 6.430748798402852 3.762349941890912 10.147565959119932 -0.5692733502569487 0.23465841488297648 0.47248442886065717
Ni -0.42598319271547586 7.865642174975239 1.0669738905029225 2.092185318095068 -0.008150397021276286 0.19262884861575214
Ni 2.899605595087114 3.3590390332685973 13.468314720782995 -0.6756159767799461 0.37888367538436035 -0.8108346629073455
P 2.9257155340403362 2.5400357538065763 8.130189368107043 -0.003203594538962225 -1.548520926655475 0.7314901622397467
P 4.918383634766786 4.494055609206153 4.772657883963872 1.0340989770207674 0.18731952058769674 -0.7792915979937417
P 7.875071276604284 5.882947517361311 0.6237083169933917 1.4192980531001944 0.2388305439827951 0.20642050308320575
P 6.234130809345566 0.26702533080064966 11.698076544170165 0.34670631932086743 0.1460268324864969 1.2951713631208983
P 6.588137296142432 3.0951072227969285 8.110150220613615 0.6151171480639407 -0.03625769678045368 0.727949753186656
P 1.3164575863453527 4.583419873764778 12.29246792052124 0.8986797448467877 -0.8859234736223839 0.04311971400760961
P 9.25943315648169 8.803358028469455 8.400095095706702 -0.14876094358820832 1.7652356125758373 -0.8553903380305334
P 7.563698721928562 6.583764112020939 10.564644094210795 -0.6020867972425437 -1.1265720446505243 -0.05196302333085244
