# total energy = -340863.49754235824 ev
CRYSTAL
PRIMVEC
9.29023982044906 0.00000000000000 0.00000000000000

0.00000000000000 9.29023982044906 0.00000000000000

0.00000000000000 0.00000000000000 13.59720504906200

PRIMCOORD
 96 1
Ni 6.581828343376103 1.6723825234384233 0.391827942245346 -1.3629381862532268 -0.9752361412462883 -1.9437946133620845
Ni 0.7940340114075215 8.706673417374322 10.851236096392933 2.1053151706088062 -1.227146658341493 -1.1103987773247717
Ni 4.215808643327493 2.4351669551215336 5.939748281740078 0.52854707618218 0.6173177552596852 0.9573538616492285
Ni 4.196104044642867 4.5035738221376205 2.2039979173706894 2.2078139979056814 0.9713555752449594 0.10235664529205597
Ni 5.754959837328755 1.263658422009801 3.022047198745093 0.23978159504215482 0.6832567811546556 -0.3037344437450317
Ni 4.530980029643347 0.5456640946068965 1.0936108011406258 0.3628716162268202 -0.12741667358447734 -0.2606466114166221
Ni 2.7692532697362555 0.6085060639055356 10.613475633480963 1.281915783662573 0.35386632740441637 -0.8921002918570572
Ni 4.217954688728788 3.831369228820894 10.931092210920719 -0.8919573385212897 -0.5411925328603324 -0.32836432647856995
Ni 5.680963077063294 3.271688020354797 4.11550656897645 -1.2379231801317068 1.624648977268305 -2.5431192744784585
Ni 5.951987243695347 4.288300384740097 6.2028134999076725 -0.30957933256158293 0.4527743520262396 -0.5357937304422644
Ni 8.096666979735845 1.627111184734896 2.0293014604893567 0.052833598861263854 0.23810112201593833 1.043439537695403
Ni 0.7443702473112123 1.1519897392237561 9.312072825079886 -0.06667796094352388 1.0572669304967985 -0.9519892549032056
Ni 5.508982157284986 4.494144228707684 12.906004891334982 -1.4163729090335995 -0.6630263130403936 -0.3531659589032821
Ni 3.8501540937621073 0.0359132801203006 6.304724643797695 -0.12490933378159134 -0.4450116773616852 -1.9385300225290358
Ni 4.484900440074397 7.661094085191444 0.0186715240152573 -0.1208567609787725 0.019699278201140268 0.2612829594490403
Ni 0.2844950143891055 8.521881256867067 13.213437507870404 -0.06082921547223072 1.447895662232229 -0.27552532830066745
Ni 4.0214754065123115 6.281595662710829 6.232863709669714 0.6457305020744234 -1.1232625206613172 -2.095910589465455
Ni 4.037092299670658 6.287662189321419 11.778102885948803 -0.8427543944340775 0.009845525335512077 1.9960129472368529
Ni 2.825867991275204 2.9456935046341397 2.8425095978870707 0.7173020436648228 -0.5235956457141757 -1.1545050236153664
Ni 1.4384914454166708 6.698792462866645 12.049448494879057 -0.20823750168728652 0.3679413174402437 1.8131936285123547
Ni 5.752423601854497 5.716488954182582 3.8275992494968856 -0.6550669489840009 0.8802698748810323 0.36092991911941713
Ni 0.3949401725892167 8.991298495121082 7.198061099750288 0.8405782127183653 -0.8942685031529696 1.0923851143561703
Ni -0.0036445610862699965 6.2431247795646545 5.947580882942816 1.1864826049632275 0.5431920797888645 0.2767679424585169
Ni 7.661298470467758 5.081045839882859 11.383077243153128 -0.30343413889579357 -0.9933243662065667 0.8385640105018137
P 5.63047062357393 7.8387234707878815 5.654329817511628 0.8111349677565838 0.5762551808914205 1.3392711816535903
P 4.867323872537354 7.193061092672463 2.0866677624307495 0.5418173109285249 -1.0577659816204041 0.6234848033023456
P 6.088470157073865 6.968088644889863 11.336642766422576 -1.1186725872977896 -0.30951094121749273 0.9571180914893387
P 0.18435923533106377 8.313203889750582 4.476757544861255 -0.005071758095952555 -0.777196920248242 -0.11094875783644118
P 9.111913678865776 5.523056870631147 12.868625611369122 -0.3749133778827027 0.2515353931439733 0.35716119610560426
P 1.6247700442971187 5.93709498924393 2.0139093911349537 1.191670319811754 0.8614565988292712 -0.06196204352509329
P 3.7760923018178185 1.1599979259593278 4.163233318067694 3.888296537203839 2.0816317109489377 0.01729272564217667
P 7.613927537562097 8.657760304656474 1.0665854934680299 1.7382074048134515 1.3385972955150174 1.5578216352311105
Ni 3.3559876565944453 5.4633577894678265 0.3226165845175794 -0.7864904297350261 1.955302356891368 0.35777260443735803
Ni 8.183391368571764 1.645004186652194 7.306295180870276 0.8414462171456154 -0.21847280626204954 -0.7356301525500492
Ni 3.7262594553565584 4.450935323246961 7.711356140732963 0.4786265372026532 -0.09865914183581075 -0.16486607668018705
Ni 6.2673258543281865 3.914303199805172 9.76423437186911 -0.13617076562802355 -0.6136392779668335 0.24014874857358642
Ni 9.072430159577864 4.4709464998460575 9.258105821893187 -0.9508397146797947 -0.10287240858620993 0.6621382540084855
Ni 3.5519002341811436 2.1589123834638113 8.652418416752816 -0.02716267645772096 0.32261533980993473 0.09758519204534162
Ni 8.123785189806766 7.48188535882349 11.241706734598758 0.9211074777226845 -1.5173799822762963 -0.49207829183218477
Ni 0.669513210837266 3.9365440339640565 0.4278629245074517 1.1596377168562415 -0.1444530602414738 0.1989905291677218
Ni 8.88483234664121 1.9406567790800715 13.385877365496436 0.7825013631802911 -1.204206247495236 -0.466915419413312
Ni 4.791859254378365 7.571508302487133 8.003559267111052 0.41932070035348434 0.6905779974064171 -0.1939524525231821
Ni 9.163706765931682 6.187987206159066 3.588818718251315 -0.2055473564496331 1.280770100093904 0.08845134806487348
Ni 7.421480219432903 9.135325083243549 3.9775084174812596 0.4680598174304003 0.41711546517204934 -2.6499707223170748
Ni 1.219260365850524 6.881466448692103 8.273423082788032 -1.3956547026496413 -1.0407362798316269 1.3181511118455234
Ni 7.162904974176332 6.661891630252154 6.747137012906747 -1.8202963009954072 -0.8321660773952699 0.9776563206520066
Ni 5.038282865934093 8.642942372123716 3.833895245031337 -1.3777796221414336 -2.084526001777597 -0.4824847346064787
Ni 6.759374116814048 2.097624671289141 5.540181569714302 1.1343560594713176 -1.818596801805797 0.8241390933257354
Ni 7.203967834235759 6.963508556652465 2.316991388356841 -1.1990406441338963 1.4986096436473288 1.856110482480539
Ni 8.31857364837374 0.39821591115413846 11.522706760762896 -1.4642293663952461 3.205325148500086 -0.25245379119318456
Ni 5.787354903624507 0.4574560544697368 7.538576260329065 0.762808512737054 1.4376174202346725 0.02015230657815884
Ni 7.564299076377152 3.8544833455240286 0.12123019762160193 0.2011785379579761 0.5915846121596391 -0.44876651641842713
Ni 2.3872200273462614 9.13085647788414 3.9447398835442438 -3.0622743679227775 -2.4641990058324725 0.14484849590767956
Ni 4.751836901180173 8.972829498334171 11.709504684049977 -0.5566451199699769 -0.35442322834915085 -1.1293408656449129
Ni 0.651988102417333 4.195332954736774 2.769016368620528 0.811939208825434 0.4334638246230857 -1.7890936501403576
Ni 5.607049928956325 1.6474103587687987 10.396804014988657 -0.6100469326298849 0.7693380863254558 0.46644156510068696
P 6.11856124389117 2.7816185789532457 7.821031138050964 -0.008751006719752671 -1.7995384996227652 -0.34699428287493145
P 2.561830084997152 7.603745434705733 6.921127411560812 0.12198264705309961 -0.051512566056995154 -1.4519950291125832
P 7.564113271580503 5.193847931928462 4.937090786607101 0.8785510924177128 -0.2670676844516175 -0.6760970301814228
P 8.052055248060423 7.896583084464378 8.386144349747093 0.5287139407773475 0.5113942185519773 -0.3491290698297471
P 7.247706283366933 2.5219563756362784 11.765009221928947 -0.8530886864805501 0.32113926948504046 0.394524724355727
P 4.415242221810689 0.041667654672519906 9.28738029662922 1.6100736505572915 0.5255188308788176 1.0177210498833764
P 2.3552244413633048 7.026319868159657 10.263741767916448 0.6758080381860941 -0.4095301966256237 -1.5372510101686105
P 2.4691227817091375 8.810947069253736 13.336002712955931 0.598346356363505 -0.14601397697069046 -0.4822358518204663
Ni 1.8953482794172147 1.5409813712482552 12.41510490249241 -0.9077973908773398 0.7694956949492425 0.8188904433322864
Ni 4.447423612590295 1.8976615491354947 12.500563031639164 -0.32819977587624766 0.8218086454203459 0.8266292067374409
Ni 3.1390326857872486 6.4095687164028226 3.6558673081460875 0.104418155806775 0.20142767785430474 -0.3445728179176324
Ni 6.725102422072142 8.614746494232232 12.853437927291033 -0.7193787236881933 0.17369241672256536 -0.47201057454803225
Ni 2.578441033817572 9.211941691141762 8.258438854962275 -0.7662684462611965 -0.09054499736910858 0.7719086752661093
Ni 0.002913419211456209 2.6721795537269895 11.002246157797451 -0.22065284463250384 0.6583942135850208 0.8915883852176452
Ni 7.659189586025792 4.659361853887969 2.2777633506643227 -0.8293311790496363 -0.8089896392788066 0.7440104061939444
Ni 6.714762385138625 6.293496459936197 0.21016659256162565 0.16345196994147979 -0.16478868647503234 -1.3379388359954119
Ni 2.3027252960701317 4.779233818446066 9.507098184762587 -0.8825797539611315 0.3714799267211215 -0.08268384945347694
Ni 6.684736330000148 8.991911650950023 9.749671920931746 0.546270461603872 -1.5293335550937468 -0.11761845654713292
Ni 2.1425615613586997 2.3064785529624414 4.815871737273298 -1.5764209954998527 0.3129194526784095 2.17529982732806
Ni 0.398149950451328 9.08477688831519 2.2387527045838835 0.066266327327402 -0.018793221447103117 0.45700561649876775
Ni 8.809274826083897 2.871984741803484 4.063008352707261 -1.3646245728167143 -0.7304614638649162 0.8407026541113715
Ni 8.654601623113441 3.74628921243532 6.266162716301163 -0.3035328692571869 0.0037023885522516884 -0.2872906963667117
Ni 2.2359284716748187 1.2727814375252666 1.1074207426515623 0.5061517392061153 0.2561929465206427 -0.33235236459204054
Ni 9.187712745658732 6.93675266593501 1.1417481788324637 0.20341488348766257 -2.23211375099331 -0.01827540127042014
Ni 6.851263878996809 6.121961471669846 9.409823799572939 2.8686772418564854 3.222336081235786 0.6285357354626917
Ni 0.324166196521632 1.0222050887644347 5.268087167453549 -0.8432531884473671 0.1220906333858736 0.11108194098019579
Ni 2.920684179005185 8.188185132325307 1.842326093621475 -0.9017648115300146 -0.6298847932914184 0.022784859104999472
Ni 4.4725537113370715 6.087922032923751 9.74878841912368 -0.3113467088746509 -1.218230586798786 -2.491034895078394
Ni 1.5304090783189275 4.677171243646774 4.75467042432907 1.0041649084654964 0.15539387552369366 1.5394976401109421
Ni 7.786261486454038 2.1501981385009734 9.354060993026625 -0.5138275105838183 -0.1489290937349564 1.1956699278894505
Ni 2.127399889952142 4.459928275404772 12.1006962448668 -0.39343843327008365 -0.5205198350023293 -0.1607983343687166
Ni 7.689968150590698 8.964087382651837 6.072770580781008 -0.9548899734897683 -1.0791670730039995 1.9643089312653526
P 3.7945241376453986 4.437325121892422 4.540174580005522 -0.27399115104432814 0.14604714420147105 0.6099034650734851
P 5.880842587058448 3.0468920871290135 1.8182866690310282 0.5838687315726203 1.5680991058977187 0.23019009469897772
P 2.025309444433353 2.8719104198848244 10.624040494218425 1.8226498888292482 -0.6715898863396885 -1.5634929745842752
P 1.8512475109325761 1.7122655230391295 7.060960385422912 -0.21779892012347649 -0.31896617309312164 -0.04889261193564483
P 3.1576781971309758 3.4242802096027827 0.24267035466341721 0.24259438190060156 -2.196104936998869 0.03499554223857844
P 0.7739931060409612 4.780590193461604 7.445244652924309 1.500007809546436 0.672360445957126 0.10962952480438538
P 5.77822259786921 5.208284964628088 8.050700731092851 -2.419442270442072 0.30377840960908975 -1.2089931273609178
P 0.9343101297096286 2.08021476184313 2.511974941960294 -2.06394123564771 -0.9121322708072679 0.7437980330728222
