# total energy = -340861.20099924883 ev
CRYSTAL
PRIMVEC
9.36898542415130 0.00000000000000 0.00000000000000
0.00000000000000 9.36898542415130 0.00000000000000
0.00000000000000 0.00000000000000 13.71245719980561
PRIMCOORD
 96 1
Ni -0.06100802375598038 7.229118684542933 8.901976365838822 1.0721086234953214 -0.3987567601592036 -1.334701817115353
Ni 5.197332352894796 3.718138162953353 6.48634925103638 0.4733642603624493 0.6516826058928004 0.1450909509357888
Ni 4.968063905433674 7.241935456890889 6.332851537995473 1.144101054673223 0.6136793871761496 1.3489755534255479
Ni 6.452073753991234 3.112011637331296 3.734739068599071 -1.5187524371437908 -0.08607513452321305 -0.11010132223448137
Ni 7.921917696269476 5.577816228496271 7.984297339522343 -0.9519612298787477 0.39206674973353767 -0.3013659435128552
Ni 2.7313591199884013 5.063205954551719 13.117035220960284 0.38420380204569315 0.6687277343005451 0.16390602675976287
Ni 7.676300368876202 3.407415754386145 8.540049640083543 -0.9464819519317311 -0.260206695665726 0.6018271158232539
Ni 1.735726385598875 2.2742182039256913 5.0772566223077344 1.747103421751501 2.4564939238787304 -1.1928743674221842
Ni 8.501942227913899 0.011069456527126684 -0.08966306631900785 1.882387928119829 -0.11808896842564824 -0.9627562636117225
Ni 2.434530917117113 2.66990794321191 12.933301917479813 -0.8730635869405802 -0.02837366604668662 -0.5882537480141933
Ni 2.723920145394632 1.7780648316810463 3.078336692265319 0.07073053374634271 0.4939179161440849 -1.4046895591584
Ni 0.38861896582788474 1.8436664690936073 6.595733095217385 0.03753964881667083 -2.004421740125838 3.1410066889276744
Ni 4.983325983032226 1.897200853008971 1.8735469749776237 2.4699199674766494 2.1953354058226964 3.0753103751711297
Ni 3.5474258757076695 1.1435877555290819 0.6669968252892111 -2.710978372348699 -2.0906925355996253 -2.3045882640139537
Ni 0.7877593025232797 7.024874797711481 11.721819933753414 0.4682788754197419 -0.40516163524428284 -0.5977092370001383
Ni 3.8736539554999263 0.12170687098602324 6.414838594384159 -0.5698824445958572 0.29864185971347273 -0.21242068653069868
Ni 2.756627274244568 8.987058935081137 11.652284259272939 1.155233931361591 0.45985568435305313 4.2048124489842555
Ni 4.786211894268605 2.9042731188581854 13.216875816374015 1.1493800436839752 0.8247011364767927 -0.035466825448042145
Ni 2.2770757445442045 8.316333253509407 0.3757337998847977 -0.7284840284235712 -0.15229081111833773 -1.2967963003188312
Ni 7.266538413167008 5.640832025873718 4.991731836943472 -1.533233147258469 -1.1001272201954346 0.4206121654713981
Ni 6.944873029378738 7.341968116510128 0.05007254372342663 -0.787533783397876 1.7535064970643672 2.348337384075446
Ni 4.412164511798011 0.5688182879270332 10.11496675625237 0.09848687792400457 -0.6866485804450239 0.2521884533469399
Ni 1.8943807883329953 8.497079724369609 9.878783060494444 0.2638808020832036 -2.071331100353878 -2.758298240480585
Ni 6.216153326729637 0.5773393803615838 0.3601691040502522 0.5005937855023637 1.1176747421608946 -0.8335958678632611
P 0.673894272513308 5.094732591211712 8.024969043060143 0.45335516423037403 0.2010687518529892 -1.0344938984663408
P 7.119651456389782 7.496687545277771 6.151572908751233 0.5478666024463984 0.8459924417554011 1.0797753960119598
P 1.8153252875493346 3.4197828154236456 1.6015737540960213 3.3102636955867055 2.2945139104970873 -1.9845751377135563
P 4.681447896903957 4.788685306476105 0.8796090900893729 -0.7298148314198528 -0.5491058741701381 -1.3587362323567374
P 4.7764587802231215 0.20161588636098407 12.4292045823157 -0.49838263678365774 0.6081234903549269 0.07181631061135374
P 2.859564319410493 6.485839578217865 11.340119963816585 -0.11370626597692031 -0.5030630729784626 0.6117436036060174
P 1.2520243952624412 0.6008705246811195 13.101704749766599 0.3163739868859132 -0.5709720781156102 -3.481577327664449
P 3.3425261598818037 2.6293870803428265 10.815755638927989 -0.9624515878871103 -0.11486814749550539 -0.13782244229883361
Ni 3.1929971491556577 3.7781558849277705 8.723084017235683 0.9096210743496399 -0.9743066874534831 -0.7724162110301471
Ni 6.532206688122859 0.7402276277039215 3.6696180601495585 -1.246087203999738 -1.372495748034675 -1.505590445840536
Ni 8.100012744195123 7.69560047928321 4.207283533943414 0.7133674844971069 0.7164813475357402 -1.5888839038535538
Ni 6.35087934015332 5.778537376729163 10.037354079256417 1.9518815041352768 -1.1897070254377962 0.18449619220628868
Ni 2.203885228767722 4.563080132398059 5.927017997962812 0.6096401841097694 -0.7953026287100174 0.8867104883000535
Ni 1.3141876149471519 6.524627178744573 2.4412700284839874 1.0986192681913403 0.2988120667427499 -1.8071589922825004
Ni 9.429696661381689 3.608343020302996 13.79528045040224 0.13149778563238645 -1.2505712079130205 -0.4021616720756945
Ni 5.503988621696645 7.4484279002746145 4.035493813349766 1.1657787967569728 1.2187252670470172 0.06218675794138968
Ni 4.278216124181989 2.2512173441930665 4.8116739865274045 0.5154755877102026 -1.1528170943899825 -1.1833836543229297
Ni 0.4842191583434564 2.5870392652750205 9.33050439977386 0.2536336704338987 0.13301576493880965 -0.9337853303006692
Ni 8.936719375267128 3.7883774482549777 5.986228113375538 0.9927186143017676 3.5347814224912546 -0.5123866643722337
Ni 5.6215038085098055 5.733884791195277 2.4832159140680745 1.5544475765525552 0.64084874850209 0.23880560428213066
Ni 2.436816949611923 5.935355458278927 9.043530495992908 -0.18608924772502144 2.110012576084476 -0.87015206972074
Ni 8.82329843517623 8.996690252313373 6.154041636465916 -0.7839571217902112 -0.18138207205733922 0.18114578767681705
Ni 6.961662251635709 0.18568205249244038 11.959456759183247 -1.3185434621879355 -0.8082414482588726 -1.472637130842967
Ni 7.430542506698411 3.576113709720418 11.745734269585402 0.46713113496854386 -0.39954943126382797 1.2929535295339734
Ni 5.260301305344072 2.0875505341445044 8.255900485471383 0.18877167965319103 -1.0472473414772674 -0.36031799656703106
Ni 8.967046781765909 5.102059137977868 1.850166671326803 -0.43399244343304616 0.22411766325265273 0.20375606887716521
Ni 1.6589007033962182 8.685461918521904 7.330405851338629 -0.8555587452875973 0.5107702118147333 0.23441878806834465
Ni 8.589626564466908 1.9318192549283386 4.478858572935552 -0.9112364984658758 -1.4732801637436046 0.6760029278057197
Ni 7.6824089475098765 1.6758304604377061 10.331801622877988 0.8178702295978881 -0.01893848877571577 -0.5475506138678764
Ni -0.07575387024607322 8.041231728324455 1.7896954904476778 -1.9380204298824688 1.612607729833055 -0.4689424771456698
Ni 7.959571649534412 5.407853460101345 13.292362670529506 3.867168239865656 1.8366644579407854 -2.5586927034366838
Ni 2.5842941524841208 1.4313280423349342 8.645060041770378 0.1939874195261756 -0.578425706180178 -0.1331152666311514
P 4.552699296315066 5.431744373469244 5.261154819935372 -0.8127663327124196 -0.12854101699690765 -1.1535976813097488
P 1.1173827027094683 6.838244603872832 4.458303955352087 -0.5415380891252093 2.394979252303701 2.478299706899912
P 7.295844600231631 7.122780697591695 11.759186259159373 -0.0095750452829448 -0.26664139554747623 -1.8635491981467713
P 5.438658684867483 4.220493803688018 8.726374404990509 0.238490387034557 0.6593331804595225 0.8227797510843637
P 7.37475019724514 2.6066017072797947 6.505614696196542 -1.8077858272332221 -1.8495053184591954 0.04125514999504508
P 6.8939900683979305 8.055125934020374 2.2459772705277072 0.4439397844537451 0.13642350506877793 0.8559580376085452
P 0.24669757143692833 6.679056168957547 0.003548971758337357 0.4910117982408834 0.06955322560878989 2.0645356746985994
P 0.5470372701240165 0.3515974190932753 8.972348690736457 -0.9595076747674378 0.9114298454236045 -0.5331267251330625
Ni 4.480717379685431 6.976287238211118 10.108165809580306 -0.7112131571582654 1.9848034516742787 -0.9776339520545034
Ni 8.063417486306882 1.2095173074388492 1.8463141444339088 0.4954865461827854 -0.9576937614871507 3.226517466306985
Ni 5.5067618414444475 2.6212173248695687 10.73239789994098 0.6862742278247408 -0.42262302525383993 -0.33788229327133423
Ni 0.9800240043224989 1.5275756317578477 1.1257492068810502 0.38240814359785114 -1.0337287381655424 0.959977672425321
Ni 6.681707591892101 7.645270288454837 8.539172703028157 0.03943352340527402 0.16685199676196427 -0.7942453910900966
Ni 8.60663127339347 8.44292698740237 10.607847541814893 -0.3018966192053446 1.4221517204989054 0.3749930820807026
Ni 4.6288785185089445 7.45231602931292 12.836628976109095 -0.8628539933974302 -0.38902590602468484 -0.14325004107230813
Ni 9.304480168376992 6.534155437134829 6.319303984768028 0.9376607540956755 0.08128131267899551 -0.581362934431631
Ni 4.378436163513918 4.623959801050847 10.974957190423162 -1.7672511003439695 0.7381773444519352 -0.6590570439800005
Ni 1.7546892125230429 4.417008277371032 10.57916064470071 0.2240796109258657 -0.9841221308820083 1.671917937557598
Ni 6.195841365874105 0.6722715642014179 5.846704242408442 0.8062938376141985 0.26875921322142743 1.5703915014763212
Ni 1.4312718284211272 9.420140296034528 4.956737738700162 0.812213288422427 -1.7881852793934752 0.06873612902413324
Ni 4.981283544163911 8.645877954216266 1.324168395343553 -2.65343579804754 -3.0142168502939186 2.359776736260639
Ni 3.7082070381808148 4.548736215391685 2.9745882929434484 -0.9897651881003986 -1.6602903806209985 0.2725865573873177
Ni 6.924214416054731 4.250586985545937 0.8705202371253733 -2.600128344873651 -3.033844137606543 2.1748102892861514
Ni 3.3415236784189153 6.606980562471566 1.4445935890947808 1.9855105050436321 -0.9987393665745509 -0.5047862263171564
Ni 0.3763896288792107 2.1867961989704487 11.63585667986146 -0.3384034558821269 -0.19687451126598352 0.9196720308277386
Ni 5.935692741761768 5.317892460039161 12.46262188027673 -1.453830282549109 0.25883269813633486 0.6120901883121588
Ni 1.1021862080103573 4.888895976822399 3.9043205192786745 -0.3670478590916969 -2.695171230113113 0.7695435174680424
Ni 0.354141098693034 2.95177387602495 2.82641216374292 -1.5007256615490672 -0.8531012848860404 1.206852169758515
Ni 2.748579315584558 6.704521071912037 6.528404753752391 -1.0462993757417014 0.1415932221951755 -0.46704088924758275
Ni 3.2323281508491637 6.79873559145227 3.856587411268175 0.2590774671572893 -0.14446514442633185 1.0150900400184324
Ni 8.109156874174365 1.0090678597893568 7.949591806036575 -1.5956903852524262 -0.5857330384748686 0.625790825727703
Ni 2.5362781011074604 8.829575655551325 2.575268071723872 0.3453544332786633 -0.3331437501450843 0.6705545030966387
P 0.6032933443661935 0.48566947731967247 3.0745656755474453 -0.8018679406323609 0.5770625072840643 -0.1901760161998854
P 6.450921368758195 0.2624074865488082 9.272693073916361 -0.41453304915685385 0.42689517026663254 0.5061095731142703
P 3.3184384978155808 2.2807015419847447 6.699138589665034 -0.7433768863750035 0.7238177332961535 1.0501380327615009
P 7.474042706999256 2.15917642932003 13.914304980801113 0.7262014030369817 3.503835110621385 -2.7507908763599462
P 4.0893280048054335 -0.21348264356560417 4.134772269625431 0.11480412702678938 0.8250392365425017 0.33562640735762195
P 3.577509688579954 8.005058074789765 8.159488001901304 0.33176898128474475 -0.6669295047495417 0.23365671309133954
P 8.194077359965204 4.142956078577141 3.778440702091058 1.3759073448193853 1.1160431200947425 -0.34739074698240174
P 9.004972435614244 4.342037654324002 10.529782342812796 -0.7949966674338244 -0.7346580184447671 0.038350317643424274
