# total energy = -340870.0230258182 ev
CRYSTAL
PRIMVEC
9.25549901925513 0.00000000000000 0.00000000000000

0.00000000000000 9.25549901925513 0.00000000000000

0.00000000000000 0.00000000000000 13.54635837485841

PRIMCOORD
 96 1
Ni 0.4964936487266823 2.388492536369171 2.9570346901067115 -0.28454655796267125 0.5889764851128307 0.5880439459962324
Ni 6.8855728138068635 0.3729651337316379 2.5191487110051463 -0.31170486354501803 -0.08291113497293462 0.32881529797305953
Ni 1.1574464048780784 0.6772026354288696 5.177404792618393 -0.58343241536615 1.4702588604187776 1.7305054081835038
Ni 3.816023652300364 1.757943168290095 2.9974293891547297 -0.6899902432237471 -0.22600896673809465 0.5178939673437081
Ni 1.7308986007393874 7.8034406317410445 6.355626090146821 0.11058391829785472 -0.7117921695901871 -0.6495506471514619
Ni 8.211339720217168 0.2658142238977767 6.141877749308507 -0.11976764167965179 -0.036369539767969625 0.830384302904499
Ni 1.9007740260732984 7.490910203101501 8.798643695611808 -0.2829406469281321 2.0840693738561527 0.8093714480982577
Ni 5.097808428320197 6.564166361799377 7.072418196226407 -1.2248380648129744 0.42410500911600507 0.18973095824266678
Ni 2.786321642129632 0.637798274754543 12.912212198412991 0.5536898939963948 0.8146056999140036 0.5734891881105092
Ni 2.0804140026618287 6.132915649801542 11.711436175811217 1.7653178878769986 -0.667171959777651 1.1344244508154078
Ni 8.248333948998887 6.15570268789526 0.7392690849628499 -1.2333098497294115 1.0868914382314507 0.6086289692364356
Ni 6.706377101161671 5.141605448734279 7.816803720936702 0.49425653043042617 -0.40879280423896686 -0.1554391269393323
Ni 4.504780852455552 6.77906978889037 2.463920223999045 0.7033242413284919 1.7559081645273245 -0.38761745571293243
Ni 2.800315956344783 7.633963192856373 13.602846413728784 0.3511319591923888 -1.6634386964419936 -0.923163588920765
Ni 0.987274803581942 5.478061341822344 9.952116714846657 -1.4098947575084235 0.21554997618829974 -2.031503683944295
Ni 7.931684823384646 6.657498811895659 10.145205856769866 -0.6989644216978995 -0.745866999786709 -0.6256962091313676
Ni 1.9852952412933744 3.449691009022811 6.772813071688358 0.36203112260339587 -1.1321562236065212 -2.2225155657819142
Ni 5.4400212416740175 1.7647922374165577 6.143476173954642 -0.2635946383013525 1.8438630325717535 0.4868334984934777
Ni 8.610936626252164 1.205908196697211 1.1304462637217048 0.43071814355714855 1.8846867514563348 0.6049651472316032
Ni 3.507852563604826 5.9087474683921855 9.64499334861749 0.037676945725483496 0.14177191386488486 0.48084128546578475
Ni 7.372939615147593 2.8241210993086496 2.498693133064072 -0.5247775818374188 0.28923830701138575 -0.865248975992168
Ni 6.30833511892836 1.5889932928381383 10.867619752832445 2.3211559385646474 0.7913441582829016 -0.6204668424116282
Ni -0.02047316338883139 5.5318820674579925 5.502029381565435 0.488005664424708 0.01858213387756155 -1.1531541660144269
Ni 1.0169386772985807 2.292651846092793 13.145548876952988 -0.8225450093657382 -0.9173145863391556 0.6657707085547502
P 8.410767953281884 1.0718608072937548 11.620039050518102 0.5281408418826969 -0.18032020645172817 -1.009642643750616
P 4.253466293008473 5.493499513853344 11.758062602214434 -0.2800579260636983 -0.8357807913297219 0.0140860457794209
P 8.187812242217888 8.311252829974146 1.3030270713605685 -1.4188468244953887 -0.30594610668436983 -0.289174800763302
P 4.735511182527965 8.93514749440197 12.524312391786136 0.5885537957531155 -0.061611087943577766 -0.2496147790824927
P 9.251259801084677 4.3598119744450345 0.4883552886146572 0.658014461648099 -1.454713713595327 -0.16008536746209204
P 3.3368294564172913 5.617421387548219 6.0182270617290445 -0.8748489609757772 0.8244206291218963 0.6666551680422325
P 6.37472481196095 5.724035478450546 4.447337524581934 0.43190676454861104 0.2651378144187563 -0.9087702963135704
P 5.248238050634246 2.5011874899959388 8.278693836226754 1.734541268815774 -0.6253673650370392 0.23756967499250053
Ni 6.455173607700426 5.405433442585381 2.1760871684095733 1.0328959578516017 1.0830805491257927 -0.31380159817304665
Ni 8.960183618708838 6.624632535587458 7.5422189863575255 1.052745131367045 -0.3376298109408959 0.7630453113382084
Ni 7.159017270931471 7.070895666670593 6.019229432251201 0.1475707799348491 0.057502465091842904 -0.6118847571695719
Ni 4.875870822126351 4.291247239189852 5.329801208431596 -1.9023857113979945 0.33371273527467693 0.6189164672053727
Ni 9.024351992024735 8.627133749186365 9.975727492335313 0.3702149439657689 1.3175831551571953 -0.3772857347696212
Ni 6.704757388868251 3.4561235807023944 4.673344773606734 1.7989728569272823 0.0649622638039978 -0.8700654235442048
Ni 7.462977107664116 2.848962858140306 6.841642514209779 -0.7737560128874933 -1.1084287980825942 1.6995948346475764
Ni 5.875742359601692 5.237233262537808 10.024643729146485 -0.08005438225042988 0.40720077716149866 0.588824790026315
Ni 5.678831622215893 7.112647221845556 11.877135520077749 -0.8671850166726163 0.538976241935304 -1.3722034136052368
Ni 5.980792271203517 7.689755339740585 0.645062915778003 1.4786041470596791 -1.071622170777206 0.26966089910009045
Ni 6.070681675738928 9.211063169711396 4.924452935430137 1.4616191824659086 -0.4927534635223385 -1.4193268494556008
Ni 4.066838414811187 -0.10477687438664818 6.158336802859302 -2.719112057199427 0.7361849966122547 0.8988108711080133
Ni 3.0738066909634894 5.607369915830193 3.746868416220495 -0.7197664460449151 -1.0641238055176319 2.149034722983944
Ni 4.231216073846289 5.433014829067623 0.45870252149660207 0.795005923405205 -0.6392760046983313 -0.5441832400575403
Ni 1.3564118630018163 0.9220179836048648 10.965113475197992 -0.21560576912689963 0.49193251028293994 -0.18504460851059099
Ni 3.115262070176227 2.025316018189083 8.376837294609436 0.041917723279708455 0.42227926876117594 0.20298396659783108
Ni 0.8416663706029933 7.270925507158578 1.6781367041686948 0.055837418684594166 0.10854477638063888 1.2330342274705217
Ni 1.8812819455593388 5.483475808631777 7.714271305013793 -0.06745906208392252 1.3112147897370063 -1.2472987078093356
Ni -0.0736691428541607 3.0478265057770293 5.34227762084034 0.9528284629750493 -0.007114499557594199 -0.23919024131505903
Ni 9.103579061920032 5.914504388657942 12.145204383487966 -0.7151238050665814 -0.7522698179892593 0.14301889889810854
Ni 4.26024131814438 4.370983361520224 7.848068795949121 -0.29566555069396827 0.11950358938498773 -0.2550187237068834
Ni 7.709441785729755 8.1177296051563 12.298101521787308 1.6527359653125084 -0.7756576007855803 -0.18487851524637192
Ni 4.239758899256729 0.9177317621015341 10.753925205333164 -1.339614681035938 1.1947186197197748 1.7921915723393909
Ni 7.904621744836299 7.434211017332974 3.613829876188369 -0.01840112821500702 -1.1718859380959754 -0.1004368025615238
P 7.866063336754078 8.20539768997502 8.183936964862145 -0.9740356931802838 1.2600824898375653 -0.1029711389476033
P 3.017644324126496 2.645610293576104 11.797956578776315 -0.8591729450014172 -0.6805779487709117 1.306237391127073
P 0.8568148455209411 7.66062828495548 4.300155656803663 0.015383167324289636 -0.26859286284689227 0.4948067465069414
P 1.4039851269342727 4.065644455463466 4.0353114091821745 -1.1215388531019912 0.841497382098525 0.9203073504188926
P 2.136631902491739 0.3015376726915707 7.603354332710259 -0.9970802337045731 -0.9550028449185489 -0.20102709998177634
P 3.4457296555280466 2.1432403286488935 5.30442910951758 -0.21875048540346842 -0.5611376085236915 -0.5014237376028268
P 2.263413725321853 3.8675860362240435 9.030245893673023 -0.6143429889020775 -0.13916712925218613 1.210877231757508
P 1.717024608008891 1.2671333213884948 1.6345988377215597 -0.01641957900860398 1.8471363040063866 -1.1707104297306352
Ni 0.6991677852274116 3.579027349527119 11.175041146123599 0.2236147554743052 -0.49690759490002806 -0.23784992523708068
Ni 2.108300820605115 4.266016749407775 13.279413933029698 0.28209938197375933 1.340256685495311 -0.5378164172992479
Ni 5.301031415900925 3.1268129327030176 12.271402184342568 -0.4917551041648111 0.7148625809853947 1.6766204852395898
Ni 4.9767650147582 3.869103938030449 2.7337365255863926 -1.6017335061227125 -0.9497292552244353 0.7342906078030192
Ni 8.755748160782748 5.016563659682239 2.954108101379972 0.8229653847326084 -0.6400308805864848 0.07038754858462716
Ni 7.78790064922303 1.0228621965430889 8.939661401176263 -0.9219130043431155 1.0921236331646673 -0.8718921923402984
Ni 7.804375437121818 2.9365846654649292 12.580679305147042 0.6889103798960071 1.4332486017430155 0.18550303620424827
Ni 2.388325937390419 3.9028217202300475 2.114139189260483 -0.3738348001065433 -0.19101959514710326 0.5268727738035507
Ni 0.48769999929823343 1.9941897756589564 8.087460421816864 1.3398111133174604 -0.5318969664910195 -0.541521634064977
Ni 3.6951375822182992 2.5890499402898706 0.6910488616629075 0.5754134017164155 -0.1461132215527161 -0.7094727774283911
Ni 2.8113114889424007 9.042937033654379 4.096811422188399 1.026348386541071 -1.2726001626886019 1.181058862844495
Ni 4.31969864256113 3.443665679291288 10.240071017470664 -0.805251255282297 -0.34161810616468263 -1.6791188261814114
Ni 4.62397316625364 7.25546882412994 4.928165316006656 -0.05260219957674811 -0.8246597417158958 -1.4336391523132148
Ni 3.074760007341902 8.133093733196745 11.186717883434335 0.24481041571531384 0.08207758332804574 -1.1204165665720898
Ni 3.929005526390538 9.167034761826827 8.879027702859547 0.5832213277966085 -2.2574925960777312 -1.654093250671351
Ni 2.7040124911274273 8.786855892315236 1.9411659484716706 -0.11202707850228448 -0.699033584372938 0.026425798291696424
Ni 4.704329407004922 0.2650247298484696 1.0338956766858671 -0.00026328096371567563 1.7273002709826446 -0.1017984587957408
Ni 0.08197965524422927 0.03656662473625455 3.1587666168276116 0.16620870675101052 0.26746903365509417 -0.41624900340669607
Ni 5.997887177523214 8.944014262271095 7.226616657659775 1.0216445533074985 -0.6030465900526517 2.189030032429959
Ni 8.269343931319252 3.452227015699366 9.232872827129771 -0.3576383928523389 -0.1936089531408343 0.14901831101465304
Ni 6.42160391348194 8.613842852881499 9.996060897691969 -0.29077351270898955 0.08016802501015871 0.16497766255738683
Ni 6.951462709903197 0.7860213861500126 13.202009270851969 -2.374680392845349 -0.16302876636113212 0.5739478729144825
Ni 6.545405465692161 5.240907695569167 12.791907373656793 0.4986024661039478 -1.1524458270934927 0.5606951216696343
Ni 0.5613163858091228 9.017067914453754 -0.07564704295189725 1.0419464980896442 -0.9333952939511021 -0.9688191819763506
P 4.880489316037303 9.005859505383286 3.13655064301106 -0.6936864611284118 -0.9405033657507933 0.33613908532798237
P 7.7565985522153325 4.604666195716072 10.91378618094433 0.4447021165410664 -0.1567997547322848 1.3815506591480917
P 5.198295379003986 7.212606609096632 9.057284907924437 -0.6480591502076001 -0.2318579693197039 0.28713488751513777
P 7.750813865453116 1.5607825324361682 4.474768046433417 0.18324277941516182 -0.36336269693062584 -0.6869820525250426
P 5.9379948446619455 3.438880586401584 0.8322350173058779 -0.022309976351109966 0.021114670491428154 -0.4041231666774395
P 2.551296760604951 6.033585636470196 1.714467313685051 0.30436590668144353 0.39829884668617854 -1.1760272139578585
P 0.831096590951074 7.8957086994730785 11.571665185937755 1.064610001125431 -0.6597242452503541 0.8145727897935391
P 8.722502409022946 4.455134356787518 7.425422921203817 1.358159791027977 0.037236001533322974 -1.1293655482352614
