# total energy = -340889.7984745449 ev
CRYSTAL
PRIMVEC
9.11423696630866 0.00000000000000 0.00000000000000
0.00000000000000 9.11423696630866 0.00000000000000
0.00000000000000 0.00000000000000 13.33960708138664
PRIMCOORD
 96 1
Ni 6.530250611558102 2.043630695134194 11.190823034052688 -0.23273214439454112 -0.37018151962467216 0.9269389968027971
Ni 4.861060118401386 0.42244853437521385 5.84217401743817 0.6483437713275543 -1.1068941066056228 1.0918451826923004
Ni 3.1476291184560057 1.4618051426274083 4.810182624170713 -2.003185296615576 2.632381805590718 -0.1317456399771344
Ni 3.841076732487465 4.418855563730516 4.792400747626692 -0.9714957003672493 0.5661782562713926 -0.46520743558326977
Ni 3.353492391392872 2.7480427363734745 2.4699482231500727 0.25747155612275013 -0.5639262270124223 0.22049266490555575
Ni 4.922262220396827 4.44798466543974 2.5738906285107324 1.4580360931003407 0.44002065190499706 -0.6297855487093927
Ni 4.803130027517836 4.87435779030181 11.044634316976575 0.43129689887875394 0.06755007913583205 0.5130235266252842
Ni 5.914793524224334 8.319867519259237 12.341657698883685 -1.1925169840827656 -0.4422665105163803 -0.5831231116558474
Ni 1.914181185880096 6.532529170828222 0.4705452748726301 0.6007827337191395 0.9809329345207494 -1.7427862824333855
Ni 2.829469330450509 1.705528956396601 0.26215553541705333 -0.413783572585339 -0.840235998887598 0.7487474066582975
Ni 8.204472163583244 9.046199300677078 7.004067897542624 -0.6678638436383529 -0.1999814323260814 -0.44535029164802653
Ni 8.71383953130019 2.695553845026974 1.4047810069096591 0.6693028900777247 0.014713909171406917 -0.6023822169957754
Ni 6.943152894015217 0.98506674365859 4.78513032070759 1.0596683408494396 -1.040244427796873 -2.5144651010768757
Ni 0.5971684592080708 7.415525573422483 2.2770572438498573 0.9520129090522894 -0.464437904407097 0.04273173454057157
Ni 7.925521823497984 4.032029113560662 3.616181109679134 -0.34434321840532955 -0.587519183841014 0.2336829383435846
Ni 7.801960111397877 3.739179561927666 12.531800735704133 -0.47502416456337543 0.9498313280199383 0.17534846426874962
Ni 8.345943351546499 7.487901730078598 9.060368293642398 0.44179162776249076 -0.8021312215960766 -0.44412901764641577
Ni 6.780718960766851 0.8843762980882474 0.3460976589283007 2.4999036583229333 -0.05096646374553803 -0.9099182938750846
Ni 1.9082660460148624 6.528664734306097 8.962042081170733 0.6397899682202723 2.393809914585948 0.37075873228438083
Ni 9.090266636961214 5.218474925512521 1.030460201437935 0.16054379515574932 -1.3649534169110429 1.1012297092309937
Ni 6.689932045208161 1.9717649357545866 6.714077482081777 -0.23796125400396434 1.5334275226574623 2.6235811765799526
Ni 3.8346511953457245 4.76280864267378 0.34249024389184557 -0.7614982785660627 -1.5764829590860396 0.5856067973096496
Ni 6.050304001136953 5.5732466038703175 4.602911201604912 0.09190305405889979 0.788461694528784 -0.20237924313429662
Ni 5.393577648302759 3.1336478787745445 8.954277662601868 -0.08159627281625302 -0.5145263364230559 0.6066883005702971
P 0.0062787979247446585 5.685916802659247 12.295196052518506 1.6674994967749281 -0.2611909139558663 -0.6944883882044167
P 3.976578095163004 6.441259200704266 12.51484643188702 0.3568032985455532 -0.39704851921884526 0.15624722466292443
P 2.5346419893710483 8.443511259493068 1.432073589847165 -0.07936738348573429 0.6714880706545017 0.2498034980545311
P 6.643340065252732 8.05550907273983 5.745409073778391 -0.46567486213799153 -0.3901631049529216 0.09896895976674568
P 4.608641322457411 1.3027708198100625 12.417733324370767 1.2412679282342234 -0.9689063423735185 0.16305396317211274
P 4.100267406582238 6.4256738552966395 8.080453828205405 0.4518955489657121 -0.09441116519273418 -0.24792530719521172
P 4.893269832243811 1.23024883536066 3.5529246586457504 1.0230362914487026 0.46333952913659554 -0.08880744585271158
P 0.37191920400101675 5.57951719898169 3.571360025988443 -0.42026918030968263 -0.006787198125162504 -0.4316457975777405
Ni 0.897619284566189 0.06842057776318501 4.608660462355281 -0.43452749000090973 0.6468173073806989 -0.18395446077020577
Ni 1.7667128299178827 6.861917698916873 4.5776993989928805 1.5511048853325675 -0.5597042185112748 -0.2242793856414976
Ni 6.102483008422717 5.905478773928079 9.202060957566708 -0.31250961883450046 -0.20336166165222394 0.05123103026083435
Ni 8.896643784423436 2.62187435246835 10.476113727759879 -0.7470990724215972 -0.8014444799416972 -1.2747177232522369
Ni 2.598259364192819 5.454524551659948 6.590446501779858 -0.6842679960279893 -0.2507496640178843 1.3009656012051725
Ni 0.5057353442403745 0.394310150236639 9.267839318000261 0.1768204208285858 0.2852973200857667 0.2806549362177489
Ni 1.8681178316753353 1.23703894198562 11.33663897883221 -0.1289328531186876 -2.118932504281925 -0.8944050287308338
Ni 4.343262081384991 7.108020328564073 1.4502820126865539 0.08558096849561389 0.29278154427795383 0.1527466677088337
Ni 5.927781312064021 7.95827839156524 7.960890531912506 -0.8617476477071289 0.7905188341681288 -0.7189663187411232
Ni 5.6123922521309915 3.0193097745998867 4.839382816929165 0.0020463410060674436 -0.2976458143487906 -0.7401640358646607
Ni 0.9570131219248638 7.734979583093409 6.822515029170529 0.2809940647247225 -2.229131528436535 0.14212955431461974
Ni 5.274937624226113 4.739567338118548 7.004801593627604 -0.7173874042897773 0.48421045904833376 0.4112489790889433
Ni 1.4095258787337586 7.477146930323629 11.390504119977862 -1.322479049796916 -0.49228449430571986 -0.24207193373822822
Ni 4.833371066150877 0.5434655514824495 10.293227446502907 -0.6673995024074247 -0.40514260908088934 -0.4666120292402803
Ni 8.450893791528259 7.41810490251626 4.692874190131526 -0.5923852536840636 -1.029595175613143 0.4503721703426502
Ni 7.498091447134579 6.23616152368216 6.883891213094209 0.10188921873733421 0.4810451739464748 0.19046706507774291
Ni 2.339579087374554 5.263034430599002 2.34551610140878 -0.135361896573483 -0.3741515600160137 1.2208919356810328
Ni 2.174228598260433 5.141459622182441 11.71588329517481 0.45978395057485333 0.6763392280992159 -0.18548298159959023
Ni 1.272812322526515 3.311803870986744 3.6937906612668616 -0.06624704405369236 -0.0449775931519548 -0.653007752462127
Ni 1.2804135962516379 0.9842646907955076 2.3145422781144673 0.8397143220561731 -0.06850087308487557 -0.1283903503516563
Ni 1.205485453212988 3.54465439991892 7.902303304535454 -0.20810714675700934 -0.03312300780621392 -0.2729076881721622
Ni 3.827642347030833 2.7901960828707084 7.071005588932814 -0.20117236731038904 -0.38605011122581256 -0.3416016511044504
Ni 4.309220405889388 6.97322076214373 5.818176231205259 0.5036860512744422 0.5204097917870263 -0.3579955190814415
Ni 0.9733731774843305 9.002733504040256 0.03269003413656796 -0.4314583641572827 0.13164073896815393 -0.49334970234544073
P 0.2767109720345845 5.67332092701402 8.005405377237292 -0.8207902314581605 0.4250761147800227 -1.8572191421636854
P 8.654214192319671 1.9563983320368925 7.67372917564144 0.1938148985040533 0.01499261675409031 1.7314029802971085
P 1.878663003977454 3.542594582338731 10.253369064902541 -0.48499670239505505 -2.056701523366161 0.4658828643837396
P 4.053010087319933 6.244346108580433 3.5158534107445942 0.040256276416885506 0.34946588434387554 0.7423936965261279
P 6.785358107440817 4.071375275037107 10.519107406915932 0.6354417185539056 0.7251179401648157 -0.7855874583047825
P 6.485764020368264 8.120156356351696 10.126989230697149 -0.5922934653012057 -1.2554599034638894 0.3479525330231427
P 2.7014234137068045 8.606118363245963 5.63855831536535 -0.23744549070981041 -0.25315467391495106 1.0349908927074174
P 6.9437726621366895 4.3479559134814405 1.3934684158453636 0.11396774716842308 -1.0900076152629292 0.16617322552738478
Ni 5.518278640037925 2.8988104461588224 0.35223518617829785 -1.0093821910003775 1.1640193908637049 -0.8526132895060283
Ni 1.4456911714691145 0.8539074035281932 7.093883235428535 0.7431961378227653 1.4739321955053066 -0.5017117011568908
Ni 7.211093235707252 0.771047139958399 9.178490629052872 -0.6725193401324935 1.2184522158912887 -0.6447025750305413
Ni 2.652006020256427 1.8413857743182789 9.104655283040172 0.9223403216885212 -0.47656245558477284 -0.15542344321004847
Ni 6.512359364169113 2.139758553622047 2.296000274197933 0.31361493608353735 0.38700424760896573 2.2569925165128613
Ni 4.105189094605698 7.179056692369356 10.551855772169816 0.37878185969917344 -0.15628733387224053 -2.6317652550526414
Ni 8.242095734251476 7.296949349005402 0.08116228120170008 0.441310317250698 0.9805544681354079 0.47958504446118044
Ni 7.72330424539331 4.112644540537533 8.341042626268322 0.10767574351212425 -0.6495588746815781 -0.19143919918302513
Ni 3.3528908517455602 8.473615584569902 12.302985990951196 -0.17307252375037935 1.7257846056690664 1.6339823388540893
Ni 0.31372297739471744 5.015719607420099 10.06881578968355 -1.0747907983131746 0.3325577957346273 0.8241820307485289
Ni 9.323317679109161 2.261005249503711 5.619549662510295 -0.7320637753550296 0.41374937691329383 -0.6472363971959886
Ni 3.535531048601357 3.0049183942498043 11.700543122744648 0.24347215651986456 0.4068325951888026 -0.636080380579169
Ni 1.0398433085122922 3.0254071992067297 12.383811045380916 0.12479260569806896 1.6121454454846558 1.8885776018703089
Ni 3.3300232309106286 8.64040612314274 7.82537367503393 0.7505908876249396 -0.6881763299434599 0.5642090483601638
Ni 5.955297193809999 7.8869412579363 3.568091660571382 -1.3272096225033658 0.12004506371075456 0.32319512357280467
Ni 3.4950273790156907 8.638127563872619 3.5535781494444207 -0.01229295843474012 -1.3476648050339244 -1.057415540259521
Ni 3.2166056646810994 4.698015531268627 9.168205212507548 1.9945852136513906 -1.038790726069482 -0.7808553429364358
Ni 7.437901025455069 6.449225043912608 11.242767805445483 -1.0265995833199286 -1.8219667467192944 -0.18931521086148687
Ni 8.004432888140805 8.739541679867152 2.7905788808280882 -0.511033749888765 1.459108757339229 -0.9619360817032724
Ni 4.802218603809788 0.5803308176255866 1.3715514099379265 -1.695961865880679 -1.0393455701316876 0.8363870574551531
Ni 6.064212326921769 5.931982975358124 0.0100375092967358 0.2777475327629668 -0.17330083771110152 0.19140397506971552
Ni 8.174039725971511 8.655389928903054 11.36667950424948 1.3712572476418834 2.146699389982548 0.3097443973845375
Ni 0.28530205190664765 4.863712361391805 5.754105878800588 -0.5425989262895559 -0.054469077582157806 0.14318370661074695
Ni 7.364093933577318 6.21446052519353 2.562004751934074 0.22276911964455826 -0.2976869519993712 -0.4953741889746372
P 8.634545668699989 1.602282878748891 3.396116943947167 -0.35689045894272087 1.2671635650540627 0.7730970391472557
P 1.8155742549063514 3.5098744712197973 1.0682104600015871 -0.18850479914504953 0.11460615208337036 0.5702390566043276
P 4.968234432230783 1.0593022046791232 8.072383171270637 0.23128281354252428 1.2090520056233114 -0.12453832359541778
P 8.629651323387769 1.4530099038447424 12.624898110362727 -0.1299201567326214 0.17134962752200167 -0.5805905750419807
P 6.537532886985407 7.905370245313037 1.2213287315299914 -0.8422964809610525 0.3038516860491864 0.759637314097924
P 2.200650771556753 3.3607655525830977 5.720250133741426 -0.9253695954331482 0.20729339260646237 0.4843310437865981
P 7.069549133847354 4.2969070715936555 6.007385058724958 1.348742097258503 -1.4027478620509972 -0.6145484200446641
P 2.4354335187499925 8.624775206549712 9.87957961945261 0.10581889280904357 1.099880651402267 0.38339698987368165
