# total energy = -340854.0015348454 ev
CRYSTAL
PRIMVEC
9.40211631659952 0.00000000000000 0.00000000000000
0.00000000000000 9.40211631659952 0.00000000000000
0.00000000000000 0.00000000000000 13.76094760982600
PRIMCOORD
 96 1
Ni 5.000506184551118 7.197855995078303 7.944649173833481 0.5134955811656964 -0.19946644036287584 1.0738456607910862
Ni 4.158518458062761 6.503763558950534 0.023020141698592938 -1.9403603908695553 0.12371479925285792 -1.3890449106426077
Ni 7.255472164139312 0.6816929250707083 2.912697611112561 -1.0836464489315918 -0.004948088033894704 -0.28439229177299413
Ni 2.6350089250214674 0.02998428928728261 7.775486296264014 0.8718289432025308 -0.9337477921945143 -0.8465292880954776
Ni 1.4165228509679841 1.3745141950664512 3.826300317712016 -0.39249175308609824 -2.33681987035415 -0.6890816153665487
Ni 2.494625925633422 8.750643718468158 4.938707954132676 0.3467117186375061 -1.1558571667678867 -0.2960447884102579
Ni 6.561586574571489 8.638354242767171 11.02199570645053 -2.0536467957002373 -0.1945425206986972 0.02248738246923869
Ni 4.8865337300214895 8.592340285295796 6.216039994067207 -2.111977927340963 0.15703218245806502 -0.8698291391636827
Ni 8.958806574703596 5.861110101434514 10.323793605261313 -1.7362554232934033 -2.015787558760618 0.1480654601830805
Ni 3.809934993973832 6.239874359042673 5.570431451378882 0.851222836916405 1.0190989040675096 -0.997005671712896
Ni 1.5635719508560717 5.897872376406536 4.76935139296617 -0.6345667721481201 0.6820285651745093 0.9887040938257359
Ni 1.3408546184936023 2.0557163296631087 8.20649247322116 0.9949891555034993 0.5441840113884886 -0.015400907936102512
Ni 0.8243418345017866 2.5893992585536214 12.782103856449867 0.6474605973916526 -0.08255452296446426 0.7406977968809437
Ni 9.146548034202658 3.676434343762134 8.66899762041137 -1.2893611841970245 -1.1675240615828537 0.7837303504913858
Ni 5.224257749713312 0.8756783300451976 1.2256749322232043 2.4830302796063624 1.9038926349608243 1.9694753059576404
Ni 1.9243405577490262 6.147413946747312 9.732650582441384 -1.0291336625956922 0.19126230728552865 2.1024339924062696
Ni 5.286029654205941 3.6031354446107575 4.70071218268337 -1.2569750545568352 -0.5138887028390569 -1.6222807341464447
Ni 4.653351842149081 2.925468505765885 13.45567523340783 0.8869092345744211 -1.5694445641820196 -0.012529499925578422
Ni 5.929219032354546 2.772909765690175 2.2809186413798246 0.636850168865658 1.5135598371992578 -0.07992017066541074
Ni 9.17898533564856 5.997516005601801 2.027414078992832 0.5261132699297069 -1.116697722959606 0.2872215336916731
Ni 0.06400114628185427 5.8177005301951725 8.160077045381165 -0.10938989798975354 1.3366103469919757 -0.33852506906165564
Ni 0.688524502818706 0.3242771128721332 6.4795070389504525 3.070888334844034 -0.8104916777456299 -0.9965966091999353
Ni 0.534013883386425 4.054907135763098 0.84683451747252 0.30732936018514173 0.5044468406998667 -0.9525772661961918
Ni 3.4249653395673265 4.246475256621141 6.5991452087993 -1.239437302783388 -1.6384334326469074 0.13402518003993047
P 0.7499936591645078 1.1389535717546773 1.5482446207641563 0.3968389743112004 0.8979510942108794 -0.398251795498327
P 7.130912926587051 3.7887896342776486 9.815643063561087 -0.2816237278889214 0.6631978056212514 -0.336192307163421
P 0.3627533936567892 2.166877551400759 10.773693335046152 -0.8758056684620915 -2.4291078185562935 -1.594086788210732
P 6.640630166819517 5.709886461882085 7.454112556924198 -0.5427855883790652 0.5916571172687874 1.0931592735180335
P 3.3418788372840127 0.43471719228488526 12.128459324907686 -1.3324711280126211 -0.008213903269360046 -0.377107300210228
P 6.9833467102991005 0.17966504154485072 0.016581572414490486 -0.4184838062744857 -0.4186696970330467 0.46236430970751985
P 0.46911765562699104 7.273533629669045 11.368840719224286 0.18745450350366427 1.9368606052464126 0.7578856215141399
P 1.5481618821401781 7.678887072346482 6.588012162816084 -0.38804014507264784 0.7125416461617019 -0.8326193628826047
Ni 7.516221057182556 7.856370822895551 2.352736707204323 -0.7666281435934604 -0.6911804068771064 -0.36390931346271516
Ni 8.03860264220699 6.672305896840167 12.54043373792663 0.5782459860692042 0.22446527640005856 -0.784536648442765
Ni 5.032247729386295 1.47617927927936 11.209530319389648 0.11522861615871768 -0.1903829900043689 0.667519830035373
Ni 8.164619207795228 8.956362024449701 6.880074804400074 -2.4956585098933344 -1.4352581759738765 0.12410252160957982
Ni 4.90167113736291 4.064140014029729 11.365771868444014 -1.0326609590226603 -1.6133867740909247 -2.4093800011100632
Ni 6.685534674560278 4.993078512625824 3.176109183509277 0.5162134943174915 0.4085225812967158 -0.263947650765397
Ni 8.656340491366015 8.274605164987737 4.314002196538419 -0.05884046717697608 0.6256915811456772 0.7421576692559219
Ni 6.7331751981621295 6.425923437596732 9.588944875131315 -0.12106553455546891 0.2903960747649128 0.1241436592601604
Ni 4.7226548418469765 4.944554190086028 1.4708388771862375 3.0567305552864132 1.3613942388048748 2.207523463248456
Ni 8.706905073156177 3.155246827515564 2.588131853268141 0.36939604760889927 1.046894586123539 0.9982158899709132
Ni 7.890603928566429 2.031411858869585 0.980942544401147 -0.23521068784202073 -1.4320484107873273 -2.753823749648999
Ni 8.856116659807324 2.0675347899290504 6.52827581651564 -0.6055662711507118 2.593550177435501 -1.2017457017698852
Ni 2.9832351086886737 1.339810983577517 0.5743320387662266 -2.093835452103981 0.9071702988163022 -0.8475273903426888
Ni 0.40538823050797346 8.184542292364466 8.978536915887428 1.7937062092117044 -1.1413054942059568 -1.5209913537766384
Ni 6.121398290776063 4.816525571596508 13.04883249549879 0.9051782080869378 3.1847131286766897 2.5731119641858076
Ni 2.770756681043476 6.443307950748463 7.706186117201026 0.42514039235905493 -0.7089582996858177 -0.717230309886623
Ni 6.41858978683505 0.5526169108185587 5.504874254839261 1.1987004871856581 1.1911728113500455 -1.1636306400657186
Ni 8.67502249657558 8.91627140028584 10.729355774921967 -0.11242328549943864 0.7582021243132943 0.011143418211329196
Ni 2.3022022121865167 7.705805331488401 12.301255180239092 1.8833371794069758 1.90910631795128 -0.13673383722034516
Ni 1.0321361277758687 4.467594229202217 6.631992442518546 1.463697405151176 -1.2468181686284914 2.479506839834136
Ni 7.324906793466265 2.7418639774657207 4.276613740616746 0.09969632485107346 -0.4431807948005335 1.400516144507001
Ni 6.4371307602992 6.9983054774296605 0.36521956877831385 0.057993288685332385 0.528530878232264 0.31309274503148016
Ni 1.6192794902957723 8.629412830107734 0.6776650584215999 0.6005130249975207 0.42364555298108325 -0.8136533633030633
Ni 3.2660037582496857 9.132031166541072 2.2296865093280225 1.170256372912352 -0.48548109823064134 1.6585068063580146
P 1.9198463461284057 5.860273313078373 0.7592462818754967 0.40849198516909646 -0.22422822068858805 0.5417250083250348
P 4.944027671569804 7.46221530080422 1.8513979988077365 -1.1184105918856546 0.435713796999527 0.631203769213158
P 6.79744806560682 8.990660944935108 8.642838112059794 -0.1983698648645874 -0.2065958523188055 0.770784588963995
P 3.1710329808859026 7.801359040066574 9.532758767968833 1.090433132836122 1.7132743890171978 -0.5855332637592368
P 5.764813625663812 8.258687381988343 4.092780740889006 0.35107282381967925 0.9422964530954739 0.5852625265963534
P 7.465694083857839 4.729170508485241 1.1417939511073747 0.3426100377643067 -0.7977819434884453 -0.40121627744328964
P 2.343092016241075 4.281977648000771 8.721316637114517 0.4107753818866345 -0.8954658658951803 -0.933226886694038
P 4.445104366866392 2.1647902815685884 7.5169863894543525 0.30789757398378587 -1.3611934356479785 -0.33592465532433113
Ni 3.8158583272813447 2.620990369527022 9.469609453429296 -1.2230850866776097 0.46745715084939493 0.07131854503932879
Ni 3.8711615757175166 2.1961933502147652 3.079878522553102 -0.9714018551018626 -0.2431044887678007 0.40609623124341027
Ni 3.2343186261126746 3.583419206601466 1.2068547159031286 -4.328984133268873 -0.36890213869161625 0.4544702516714238
Ni 3.7805063697634917 5.9470830534406955 11.373120562591874 -0.862223816012599 1.0664709655935698 -0.9524823924895404
Ni 8.294791508815086 4.157484225263037 12.200538769567022 0.6691082575684154 -0.34571181661808204 -0.2675299688000166
Ni 1.2404024072912798 4.094302003316237 10.672261423319 0.41701622059002375 -1.238155607857487 -0.04402371387911773
Ni 3.401751514271694 1.4405828667361182 5.647163063213708 0.3789806059735409 0.8095550248639736 0.6099242910090915
Ni 7.151456550836121 1.545623310722673 10.08958218564736 -0.7311811156397601 0.7839959454479466 1.5829739661270221
Ni 8.70809914193404 0.8431620508218625 8.69240512930404 1.946874537838989 0.3880188049164092 0.1665259808811132
Ni 1.2076454338890996 8.102001112830095 2.8983584434502006 -1.0595528983174978 0.3821538614951999 0.5220247016826299
Ni 1.5230300251068751 3.5576292014228836 3.0999840081797445 1.604217963107463 1.6200647003317326 -0.675961790155139
Ni 0.7211846344223665 0.10711361064418398 12.336634403894392 1.125651589718784 1.1244634829479538 -0.03573216329428685
Ni 2.187628022209775 0.5912342233486316 9.98209531098364 -0.2292742677529277 -0.3501032608175583 1.8480901832792236
Ni 6.786786065653298 7.132727535044749 5.681455402217661 -0.8121312702315818 0.9294630487762315 -0.18082568533323698
Ni 7.051201784077382 4.870343285647622 5.559753467827546 2.505603536921188 -0.10125312781523206 -1.0832710678700441
Ni 4.708015746672696 0.24912129573943315 9.028943542122724 0.36268418280636244 -0.033731845034806425 -0.21247365125582113
Ni 4.271691732701694 8.92499656426897 0.02206582688793815 -0.575692623519731 -3.143759569082463 -2.131557649245103
Ni 1.5058335542823666 5.639727869595326 12.354331067309314 -0.44794196363460276 -2.3325605808571637 1.2055578764271238
Ni 2.822270876586112 6.506593595975235 3.159320764534842 2.338978054347733 0.10753227595572448 -2.5628355219604635
Ni 4.95313832232374 4.7637514924614806 8.99529712851278 0.20436953409144804 0.15235251759420856 -0.1195642674195941
Ni 9.374784408869111 4.241952838651437 4.838321557744882 -2.3697209919575446 -1.6996678539773566 -1.9317392248594474
Ni 6.971133361145991 2.0922059432606575 7.717098213449755 -1.499231593502044 -0.000303133062715607 0.5037454437574679
Ni 5.60584264222981 3.8092204331303856 6.791358314839715 0.5653346773241749 -0.27671420640244604 2.557041798096822
Ni 9.072224304367918 6.735328282808828 6.111731974945183 -0.02503020349575044 -0.21356791276126444 0.3239638834180292
P 9.180950377968037 7.811795389227429 1.0023709077998006 -1.2899283695544044 0.2887451694250511 -0.9685348179667126
P 6.482129289203572 2.949998627352076 12.339483245151815 1.4755507049453362 -3.086016448734724 -0.9984339195189901
P 3.710187941498594 4.5087566946312485 3.6716411448412294 -0.6065355770425167 0.5497648479103757 -0.9119481798209198
P 2.8188579083470215 3.547813391941863 12.460372836688329 -0.2106790212492436 0.888357022764541 0.11654065010192187
P 8.630484671372905 1.0499061276984063 4.477895187887472 0.7460863148863668 0.2617079628016009 1.4863423962442015
P 5.667896610213274 6.76643988584781 11.885289568824847 1.0049092428306887 0.1498505771079613 0.5570719230947503
P 1.8989454414576117 2.9675523785983073 5.102835058179123 0.33707753798185175 0.8234541514435689 1.8062166829738893
P 8.551864174361128 6.034550941948296 4.078221563703795 -0.7511627009680095 0.78682621580789 0.6274219335732226
