# total energy = -340883.9749562156 ev
CRYSTAL
PRIMVEC
9.13903989046128 0.00000000000000 0.00000000000000
0.00000000000000 9.13903989046128 0.00000000000000
0.00000000000000 0.00000000000000 13.37590866799965
PRIMCOORD
 96 1
Ni 5.33373543986868 2.6324638052990106 9.811549554958743 -0.9109261663143086 0.1034658191958347 0.7226589371013619
Ni 4.340084218553542 0.2351767342525864 6.480159416928667 1.4494138986489682 1.5744967818939466 0.5702796800342759
Ni 3.54008010766688 2.7983282352941217 3.3116077728767666 -0.27099941540585587 -0.1776794263947714 -0.11405182224179714
Ni 5.066281445499462 5.0125621706352135 3.219139883943628 -1.059629517191704 -0.6103171555721361 -2.4626154633954367
Ni 5.288286995857127 4.498591721657581 12.430284694946241 -0.9315723818097504 -0.11739091391735912 -1.1673224870950087
Ni 6.1261632869134806 5.6298768795932705 5.16578913664899 0.2859444667514624 1.2178793741069542 1.5463403740643884
Ni 3.2974843010538315 3.1413986434480954 7.961554785234719 -0.05097391994470576 0.991259770368054 -1.3379069543162119
Ni 5.742058590882596 8.423827514911213 13.085450564282871 -0.2599938083239716 0.5506557351557614 0.5619729599407935
Ni 2.375236396260364 5.831429259289791 11.98715459764992 -0.6809790408640725 -0.9154299677219332 1.5096157649498452
Ni 7.82203089522153 7.569683733337955 9.49459395250817 1.3751085030671737 -0.6612049435609387 0.3044692650285272
Ni 7.577698671081396 9.30061783665351 7.747500199343182 0.31173237434884377 -0.95277395558803 -0.3644276478600304
Ni 8.463399556449525 2.734665685327405 1.8993254777645567 1.0237592856576563 -0.7134782990433584 0.7391281384009787
Ni 1.1339994527017112 1.4282216941068908 3.069891141874799 0.11509414746338242 0.6029080075922585 -0.5874050268606529
Ni 1.5073383600646668 6.910832089324095 0.8338980671114056 -0.026891425074205298 0.010954185018658554 -0.6376716363256889
Ni 7.78668108998592 4.011087931408576 4.408860061185544 0.4396018192000236 0.7001427582767168 -0.3456555094588499
Ni 7.2945529456910965 3.808082444413072 13.307329995893832 0.7402455398348735 0.8416645038040086 0.34641012823668726
Ni 4.409422112121943 0.2036333390171395 10.934952291225425 -0.28570689681935957 1.6665044798515107 0.03941244035935148
Ni 0.7813330529506871 9.287914571586938 0.23811676329713027 -0.39641808472369794 -0.3340400367071086 1.3919137475499705
Ni 3.477678745167204 4.366148759539054 10.035770408519383 0.41539385449525235 0.9386843102641834 -0.2081822229693189
Ni 9.142603841688747 4.932047231616154 1.794658798751663 0.5300701976949258 1.9349836999386738 1.0096202751531127
Ni 5.426862253558149 2.4651097118464524 7.377053798018767 0.5411765920207325 -0.7964444556239445 -0.46144668298925684
Ni 3.4256227755131103 4.785420480013224 0.7008044053722023 -1.1194634586302012 -1.0312008295373658 1.2882332412401682
Ni -0.050996754962571986 0.1534088329021397 5.847866735943558 1.2326035676910063 2.030900503142657 -1.40007391476326
Ni 6.855933878349351 1.3325359493248745 1.001765774590396 -0.28274807130135177 -1.6794702959835592 -0.5011977376349497
P 0.10393646974755626 5.882882052329214 12.697469087646779 0.40844904774630303 -0.47295956872486283 2.058230044195546
P 4.3276551246754575 6.333930213549045 13.133924944311362 0.04390467180275019 2.1219926312644874 -0.8252883764388302
P 2.428270243153396 8.969400762881799 1.8242199362943479 -0.12302677204689781 -0.8914760280094969 0.7852149054567122
P 6.267909791361339 8.102681662796595 6.474394510738745 0.13296459998590004 -0.7538623592873597 -0.319066960337044
P 4.589561721997619 1.5119627141104834 13.015695016604008 0.12112724103133977 -0.4181799018808217 0.4406323173470669
P 4.0476623679527615 6.257016056138783 8.737584453496103 -1.053121026649225 -0.36560367044600256 0.15184549605080302
P 4.970056497380088 1.2857623445689665 4.379272420427973 -1.5173187900210579 -0.4216303223232674 0.3096171277780539
P 0.26473787179527114 5.9805601077475705 4.00098837872867 0.40092368590353533 0.080054639360746 -0.0688508002251266
Ni 2.5069665132888246 1.2187092109046251 5.064961768178878 -0.9952349529657183 1.8056232723642645 1.3080592748271602
Ni 2.090025247916796 7.090642693773585 5.409739348933165 -1.6853254692127555 -0.7761378828561084 -0.3623077733035502
Ni 6.749473205859789 0.6020287512959359 9.92507104945581 -0.21199362629560906 1.3171244703532219 -0.6333557825591544
Ni 8.484410208527258 2.821066165859323 11.00567017977588 0.11364661638357848 -1.073495733650835 -0.8525202155715899
Ni 3.1193278627748797 4.7670418713449685 5.765498399690324 1.108198170129027 -0.9383747494435645 -1.468562189442645
Ni 1.9559281196277294 6.317690140150988 9.799297758449214 -0.07170446762383781 0.6596504545896252 -1.2517202339157991
Ni 1.376092612135867 1.5245106155035786 11.974260326655367 -0.1782232147133834 0.6821532636778317 -1.3784175128357485
Ni 4.440293787945596 7.37814774106083 1.8366060766862358 -0.7213132217067447 -0.030760421111308313 -0.3280591365333253
Ni 5.580827653972919 7.949228048600336 8.808958525091 -1.9323053817755622 0.9089780414490024 -1.6531221450073335
Ni 6.719076760096181 1.1006510971420573 5.725570849510941 -0.5544658529304709 -0.20393784587066816 -1.4340158189263432
Ni 8.14326813773231 7.347513680267198 5.321966184650888 -0.4332645641280861 -1.135225349450148 -0.4870047339640193
Ni 5.210988998782982 4.925110700547428 7.405344609054794 -0.877991620369817 -0.7548720314987968 -0.08167186324919483
Ni 0.5365073206712762 7.774891728880972 7.440215528614513 -0.24130420233426825 -1.0053692131862428 0.9039906155367399
Ni 6.524396938191069 1.7966255200770778 11.983115142139543 -1.9593240764562512 1.049906119256353 -0.04218486089816605
Ni 1.1178142135413531 8.263839487389344 3.6004471199479813 -0.030783818150076022 -0.4534212415816191 -0.6024963739761365
Ni 7.328367392271179 6.137011326937956 7.274153695363691 -0.10270194444661666 0.37858568452796737 0.9251425670240067
Ni 2.519322494849979 6.392968409469945 2.839410960080998 -0.3652799685579967 -1.171753269172853 1.3211328201816666
Ni 1.3292276169837962 1.5843347688314755 7.555609612328948 0.3788211975775412 -1.6546655782350534 0.3386022021564943
Ni 1.0977448825440934 3.7789928813145846 4.138158052136716 0.4595816047560601 0.12500832125330083 -0.10707539092396398
Ni 0.452400739083034 7.510764344932066 11.294549738621406 0.24997293375285987 -0.1515773299910809 0.6903530258798046
Ni 2.1325948944492343 5.670106931983951 7.453765068749549 1.0122631120925987 1.5573999743126599 2.355969446699407
Ni 6.380246866324141 2.447681563298286 3.129949254616872 0.3274173891842683 -1.3498589844717654 1.4982877415315357
Ni 4.177491564741045 7.042370286520614 6.522226416282213 1.0705137682043755 -0.3280593936436415 1.37842008393891
Ni 8.306089267535214 7.532688900971421 0.5134358151600823 -0.3052637359053646 0.37965217811926877 -0.08132476432242122
P 0.004575003231888951 5.919392515596086 8.587199728802975 0.39282316828358793 0.17112568443665366 -0.2250031511813996
P 8.516607045095265 1.6814096476351599 8.851801428907965 -0.3664444211797431 2.2703054315716837 -0.4437173840302939
P 1.4899284895957328 3.525128638854714 10.648493663974241 0.7702641976841509 0.3597945199633933 0.9806033190954724
P 4.034803739212714 6.338819599743733 4.507079147749182 -0.06396493288773498 0.6064376180120717 -1.1825089650274603
P 6.643524319588737 4.013518915946495 10.683979640900134 0.7443163674701375 1.3090175249753715 2.0330967394630277
P 6.198800373783344 7.992583652539771 11.043671220404159 1.016946633611197 -0.5857955162816879 -0.7122469977394186
P 2.308567102259905 8.810728757064666 6.691472290935333 -1.4458655191760776 0.438520927431019 -2.2562114153724626
P 6.834109851745774 4.2393537239033625 2.110249942587531 0.25260291517653916 1.4342667585948847 -1.1624661874439723
Ni 2.6462180599214493 1.8372302730920247 0.8156857889641657 0.3157229835654756 -0.4480208965016543 0.15732863065256128
Ni 0.960915181409772 3.8508348717378347 8.435596770129004 -1.111351628156344 -0.24075398625775313 1.1014346261529484
Ni 0.5464314037905494 0.23806924029112583 9.626173275382964 0.1319893805568243 -1.1710827254683895 0.6391857589773702
Ni 2.606728269739683 1.8825964657470324 9.761309512476396 -1.377972197768214 -0.9201834232465185 1.6261939531579217
Ni 5.021719488330684 2.9899921741258737 1.3059888670476254 -0.45568664057702807 0.4667626958855316 -1.1294192842913322
Ni 4.160639175688701 6.991392723541236 10.915062085404646 0.3544250281213638 -0.39578173669127964 0.0003141888063091363
Ni 7.2011793779319895 6.146726126050018 11.766666127868552 -0.35621065926687684 0.05583819001554254 0.48587910500000847
Ni 7.295667908524279 3.490062143847207 8.644942922810255 0.6934527478510508 0.8344433034652209 -0.05106442277598302
Ni 3.111422593506833 8.458711229126395 13.067165173818701 0.42838358188670095 0.2531970971171123 -0.49561047335515934
Ni -0.06017600635312185 5.067387269293028 10.707735660478583 0.3266154621082633 0.17691066654954693 -1.2771322462310006
Ni 8.456910838321996 2.4982204523760845 6.683821086968617 0.8683605250379561 -0.022940925066889523 -0.49069992342741936
Ni 3.219884715672351 3.1139998026786126 12.06230035089444 0.31857896495703203 0.0893473775165816 0.49836283928931596
Ni 0.7910021568646673 3.618977436673866 13.410685222721794 1.25006650036246 0.4608260186861225 -1.178169714222158
Ni 2.7160951568272083 8.530425272995018 8.685980866303012 1.5905029275142157 -0.12001935267914168 1.4171131296337336
Ni 5.833119981618796 8.026297569684074 4.0066865699293945 0.4226441082997624 -0.3495725851250689 1.0533267149021277
Ni 3.619306442100051 8.609350019120853 4.211739201798936 -0.5271967328018726 -1.1259770913790028 -1.4428835537296183
Ni 5.060149149916967 3.490610486224181 5.003405766843705 0.5382740736619569 -1.0417948030031285 1.0951891594638687
Ni 6.124152698197908 5.827901589997923 9.551214872450576 -0.21886644215604242 -1.2215357399126188 0.5519472002736753
Ni 7.985500896837186 -0.11875085296547871 3.5448433751148634 0.0018195697072420278 0.8163856746325617 -0.831412229948381
Ni 4.86825673509481 0.5953188684096936 2.2064100035256304 -0.524328153004826 0.03504979251528158 0.015858307188495267
Ni 6.300792055900564 6.201770561658622 0.7267464832268566 0.058348615142222095 -1.6068003791226586 0.3925269771994079
Ni 8.08102213890611 0.12029626456458464 11.82366083453126 0.7961624056071515 -0.433590322898621 0.7541444093041528
Ni 0.2155095209984413 5.199400696549592 6.34561082008256 -0.7201184300676953 -0.9015912620666279 -1.7746707898468081
Ni 7.302768942306095 6.182514605187206 3.134470337515025 0.7704781134671699 0.32791335498408036 -0.39195130720159593
P 8.429064184611317 1.9743615625336823 4.245941143658747 0.6787339535836375 -1.3489871233897734 -0.1713941076066919
P 2.0589982084196663 3.6191784955454236 1.9641450301466894 -1.3691425152917258 0.35474230225146647 0.5575020686536334
P 4.236803931850432 1.176843270422637 8.759440466738337 1.416911812256205 -1.719582847733729 -1.866850237495546
P 8.52055511020948 2.0071067414786645 13.069065180154919 0.25598802959868816 -1.8228288376092736 0.5235087424273243
P 6.6016766571859815 8.002417259166844 1.9361494100902663 0.25641226162030034 1.2007699681201771 -0.1756523686624136
P 1.6736871591594384 3.267298053201396 6.337852689352334 -0.01702250269992552 0.4073072208323759 -0.7554561861370409
P 6.882903184256871 3.7933960077497764 6.358144099012268 -1.4028149678435067 1.7890399140842868 0.4512113784144938
P 2.1774949960838135 8.803408386332059 10.930551843650207 0.6544825372354406 -0.27114159741067495 0.749244143789058
