# total energy = -381176.21601433057 ev
CRYSTAL
PRIMVEC
9.14451086968377 0.00000000000000 0.00000000000000
0.00000000000000 9.14451086968377 0.00000000000000
0.00000000000000 0.00000000000000 13.38391599910684
PRIMCOORD
 96 1
Ni 8.886315517539346 0.712188216265497 11.566982215514185 -1.5329374703949212 2.7614023333272057 -0.8000108328189641
Ni 3.536401786650977 6.144525995063949 0.4615801550029272 0.4466579547158565 1.1345797454463493 -0.30630760378884664
Ni 6.267281907766555 6.462233733072489 2.2047324044014953 -0.9443391945571156 -0.06296863041273672 1.5688442115938595
Ni 7.26759079741386 2.311384833621586 4.660948914198226 0.39545983457548667 1.5705794491174112 -1.0982145765537539
Ni 4.162078358688002 5.687949716359507 4.026095825594078 0.06070168875543093 0.3642587263823339 -0.4017847483522499
Ni 8.662622494853773 4.22065809474081 4.851964027613631 -0.37383891387160134 1.45040865846207 -0.0010384685668433729
Ni 8.753262885699142 1.8760969760115769 6.383552533424415 -0.2062811492918641 -0.012592749063346054 0.9942059974805718
Ni 7.418703838043371 6.690956236686732 4.454180552063157 -0.10125107093270305 -0.06941541447934496 -0.7759342514857346
Ni 8.379197527757187 8.500243416944045 6.197555927524743 0.08839401246437681 -0.9635689893210051 1.1849887940265205
Ni 2.1323993241364763 6.207934032808278 2.6042423635871192 0.6633137623738254 1.2824395173765268 -0.5946141430145824
Ni 4.189420445918395 8.795647693161639 6.584980501264317 0.10394815814889195 1.153158022669169 -0.1896463689486605
Ni 1.5785803178039417 0.6740089693104425 12.734086981777665 1.9042083664290306 -0.7264639126697489 0.2863596999120101
Ni 2.1305521329590382 8.290157426298212 7.904393495716174 1.1191628966706468 -1.0174659964497765 -0.5992269591962454
Ni 3.040229776271752 4.037456965786399 5.901651446567514 0.19247638219828786 -0.1464675195683413 0.16255131250408134
Ni 6.189370675926106 3.4990190265848073 0.9591814524169716 -1.064383744047238 -0.6106927937439999 -2.4102940282839005
Ni 4.954706264024453 2.47003295113332 10.737928980390171 -1.6750539120834185 0.9617378496495372 -0.4203653395679148
Ni 5.4490859502909155 8.960642101154274 1.9028711891225691 0.8605849948575954 -0.145863053215123 0.07717397537884128
Ni 3.76889182870633 9.005742828318253 10.70543304688451 0.791390952360437 -0.4895046175677376 0.04323258543639006
Ni 2.8219868820106973 3.2540467273155795 3.3340273619454073 0.44342376404927497 -0.009017887227894145 0.4580371430870757
Ni 1.2394744245716152 8.172330404905699 1.3245110592113707 -0.908487732076145 -0.23738069891014602 0.3802959823508547
Ni 6.004605835628417 5.594373937553953 5.833995783566156 -2.7585538081348173 -0.2847841278947741 -0.10129246569359975
Ni 4.1899874055867175 1.2487195249695844 12.501835611453654 0.18260745982400808 0.11884538697569853 1.065981941772293
Ni 2.654669768280096 0.7336421530050369 3.209449862695545 0.44944811586648403 0.6449164908135603 0.028526903795099253
Ni 8.896502502547595 5.863332288597536 10.817121358190814 -0.01589713084623069 -0.04986860269566895 -0.23283653118288933
P 8.186769587426365 6.77812171343593 0.24255906287454573 -0.5740334906497533 -0.4595978027059762 0.3592373619083426
Ni 0.15058083010215115 0.03881479045422249 8.313580176208555 -1.1635871884222928 1.0988527243583848 -0.3243559766501253
P 1.059245261620508 4.479484327840822 3.0860629787491605 -0.9335721858485986 -0.28887758123785734 0.6752323681882821
Ni 8.653980932167244 5.846680134468255 2.0945556807270256 0.28957666418741096 0.17859242512734402 1.0052468286757656
P 0.4417438822202624 0.4785880306015251 2.645759356976653 -0.5703411293998307 0.34262289328011314 1.3031104154623172
P 0.9965047731630747 7.255812667529997 6.2263044405130055 0.059536979023368436 0.6204892110091313 1.6788558023280118
P 6.136780594433802 7.775668960827857 6.348352568081288 0.280371086428743 -0.8710380718701192 -0.3827966372855214
Ni 8.756948123543237 3.3573796991227494 11.103256758282415 0.40827318429007103 -0.7343975656945287 -0.6087842638673774
Ni 8.725271538203412 0.9673886508414791 0.5994967521266934 -0.42742507462817353 0.22399707851438844 -0.5751534631868094
Ni 2.207795815512593 6.589058953071927 9.86047933641728 -0.31485600757949006 0.07468000531239397 2.264919741779738
Ni 3.705620958623692 6.506996113337632 6.045875927226908 0.6878302594579508 -0.7659668558603777 3.0573080250564377
Ni 4.268273562369123 4.71114221941525 1.955403660196963 1.0131863952378164 -1.3659484338344605 0.47051856338353804
Ni 7.670461364310911 0.05224533343592078 4.179836998621588 -0.27655248401360116 0.2556630421591016 -0.9094686079321755
Ni 0.302678734542604 7.53341258126011 4.1159689919850555 1.2648068918964281 1.0117383499373802 -1.1704728597985326
Ni 4.804169327574042 8.1354048703785 12.834519314765611 0.3175019298427693 0.6873872583832613 0.6672434364455347
Ni 1.567652627422564 8.626593122382953 10.332797890428452 -1.881955982788733 1.0655325129397004 0.40135485990368297
Ni 1.833703024038299 4.3585115947401984 0.9695202363041562 -0.5620120407088449 -0.7207164686630104 0.800484430021273
Ni 4.3233052282395255 7.506802054892067 8.811555484113477 -0.17566419573695552 -0.954463684585627 -0.1443885255521255
Ni 2.971371610102903 7.9851788472945895 4.520484656371321 -1.0373282825913424 0.14084811649903486 -0.7505075838825139
Ni 1.220719032963075 4.2368073007772225 9.650097978073271 0.932427016500562 0.81169572535606 -1.283235788025577
Ni 6.125825470520086 7.461500148490941 10.554729680337916 -0.20402372071625507 -0.8169955403024186 -0.4264871361949364
Ni 5.338940317953096 7.899439914226976 4.268826805271276 0.5556840416082882 -0.38333888294223656 -0.15638349313047262
Ni 6.260871605710199 0.5833923541931 10.899874608488954 0.028632319024711982 -0.03446872320083096 -0.5673380809074486
Ni 4.715513295567802 2.6720717722932856 6.99670935575337 -0.17442518112353184 -0.6657971909173115 -0.17362813914353323
Ni 8.204327048122805 8.337196789747422 10.195197693377652 0.048904181899870613 -0.8354987413129288 -0.6060090151150854
Ni 3.571086916037224 3.273085598758281 0.013498212361465816 0.8891075277773204 0.29158932374206553 -0.3754754210337598
Ni 0.22910017190943133 2.233043809774504 8.923444974656928 0.1093176499909214 0.4808891079845847 -0.20773793634304868
Ni 1.7604554926953402 5.871470903191197 4.949934658299764 -0.47710187302801055 -2.467907822142627 -0.41824289390827324
Ni 4.601984194241606 6.259015270021981 11.598474996187347 -2.5905818388357966 -0.20464875589476367 -0.7892528229715118
Ni 6.481830419672734 4.998874251088933 10.760454653793055 0.9782777562860894 0.3746817214878709 0.9974584429795984
Ni 1.7168361762776234 2.016346337835167 1.34987518876018 0.28894494414068306 -0.33686850729483925 0.4705756418737186
Ni 4.376654304126519 1.93641416911247 1.8630139244394956 0.2622355531702968 0.7107873824747565 0.17641161542594133
P 4.053834784592296 7.462423744079661 2.4281501773126104 -0.8436859051094115 -0.9085023873641643 0.09894916227240379
Ni 3.251897767282421 2.9854541567031725 8.887522592962227 -0.30756872988945744 -0.6673390814831345 -0.44915398166483284
P 2.5579665667879876 1.013687308917559 9.162120363803462 0.1284623412401723 -0.6281827229986472 -0.13244857958142997
Ni 7.135388605076137 8.314747015784006 12.52958005715834 0.6114253010346502 -0.0350194534979784 0.8162776882997879
P 4.956617466777345 4.244196065486975 12.021848470702883 -0.368103811160037 -1.1078862953155628 0.9432734722967625
P 6.6774497942655655 4.301193801174946 2.7230917412847675 0.0790015155058833 0.6439088754846524 2.333687495372755
P 2.638054192193934 7.58318615343236 12.3518683780248 0.2575376334739952 0.6778564360746906 -0.8430924944997867
Ni 3.780861993316559 4.976643945384222 9.648264503662004 1.348134545581491 0.46280371123778363 1.2722756894696476
Ni 1.925202998896931 2.0813363759443315 10.947307185901678 0.1642533827968526 0.6944549638633201 -0.32111587244627277
Ni 7.173548648558555 1.6035905547855884 2.190331628826103 -0.9074934864836759 0.05958274465963931 0.7209581523601712
Ni 8.98340278848419 6.893397416320991 8.464215873375382 0.59041038934588 -0.8853604020300623 0.31057846325005867
Ni 6.503576066306138 0.8197642410743066 6.278153816632179 -0.7460762875840377 0.29348114144813975 0.8863230230536477
Ni 7.994039878239824 5.777410465314334 6.673139986335236 2.4011151899981096 0.2441203316268247 -0.11799846559437098
Ni 1.2708492410557215 6.2494318227251755 0.014218799810882189 -0.01286502888812623 -1.9089083430078608 0.6885694516168206
Ni 6.636061738478021 8.116841513496327 8.400053413491753 0.447782555238603 0.11244873942073538 -0.7441510455368667
Ni 1.076354641288757 0.6832961344579966 5.071741370783469 0.40431317120105853 -0.6896086915146123 -0.26827584582710573
Ni 6.807612760699482 3.507212508243146 6.705903854006732 1.34933602208876 -0.028102928883803217 0.13746403051815034
Ni 2.106895283572742 1.6419243439728146 7.127591080734546 -0.09217764787652512 0.400585071617194 -0.644396099533716
Ni 5.165596971618872 3.5912779958381296 4.364736263227733 0.5156236832522926 -0.46292301042446726 -0.1430276406488569
Ni 2.021074049908114 5.7400185607373855 7.884638609079445 0.48125420463348734 -0.212615319040008 -2.3110905839088454
Ni 6.266184566473028 3.348774714479338 9.149700289262888 0.4337996106959497 -0.5617032512191745 -1.3451263548827865
Ni 5.477132164851321 1.060982718668593 4.155184312011415 -2.325582092656801 0.6092959133964733 -0.5478385774219404
Ni 6.048792111714457 5.9499216611676315 0.06456664726007838 0.5092206079394263 -0.7298066038897366 -1.3064448791521888
Ni 4.9282786278719986 0.7797652364741523 8.791747559314228 -1.3070287766801167 0.19294509430459028 -0.36049771667800495
Ni 0.600911407944266 3.9862477054217837 6.9271671801782215 -0.01850448656209071 -0.22208520620365624 0.7156426536845288
Ni 8.587024824240508 3.5448604591219177 1.4416485844911164 0.6790077760703145 -1.4343276937398073 1.9262679173322306
Ni 2.224978351267077 4.47816751828859 11.73492389933102 0.1511898647446751 0.30533264147008704 0.5786349939775067
Ni 0.37028593163683143 2.53373361322259 3.5924302041963334 0.1655121949046182 -1.7403715023443058 -0.3614022307701453
Ni 6.371575053205562 5.576313528764646 8.401967359597881 0.036482154086433946 1.4118007162818846 0.15964879414530567
Ni 3.214103504231179 0.045125417343083375 0.8854748666328873 0.8130123872849546 -0.7387453011402633 0.828135101859006
Ni 7.078555470582193 1.2894217424486738 8.557207317942133 1.7665520173944156 0.33256705170600787 0.0858283086197296
Ni 8.182352788719916 4.598399546016082 12.949674310108383 -0.5054747677437488 1.5985167989576277 -0.794200139674458
P 6.217563202658982 0.9559488678564554 0.08847131288849638 -0.05770095425589417 0.05943516333818151 0.6082294198051719
Ni 7.8533424353880426 8.254658435452598 2.0182941186311782 0.47333906355146865 -0.4250470613143002 -0.2646706449743506
P 3.5094894914272152 1.5565877693794954 5.345429262802155 -0.2994813248956326 0.23006153954091346 -0.6839831177977188
Ni 6.869795433999372 2.530276988147978 12.106367526032523 -0.21782385982414101 0.3273672526726233 0.7141578416088862
P 4.4635363010415565 4.944299810757499 7.681243656970896 -0.9377651408840236 -0.804375537545563 -2.0175770465608736
P 0.6293480931149523 2.873186997864533 13.000881741570844 0.4260515913194146 -0.0349942566869978 -0.5462457790135238
P 8.234622812334942 4.5165287410081545 9.173925012768585 -0.15467345241790134 0.001550632316571523 -0.6306095872725849
Ni 0.3083154109870235 7.680191123780188 12.19281424423446 -0.30271860088600766 2.488003050230605 -1.768426351598993
