# total energy = -340857.40212584054 ev
CRYSTAL
PRIMVEC
9.42590249122888 0.00000000000000 0.00000000000000
0.00000000000000 9.42590249122888 0.00000000000000
0.00000000000000 0.00000000000000 13.79576108073872
PRIMCOORD
 96 1
Ni 9.192799782416287 6.447920463419171 8.28705822771633 0.3435667452506212 0.3242513327514609 -1.1030024848607005
Ni 6.37105222977556 7.040347851859958 12.911852707155989 0.9777437381594903 0.32116986561265976 0.9887652860809746
Ni 4.539109256740226 6.5469207157746405 3.9117607852825356 0.0648319088737206 0.088112476668216 -0.39778796848803105
Ni 5.303634770241105 8.862044869043594 7.755024480796246 -0.19466773342265184 -0.10145573074434139 0.03847270215390148
Ni 5.604811202047441 1.2141976108892452 11.070973978695253 -0.9924483913595166 0.20460967512671213 0.008464842937901552
Ni 3.414551977175413 7.133805673635115 6.187702405083294 2.4644915973722266 -0.5913930649741235 -1.06052503242278
Ni 2.7948460273410505 4.885218965036947 9.876012749316725 -0.9690001876389053 1.3783108120545553 0.9144452352111606
Ni 6.083053209450986 0.9593871927301102 3.9400007887155533 0.720505895314101 -1.8233440866827955 1.7953555718896692
Ni 1.0076666645538475 1.6543212691996245 2.708204075553348 -0.30752604957698004 1.1345666328202266 2.0387333689235145
Ni 2.964776194861225 9.397775454864354 7.746223515774415 0.13449157815338772 1.333738424760819 -1.8365675273516051
Ni 8.862817793036086 7.894834177365083 5.910848571694367 -1.6625035862222335 2.1109885668445 -0.24173460500346755
Ni 4.042043722348785 6.986026376631493 12.259174950910179 0.9790223477615977 -1.6823435037662962 0.8676095058045444
Ni 6.625627000376008 1.9598147642811012 8.387919153195188 -1.842228325181808 -2.490202114764453 0.07395109756616941
Ni 6.029419825093886 5.598156514990128 11.170068490074197 -1.169168282054496 -0.6045383441068298 -0.5025853620110957
Ni 1.7268630136657475 4.361402719783389 11.998035039324717 2.0146709286576723 0.5447272854864683 2.5090164192574793
Ni 2.2239756775689257 0.3311677678955134 1.0469717347525593 3.28166351535151 1.2122134340704285 1.8882423300180768
Ni 1.9469484075768058 5.892763092860278 1.2913325975692898 2.0695356990163516 3.1522521799345067 -0.18721333402713566
Ni 7.238452041496718 0.4619813832639257 6.7017326785197096 0.368953560754842 -1.7632859450486342 -1.040972049991517
Ni 4.344492650972029 0.5636981806759354 5.792439443815224 2.3305836596364506 -2.212357908522622 -0.07895703542119305
Ni 6.952686960028495 6.96223539910648 6.825632394516253 -0.5316979631063359 0.9830209273980295 -0.2531186784706931
Ni 9.391620340631455 6.189301980711659 2.4586665071673877 -1.2240577350035242 -0.7707614490355436 1.1641181212250986
Ni 5.163810934818747 2.9453022806113536 1.386004475566801 -0.7027529422060543 0.684993304229788 0.3772037165787762
Ni 4.432615412018519 4.4618168574909784 5.429652486495126 -0.48490054313682296 0.7337457910431429 0.18039811087751512
Ni 3.9260956975725665 2.3555141448278585 4.4990180662857355 -0.5470366503459353 1.2893501284534312 -1.9460831522859454
P 4.328506320590722 1.2297503497625693 8.956415118165985 0.6967375892499097 0.5000422838742679 0.35860024254497597
P 3.076878451479676 9.50102678917853 12.885820250052747 -2.641321274172193 -3.3424528787247407 -2.129837581230203
P 2.996692300209756 7.701980215335863 10.640008527105676 0.007844178634767135 -2.842075065887925 0.8946863074166784
P 6.039062523195348 9.411820049362081 13.471808804599979 -0.06729374015065184 1.0117527481150834 -0.3728169003649902
P 6.009785670504108 7.089240007336281 8.819395488691999 -0.8407828725300036 -1.6976467097822698 0.8759475933565947
P 8.54875615272076 4.355530382620916 7.486159099646801 -0.33262875818187876 1.553667503853421 0.9430986372817951
P 0.9699442033592757 7.280463288259388 4.53419741902696 0.7494315772095158 -1.9443746542352707 0.49908943304269526
P 7.567736514103207 1.6540856216409379 10.467408944040697 0.3538745549345325 -0.5381948836845892 -0.6667793523249226
Ni 7.453598262577703 8.939129898441196 11.774364974750917 -0.33907168559374506 0.1625014331027524 0.5163705887206462
Ni 4.17755992039835 1.4770860273601611 13.438009403962425 3.6328312128778397 2.9710423717889736 1.364905594392243
Ni 7.285166813530775 1.1556910350185037 1.8701122220011759 0.12230146384509902 -0.6549990718605428 1.6621955680635117
Ni 7.213435696666535 6.941705783793694 4.238154333639056 -0.5510902515900187 1.064037673561729 0.10923974556513445
Ni 6.984725602107542 2.089703698629227 -0.03457515240075178 -0.9417017569342685 -0.538562294326337 -1.4930989982417449
Ni 1.2452842368311985 4.2702636699857095 8.148507831701114 -1.474106516299642 0.16368568321884067 -0.0673968413874194
Ni 1.408578569098755 7.501670364549796 6.907854540693227 -0.1656510344753276 0.3182969149402389 0.9867996777141715
Ni 9.2476868117856 0.24436463317766954 10.390014745046098 0.14737383343269456 1.4058717523919593 -1.1485680893056411
Ni 8.210281425325487 8.34334688876471 1.799670568578069 0.222686587233081 -1.3188990457551415 -0.7018473996726493
Ni 3.462369579784124 7.031110467559438 8.599684303104135 0.688630386761743 -0.2997608038092644 -0.15967887605229272
Ni 0.7257775141309031 8.104456819670451 11.82474642279814 -0.008614738252204518 -0.8453638070324667 -1.3223759485601483
Ni 6.789486886784412 4.799386698260893 5.941075555342231 1.0445826501609106 -1.3980376010595212 -1.6128725534586674
Ni 6.612053700995653 4.30463993584693 13.686939944237206 -1.1079215194288725 1.630550944575037 -0.3646395067605204
Ni 8.162492100423819 5.914329557431287 10.154314401306221 -2.994928948598584 0.06694304167945246 0.832327799784115
Ni 0.7623141968101631 2.4490850774311848 6.747024139299299 0.33687107839800046 -1.1590844154559328 0.7935730476134203
Ni 8.367401791555451 2.3755064837068405 4.259220282795415 0.2839048106136143 -0.2436511052998901 -0.8242139124277289
Ni 6.209058672031953 3.1612591292942205 3.5087035453633435 0.24776615590952814 1.6341630874063273 0.5125676700347881
Ni 1.848230932291761 4.146247072800057 2.81505233420332 0.930245692578527 -1.1283021399677535 0.9388285491515315
Ni 1.3185517757780767 8.227766474180044 2.629692907130573 -0.3218069849760264 -1.7201703448060828 -1.490028329736221
Ni 0.727531674557767 0.026740342369535375 4.476158367912653 -1.3566130153661475 1.4777492552585518 1.4964098077825325
Ni 4.652088122276992 5.64261849636314 1.113939000570389 -0.9710138756348243 0.22162780695126344 -0.9042960625923006
Ni 8.110894710973772 3.5387853701150567 1.7637739046682022 0.6571235744027135 0.10519951405748978 -0.16480154199083874
Ni 2.8700270244644646 0.39782586411634613 10.675049319082392 2.5720380143953383 4.756057480984584 2.8290213180277606
Ni 1.7930705517543712 2.1290191373205207 13.027143746538588 -0.2802438168222593 -1.0681272702500701 0.2408560590532562
P 8.628131676388797 7.570950746803694 13.364367656692352 -1.6358381611159052 -1.627711418243713 -0.36669973172365883
P 5.948215676370439 2.3863556973087774 5.871475634998753 -0.7872962134657732 -0.12209397581998328 -0.4896555413233051
P 0.20663368867098508 1.4608451976154717 0.8940628616914443 -2.6576827462493524 1.7022204451958813 -1.502111229042684
P 7.978809541378687 9.121860441349234 3.751991740492932 -0.29586892495402595 0.5132225300099678 0.9897176226919149
P 0.6181978054587676 4.412255462947985 1.0437650427739502 -1.135976625793876 -0.7914719421100176 -0.5242471632552456
P 2.369351369473943 1.1728650290955926 5.674100067613453 -1.5053320499728269 0.47506555932427225 0.0493042455517667
P 4.50955905288091 4.547290939977829 12.747765656501011 0.5180700879102562 1.3269136885295016 0.6968957120943288
P 5.405943514320536 8.019614272640881 5.350520151107652 0.3842775927064221 0.0067118648025368275 0.5716559915565123
Ni 3.7905323700112645 2.5535617790505336 7.053827834807073 -0.3302504877576893 0.4412378121415498 0.2146035531146304
Ni 5.547209512802057 5.234250703061385 7.691467506447731 -1.8753590462975056 0.4201491097920506 1.465784883807824
Ni 7.372073633174442 8.60916676086569 9.218175254125908 0.9168175920980791 0.5952651463350199 -0.2323711615106966
Ni 5.733352232359879 8.087678713491956 1.2678498470510398 0.028008312287467894 -1.5888569072703604 0.7701860361480478
Ni 6.729820924924933 5.776598272330068 2.184959039982046 0.43827024487279354 -0.6732377063557566 0.12094520692752073
Ni 6.947644102272598 3.7786745848581482 9.327879561187164 1.0543970651481713 3.3656946228615 -0.40672280908381564
Ni 2.8462643246464947 0.26174034156499426 3.541440646806339 1.2514132441983414 0.3221926504502193 1.323466867631482
Ni 0.5247183041082112 9.091395924962214 0.05687966512556814 -3.0977507064525165 -0.5295618905999395 -1.1857285004060225
Ni 4.462137338170792 3.6446571052818313 9.094924040210872 0.8554880399506621 -1.4376588149955691 0.30648578123792375
Ni 1.7793181602294135 8.691926183476468 9.409508818106481 -5.498385614380098 -2.5097378708045355 -3.4536037252696583
Ni 8.947547229237486 4.880826494543027 13.082505841386215 -0.5422649399889047 0.5678929249696543 -0.4778878592644156
Ni 4.712215953351498 0.5396894648066966 2.105991657885654 -0.013110826350345163 0.6203364874813511 -0.7295127267984017
Ni 8.940854838570782 5.671320369011184 5.390196601858854 0.6558521638894577 -1.152226769104151 0.36702034828787117
Ni 2.21349407415854 7.662014389382595 13.515017140960778 1.312753852089352 -1.3034276895924197 1.1633784148455963
Ni 8.018879052257779 2.6166399175597976 6.53950818616859 -0.9750322527655981 0.16163060046202485 -0.15252940949170504
Ni 8.831344705097885 1.707106322345452 12.546899677476443 0.9326792417206841 -0.11931178508915581 -0.8341003183035054
Ni 1.8310852159217144 5.2744616024756885 5.367157811341169 1.0948495167362629 0.397199957195045 0.3948383989414039
Ni 4.948014326475787 8.368711991981751 10.399161640684081 1.8214792655599148 -0.0970444890505232 -0.5536996641884078
Ni 3.687573238669858 3.0197951868634028 11.574077746130484 -0.10014241124955657 -0.4932591995141634 -0.8591968562608171
Ni 7.339648529099148 3.4850388749297876 11.498711058730823 0.16016661432198867 0.33479208438178465 1.4159898146625678
Ni 1.1971273017379784 2.982440335860382 4.797378981060882 1.0944394257820378 0.21042216804343114 -2.3221337290968846
Ni 0.2628573109931694 4.229081902629616 10.554460922580516 -1.953498728023726 -2.097666652924613 -2.434023253580041
Ni 1.004904875166039 2.0791089843906714 8.866466559834791 0.6914812259469769 -1.2820893331259597 1.643677968875298
Ni 2.741542549566112 3.833401373887554 0.5032621225946671 1.5207532696239034 -0.26337223787790126 -0.03840405369949516
P 8.047750591148077 4.60140504535465 3.747121376749995 -0.7992443869665848 0.08158058908696918 -0.25107208035430956
P 3.564518083523648 7.910170120484416 2.3964894849225415 0.5235606787111822 -0.10560909079108263 -0.6199366809397711
P 1.1956191573623833 2.0200651320861245 10.978597307919351 -0.33906962871121604 0.4906266469873227 0.2552321252692701
P 3.080865608172656 5.012430943118392 7.65882654920868 2.593725526671101 0.5659841379827155 -1.4734897086512493
P 9.240146089907626 8.858858914050149 7.92272636500148 -0.06532993155606168 -0.08250824310756112 0.510183743183644
P 4.54792247543511 4.521266023596467 3.0273688993995944 -0.08117101235337633 0.015788373182508295 0.396264332754653
P 0.6638031487865277 6.296794971082198 10.674442290971214 1.5785105310390297 -0.0874074801813914 -0.10187224945646972
P 3.1040250502403874 2.003645210196833 2.2120952702501753 0.8400850751320306 1.9894718036842254 -0.27412690529124406
