# total energy = -340896.2123993584 ev
CRYSTAL
PRIMVEC
9.03201781379687 0.00000000000000 0.00000000000000
0.00000000000000 9.03201781379687 0.00000000000000
0.00000000000000 0.00000000000000 13.21927104084999
PRIMCOORD
 96 1
Ni 6.290502312743114 1.8229502083882918 11.576485287143225 0.3258983814365806 0.2568691466520609 -0.06416265072083789
Ni 4.645428662105819 0.3611235532616518 6.092008368053041 -0.3863972101525862 0.6427685912326221 -0.14760986070290064
Ni 2.675933965573427 1.5996335692904253 4.789632954448494 0.0806807029805191 0.6206810153049632 0.13911802118180558
Ni 3.4963934268074435 4.270446380794349 4.587258854929039 -1.3048333116906947 -0.1474064864428429 1.2331666392833278
Ni 5.0518694612728146 4.281637050798079 2.7795104356313685 0.9201178601159058 0.9242059141423503 -0.43887702521885713
Ni 7.375717310554513 6.176942753455856 2.6584082383133465 -0.8421825810910076 -0.3838199363437132 -0.2816872341370052
Ni 5.034022194180504 4.614186912676517 11.50142650995839 0.9194038647680165 0.28884287134518 -0.49487616629229614
Ni 5.625149692488984 7.692714037851491 12.450795444661537 -0.7014833314650112 0.9979281835271651 0.4359487958284685
Ni 1.858400878093413 6.73192411669175 0.23569321303338908 0.22636943540130694 -0.9665897784251999 0.2208773019384841
Ni 2.541013684285503 1.7007470081054148 0.24423298582477565 -0.2896365708910689 -0.6795878169435005 0.7943546629744513
Ni 0.4636378580311034 -0.032607390514504196 4.649270882460611 0.28052149596367815 0.4510789666016876 0.5178780265041081
Ni 8.669553854569449 2.4736709598724116 1.4830835089230738 -0.046213008220952666 0.7971358252640143 -0.7090793986447144
Ni 6.840877346921784 0.7238611280968846 5.020149918104046 -0.3004326330653084 0.158523679401927 -0.37348410163534385
Ni 0.6799619089797453 7.634141402682647 2.3235777919506955 0.08046087366022918 -0.3331041551564005 0.31252838788757786
Ni 7.578901582066973 3.934446288131873 3.8126892695263037 -0.06748065935047733 -0.26213785125016786 -0.1511728954638106
Ni 7.533443436684585 3.8714569962787473 12.700573186188727 0.7394639244738426 -0.3568423793136048 0.07528807121003808
Ni 8.0366894021954 8.393914736592153 6.87716709107674 -0.8370935966038745 1.720626972727527 0.8388548022693553
Ni 7.085139235203388 0.439887264131336 0.4941841420929429 -0.2837849972062984 0.3599891524727026 0.17288174789581193
Ni 1.9186625005832396 6.259260563313811 9.117688254116773 0.2684393679881635 0.9630871645885801 -0.291582124653214
Ni 0.23407467545092853 5.069572216080978 1.379907157251868 -0.3910969296211007 -0.45821197810204317 -0.28980292126560414
Ni 6.502872146316749 2.0699217019976768 7.260222189861444 0.005305728483629571 0.0658868325007962 -1.4083675222306196
Ni 3.4710586169927007 4.056423687970768 0.09589383575190917 -1.0554062231389758 1.268435746898267 1.21542371347761
Ni 5.900779778448521 5.483048957082443 4.966361542742286 -0.41796058678116405 1.0929666978912531 -1.0142616305798662
Ni 5.28678321117358 2.8088942990075907 9.444482011077229 0.6536821528213322 0.28628410947906824 -0.007396549574387261
P 0.25506508472346406 5.615349953220179 12.361062348223227 0.40726685451274375 -0.4700272255694163 0.7872831008396506
P 3.955915394345649 6.182045843489842 12.638495224927512 -0.29590312062607105 -0.04623229149466231 -0.13556758482638587
P 2.3907751008778626 8.723303392254845 1.2699233737955027 -0.1731288309096115 -0.32819051990486703 0.06437553806259236
P 6.261672112055535 7.757374252990082 5.87708969906774 -0.2548112356817676 -0.3783360304110065 -0.022562458681548242
P 4.433374949153758 1.1504622941043394 12.533852073572202 1.0976581898296514 -0.7721449596466315 0.11243305569145151
P 4.020665929661831 6.090416023322082 8.066822019843865 -0.07965277593663701 0.4561844061490531 -0.12562692867390624
P 4.598913770645597 1.1610749149714776 3.765337110019797 0.5685974072358465 -0.27928968043910607 0.601137545955397
P 0.30849308257662955 5.785811224390817 3.504244056643798 0.49792112376620695 -0.486324420067543 0.7300788837145168
Ni 1.3251957096751106 1.1571279232106781 2.7155294282282756 0.04894763354329634 0.6799991934493064 -1.263737312981333
Ni 1.9770003032903425 6.447785870002983 4.827201632318163 -0.03565091643439021 0.80280176530054 -0.7420982767728962
Ni 6.029720863979811 5.543978948886454 9.221340593123891 -0.07614553411432692 -0.39270849708259464 1.0466462175581586
Ni 8.384313701714051 2.439015107730105 10.332578640503288 1.361086734866785 -0.3078042429390312 0.5567145397553315
Ni 2.34426020941764 5.137917494465348 6.88479463007444 0.7314698505247725 0.6137416078726526 -0.09369691273452894
Ni 0.5133148589088455 -0.12146709083549656 9.133459060326226 0.14266305822058656 0.07819624599576856 -0.19867325503761912
Ni 1.4611817690586282 1.1410509315991837 11.28170912993759 -0.3771191272847699 0.24681047686447816 -0.40345467985550515
Ni 4.037131298036974 6.9259589542140745 1.5664309688055857 0.33852198373786213 0.8071818966461066 -0.08991404865332903
Ni 5.599778754603203 7.7221945438177375 8.181472646876443 0.12575034162564794 0.9586445554361941 -0.5377637096844415
Ni 5.268692079601768 2.9099445136982647 5.094825737735886 -0.03351098727325196 -1.1461805629100712 -0.12459488786496604
Ni 0.9328087301415334 7.324993498818472 7.012082856355785 1.1868057926306013 0.05846071524005416 -0.31967554045532043
Ni 5.148331410941782 4.324656551385467 7.317065193629387 0.3537845663238875 0.1518436962785901 -0.7020291766661522
Ni 8.008789499337025 7.025627270187581 9.17467667337064 0.4582803694461333 0.3085084680949074 -0.23448717941243488
Ni 4.7490168737868474 0.3000851772445283 10.272008123006094 -0.7098324747606549 0.02525337525015005 0.4202488685947085
Ni 8.092588560107501 7.141959658926934 4.818265353947144 -0.04122275409521287 -0.6425580178837128 0.06150515849333278
Ni 7.178430946638853 5.988363254660129 7.10008361178787 0.1258436726704026 -0.25659121040032584 -0.728905432231706
Ni 2.543154272494449 5.1181193115370345 2.4598682303327 -0.35595971959833533 1.188486522767134 0.3008630357345077
Ni 2.4754683314065056 5.206578893471292 11.28382442849681 -0.34194823581059175 0.3300278302239219 0.7587502835072804
Ni 0.9606725049288709 3.4743372394393144 3.7912472593658046 0.6281166456474021 0.1645896830903488 -0.49569609109043017
Ni 3.5348427264086415 2.5812693874385544 2.4434498284499053 -0.07646357957537799 -0.19101316738920007 -0.06856746465675288
Ni 1.158672398247513 3.4267475378657393 8.102250109504588 -1.068271252027102 -0.33987541244196307 0.525645586264669
Ni 3.4438090194129938 2.699372051658724 7.274168528483526 0.5571590834919179 0.17855565835213763 -1.1841159045032639
Ni 4.219894177395734 6.956315565902969 5.988395769924063 -0.8433704307515217 -0.12716599102625198 -0.046371902396320136
Ni 0.6572409651045342 7.288377698822405 11.050860691230273 0.34229199230325563 0.3995496883741442 0.5361086905795219
P 0.21651914253224208 5.52100149570688 7.904661172993993 -0.32392197443650017 -0.3113598215007734 0.806390768203379
P 8.657333534541163 1.3633740487435304 7.755904743700648 -1.6003384255473987 1.045677425886986 0.7036687691521043
P 1.7568990625147751 3.2135286946227333 10.232984387075406 -0.02429769620510009 -0.3247213304093439 0.6075994995306568
P 3.994671782550662 6.217695217585667 3.7269221320860844 -0.02770235101127487 -0.1645791415673875 0.34846881053792883
P 6.944248790176588 4.00184320465152 10.570803528114599 -0.5650721676914074 0.4770419663243526 -0.6583546185963371
P 6.303047785410736 7.792012041096868 10.360074812167824 0.5390142942620911 0.10838562509495528 -0.7650613133269727
P 2.3335482363551496 8.680852908786292 5.73500883410027 1.0135764315873834 -2.0229611936909224 -0.19230437539679784
P 6.963170867382253 3.982821775250504 1.6963764147117057 -0.6391129967579058 0.4269746173543163 -0.6296168843420126
Ni 5.377600149743004 2.858182019919908 0.3962012006333154 0.5267131082972349 -0.3852368712958978 0.684979163162401
Ni 1.5463717605640306 1.0840318034849339 7.079250359624346 0.0796417201930435 0.46246638250302285 -0.6267066526737529
Ni 7.141824178660545 0.7534780175312956 9.131977809413707 -1.1178786306415844 -1.0407805028060013 0.5754889921493572
Ni 2.7108788422840293 1.5398687077773587 9.175945671865817 0.19305693729210624 -0.6160869681763776 0.7647365829977023
Ni 6.3197570182653795 1.8690405950138291 2.5541877853891695 0.7777157688661896 1.200561451653797 0.5642774397042539
Ni 4.205199084501407 6.813618717324316 10.198627494720933 -0.5715426059070996 0.662863305099968 0.9159179631019453
Ni 8.156923622606756 7.093873196376598 0.3711915434579063 -0.39021529834709573 0.3788332817623992 0.4511041634126683
Ni 7.7033266587186295 3.8657848891259277 8.404297041006428 0.09271963642292419 0.00512755103455246 -0.41609396588607045
Ni 3.072990498288545 8.425057133826103 12.280834547274763 0.6193838937600946 -0.0009109418500435924 -0.13160371508263144
Ni 0.22346295778556624 4.893357549597686 10.293450133166592 -0.8632828534047325 -0.8298826806777322 -0.754456798338249
Ni 8.571113893011203 2.364663537535823 5.672191150584571 0.5750976702482096 0.10473054484087124 0.6619150822540858
Ni 3.6789576017754992 2.7328989015811214 11.345293631761052 -0.791780731599688 -0.3656579207227057 -0.8123194749829882
Ni 1.082956993371581 3.4163607174425823 12.383363303272631 -0.9244905352623047 0.26610609186929657 0.6206010539966473
Ni 3.1470891719855683 8.368552830724132 7.9885641019686995 0.08409075710333261 -0.30979941899218905 0.04905999075144454
Ni 5.3860270223124 7.961669462686932 3.717589348135434 0.12815380886081798 -0.060387757059437934 0.2882502320665035
Ni 2.911434796628544 8.568332031541349 3.3438543884765184 0.8168397314508449 -0.8378911528045053 1.140425662704165
Ni 3.4638420348030468 4.353459656019767 9.23169128547601 0.19394371077243372 -0.5886964919785668 0.06793985837508298
Ni 7.34459297735608 6.236192789956645 11.492900285193643 -0.45707606472538703 -1.2069236464263988 -0.5010391005698984
Ni 0.6147895784342055 8.933415221388664 0.003434876353849079 0.2095395083281617 -0.14121706980267937 0.6309805974587585
Ni 4.769600842260216 0.41739121749833075 1.564566760340073 -1.1963057617012365 -0.3000132861397027 -0.8292026238915718
Ni 5.912693009872994 5.581434726534133 0.48418389202988305 0.10103869781158083 0.0017064411681454485 0.48744902059028955
Ni 8.00305416805989 9.004777193704628 11.350370528943536 -0.3263861197062766 -0.9137646642043683 -0.8011140931854719
Ni 9.092983879141626 4.863037065979828 5.721552030840739 -0.11375126028224282 0.3359439385980408 0.09026037624915423
Ni 7.6435347011522845 8.818853108130126 2.9157087474322285 0.3306821759784692 -0.6998216274918723 -0.526925481418357
P 8.400526173591935 1.7371460396752592 3.521349795078073 -0.24670866117929124 -0.5462972010767494 1.0150576441186003
P 1.7459883850615812 3.4588563609999317 1.5146377661668475 -0.14818013138407382 -1.9244285501306468 -0.9172428525609558
P 4.783275317147746 1.1155625774825333 8.22455446838637 -0.15382087460961896 -0.7395318015973005 -0.5561003032101003
P 8.523469999331072 1.6170563315480508 12.593299008060143 0.16343911442567335 1.6446182213013802 -0.7737508706811707
P 6.223611189217987 7.744593947860719 1.5673432025992715 0.18581028303202193 -0.770764277249021 -0.5848478076564378
P 1.7122808947839983 3.2860106371408473 5.95066812854183 0.76378038973202 -0.5760140114148918 -1.1710585570986736
P 6.9497402569742235 3.9592301448633003 6.003425950677258 0.5198747452191628 -0.3820769855106775 0.9454568531013267
P 2.3475117358109756 8.360396918687513 10.137660471644107 0.7822357682237303 0.34676416914199637 -0.04044191006513035
