# total energy = -340874.4872038203 ev
CRYSTAL
PRIMVEC
9.18301067687823 0.00000000000000 0.00000000000000
0.00000000000000 9.18301067687823 0.00000000000000
0.00000000000000 0.00000000000000 13.44026435855329
PRIMCOORD
 96 1
Ni 0.5570037688926103 4.17647910774061 3.768972913804729 0.5437782913096377 -0.5527231592077514 1.3781794286830136
Ni 8.278621745176011 7.936784177898509 0.9256401158231929 -1.2042162747975649 0.20142562097177566 -1.4150120241303308
Ni 5.9255487588947044 7.015269070408991 0.30876954633012005 -1.4110949484641118 0.1885387377067785 0.7196504892923412
Ni 7.8855429790964005 5.3013795326260205 4.642038457695695 -0.6696255635244661 -0.5594915882798365 -1.139720409107024
Ni 1.7832029013238866 2.451505676238258 11.575467619888867 0.8863546476225315 -0.7433221218776682 0.37707259031755064
Ni 6.833096507355907 7.250060283844885 11.66117633044435 1.3295326142095876 0.2982731635201444 -0.9464644684302345
Ni 8.391747251993783 1.6303884229608268 8.632762709972342 -1.824071708877439 -0.6468952118064859 -0.5186863813380164
Ni 2.503215208577804 7.185026203214683 6.545327587825167 -0.2400217360774189 -0.3578039718959257 -0.659448108770832
Ni 4.44759831086488 6.416545966341137 11.086725759830571 0.8350516264731813 -0.4944933290315806 -0.6842484556439634
Ni 0.44891606165599224 5.035467096476802 11.09652403207463 0.03954742327531899 0.7155179551812065 1.448913304863466
Ni 3.0990089322840313 4.708285614017968 3.508729150060627 0.18435683841494702 0.8144586328131781 0.4145561890853054
Ni 4.399534433708924 6.7268123433889535 3.1056684515261974 -0.25400776594386576 -1.48075256086125 -2.2252792445699803
Ni 6.829689610446304 3.7548044468456303 7.582526588868345 0.1395959892594886 -0.8657613968522123 1.800971889635182
Ni 1.146480499649739 2.684726594872152 8.069789984230022 2.528225130975446 1.5694278520114713 -0.668109641100572
Ni 0.2726233802503967 1.1271318964461476 1.6135982064931251 -0.4121630062627805 -0.23673200958255355 -1.3083780916191594
Ni 3.8852123794959406 2.850737059378335 6.034369270372256 0.6119876012960234 -0.9315893510906149 -0.5284907690229479
Ni 0.927686090571062 1.0391127404393012 10.18337923869051 0.6439780381596909 -2.7558335809901764 -1.6066088319371425
Ni 7.478689697209774 0.42482627011162505 12.33722130154332 1.5039161434619066 -1.289875661939598 2.4729353572642054
Ni 7.5582513005111105 4.381811223370561 10.027337850424393 0.42950689685786675 -0.07358420114505392 -0.25444871013602627
Ni 8.887987958457419 3.8248340852085105 6.140776486680418 -0.4500034741493218 -0.9745077477206959 0.9915916997861762
Ni 2.998592712050869 7.524834325163284 12.480938171366372 -0.7093573348964494 -0.7620569792830102 1.7430824735175658
Ni 2.637654482854302 1.397626654853833 4.442451233458324 0.23617665129971585 2.9807850529980344 -0.47892298539714934
Ni 2.202618541626515 3.018593309002659 2.3339153896969047 -0.23687650558021786 -2.134250108475602 -1.3513710502409177
Ni 8.683629241944498 8.436376683208522 3.0915431447166273 0.6220172176178836 1.614001524856788 1.7012763361150571
P 1.599717167763866 0.05542497840322605 3.0716114203438725 0.7876795649471209 -0.5488572484944418 -0.8371445044464679
P 0.061758500771293016 8.760922641642946 8.331350591685275 0.3474581098852274 1.29946150585582 -0.43539163777341794
P 6.8759811665684225 2.890040344481027 5.731412569712698 -0.040515186505227 -0.5909212675440274 -2.509888280339471
P 4.019376163456298 7.7920323827878235 1.1587627762443304 -0.05046509862908728 0.5721756115054081 -0.24334000181737445
P 7.206854219263539 1.0468723843439216 2.669277097943 0.3818499571015359 -0.439354736186224 0.2579125003149107
P 3.4747318084467977 6.097032297681543 5.1249344132454935 1.3434086008607315 -0.5370499714468686 -0.5994706997759354
P 0.2546825325622824 7.1076226073897795 11.852296818965675 -1.0392540388591456 0.6200775773930094 -0.12961239568421548
P 2.612309373769388 5.25278304085886 12.08244785717671 -0.6700148285430848 1.225382624462535 -0.03353129898822612
Ni 3.8480762848802192 3.735694601916027 12.893823772875418 1.2896005539013402 -0.7197340501450831 -1.0220415316356013
Ni 7.220041022396123 5.259422357477842 1.043059598368539 -0.8039644181500734 -0.11678541912287631 0.9020615168348272
Ni 2.384533980384535 1.4812195997813575 0.17914125127448696 0.039367703164345104 0.14841435888206694 -0.16337226574347993
Ni 6.3386373049366425 8.19431252542652 3.207263770312441 -0.45016288254532155 1.1617840737752831 -1.0468051117335262
Ni 0.36780803938005385 6.039142599249915 6.3806578428575325 1.1257644611475643 0.681648041906639 -0.09205474914541564
Ni 8.02297591480829 2.143443221719565 11.001326516730218 0.4479237088021576 1.0527970676509029 0.2045101734343704
Ni 4.882441408871368 1.0966443014599472 8.03424071383527 1.268853551161976 -0.13636668368891353 0.32540267274708473
Ni 0.17528530514957566 5.895887634856926 0.38152470222068263 0.8203138060423742 0.31267416943682275 -1.3643432941308697
Ni 2.658499916775589 4.648697058636808 6.796136726542515 -0.45887429427639037 1.1868988665650397 0.28207469938341095
Ni 4.867289441483647 7.429799349105397 7.55410057974793 -0.935310508695944 -0.06616579719379573 0.947769303284587
Ni 1.5514053493233844 7.767807600988547 1.3740116249542809 1.1548791191253338 -0.27348181550807743 0.8235829637119494
Ni 5.623014476719895 7.027849794846068 5.055353824097922 -1.369175168301874 -0.23170190335781388 0.32316298478328864
Ni 7.42821068828232 3.179562300723474 3.242813040707194 0.11260506249294155 -0.23261695897291554 0.9285531353674525
Ni 0.7875744706852342 -0.18664193428193526 12.924467479040766 -0.14263914696118662 0.01880890517638696 -1.2529988435179067
Ni 0.2642594942523752 1.60570449063465 3.8828247967560574 -0.8245054755262187 1.3146973489689682 0.6568340681867526
Ni 4.253974533670894 3.637629232380595 8.369749350249974 0.24899617166188728 -0.02522920688043397 0.08229355599359375
Ni 1.116038819716229 5.180384185777172 8.664225540677677 -1.0057790470301518 0.4697791141143522 -1.0863422505962002
Ni 3.0976773957560195 0.3530142094033163 6.596024234102369 0.5198824585286466 0.1642811507109945 0.017754752880259742
Ni 7.356105689537849 0.7116475029548422 5.210050819621274 -0.1764967189405799 -0.1451017495690662 -0.386358900715483
Ni 5.224940152907607 4.985842107529385 6.44476811262761 -1.5163109175818337 0.6259062682596446 0.11762077053997808
Ni 5.268476805868323 4.214083535893769 10.598441213697066 -0.10173340988576027 -0.5110908283789456 0.3802756706358806
Ni 1.301425436457618 8.95109360687464 5.202726450416155 -1.7196247567152576 -2.256253838574624 0.4438361689963453
Ni 3.433922509615872 8.42029723175646 4.231815010941617 0.6303866726285015 -0.30471454827011396 0.488497516459462
Ni 5.197565598493793 4.092959626897389 1.831437582475849 -0.5490030300436868 -0.2674551496980232 0.018538425123819684
P 1.6627309860757054 3.1954213599226207 5.543880801709629 0.10865944758163223 -1.0379659161753414 -0.38584236609038064
P 5.987579995078978 7.789084636405121 9.675309896352859 -0.5970708320851911 -2.710616875244222 -1.419493199830136
P 8.205607628388277 5.446966981695665 8.11825515894649 0.6030013386370131 0.12490059203084297 -0.0814054969616856
P 6.480533183770007 5.940636445208659 2.9992355227885295 0.048784111382238565 -0.054971471139873065 -0.11524121456420798
P 4.131748663409952 2.724158442122376 3.310860985395971 0.3878144022150869 1.0636676918168197 -0.3398543293960405
P 0.35432095180287543 3.2374428161445645 9.905864068726514 0.2082920090743058 0.1323184817614689 0.4444169812004798
P 1.3852479566485927 5.068865705803553 1.9749799750986783 1.5299791590975458 1.3910843096701395 0.34169652481110185
P 2.800607004851327 0.2655947039846022 11.750379176509545 -0.42862372292196504 2.0170975358212937 -0.8807074766390831
Ni 5.026651406360311 1.1650669129786757 4.367843864342245 1.28210193153145 -0.8335413604762418 0.6247796108543692
Ni 9.137912773259957 3.558866550996065 1.5242199649266532 -1.7728900437973014 -0.133292415638964 0.9385094752492159
Ni 1.464332043401953 6.672329541866928 4.057857569115837 0.340115296366911 0.08663486368142499 0.12181706800951278
Ni 7.241106848570324 6.390144811044353 6.4102399930046845 -0.08773375317255858 1.2696115123739231 2.4614571814212773
Ni 1.9869647221518378 6.752405393758394 10.240500319140107 0.3280421672524608 -0.27365999295715454 1.219130472905236
Ni 0.3172114879177146 1.4292713091678229 6.432483999430912 -0.46561701231686264 -0.654883372218285 -0.5238874659229816
Ni 5.033933533716954 8.975401035768758 12.021510317547515 -0.6685431290935647 -0.2673476775858815 0.46017681513789777
Ni 8.72034291807547 6.245099159596451 2.7108338938317202 -0.05636655171518679 -0.9554926400707738 -0.8889594322352302
Ni 3.406547955202058 5.6374226202540365 0.8561935986294761 -0.938947334117583 0.5401489220871666 0.4147631628897889
Ni 6.555264523528349 0.37683861194313495 10.302419522595814 0.20083452435499605 1.950681313179589 -1.3261295020653099
Ni 5.5898729916882095 4.330340449305003 4.279044152439667 -0.770902088378466 -0.5912999910396848 -0.15260525703496297
Ni 8.400351732867898 7.313698546873309 9.643187725490893 -0.21450430853260477 -0.8710632686810998 0.5416812995712929
Ni 5.972483125754485 0.24438654114706315 0.8388946433779688 -0.24292836820125263 0.21023781994676696 0.6051908900891642
Ni 4.128690720900794 2.1629663021233783 10.32275438113119 -0.7441201922989313 -1.667066780112884 -0.11880244955290509
Ni 3.841942033840827 8.445734170946755 9.858796548213933 0.7096411846854552 1.2509815559775617 0.6496043832075329
Ni 2.128061679068394 8.111913371868937 8.444195098380584 -1.4584857790432497 1.7413330949266266 0.17107837613848603
Ni 2.429613379115637 4.113456106418232 10.222019510432359 2.7990846783693275 0.03872955535971394 -0.8369601563498038
Ni 6.067242611496233 5.7533305792648255 8.645060597684846 -0.32235540128032864 0.6518772384021095 1.2033073898300501
Ni 7.04631682903801 2.680447311961438 0.9619093342441256 -0.9545410747907818 -1.4285254852357334 -0.4519449141464088
Ni 7.983782825832054 4.127616308667847 12.693079489310257 0.3002824806406893 -0.2362005625591158 -1.347720083751892
Ni 3.603293955978968 0.7752022005873705 1.9663782491277222 0.4947823210269091 -0.912306591601603 1.1621671681463146
Ni 7.178405252616776 8.657824982332684 7.525956489051029 -0.22650827497201637 0.1779787028027451 0.5733027831313159
Ni 1.4427336026165487 3.7148399849842013 -0.1098747210873152 0.5316457697121618 1.8673287197938613 0.2265643250209324
Ni 5.832469764081413 2.083349600758813 12.103535722576202 -0.16849056080665176 1.0055713018947199 -0.16596085240626257
P 4.697844531036249 2.0828261691581464 0.47486449453325313 0.28188083820505 -0.26496220807284043 1.0867469422337865
P 2.8162548548080997 1.305181287767665 8.549526984154745 0.03680277065064629 -0.13710741850968 0.8317978954225739
P 5.300488780603833 8.924857745767538 6.145050259784809 0.7033232128872274 1.6329770375180266 -0.8274519597490523
P 6.168485302677816 5.2739866121911305 12.315744076497015 -0.3739294167028786 -0.3491835772167664 0.1348921560259161
P 6.363009014904527 2.3393260195059016 9.33709961823787 -1.326776134510373 1.2153026145187134 0.31510540458613473
P 3.7263830292304827 5.796848866204464 8.845749783186779 -0.777752535641396 -0.1944029097970394 -0.1315512645781412
P 8.896454694173467 2.1809007217041163 13.127670054526952 0.42616549118945957 -1.0731841159476871 -0.23419381654173213
P 8.628283237431898 7.752692365642979 5.194353381407597 -0.511873472181241 -0.6960475051614206 0.43950026062515274
