# total energy = -381166.2792679789 ev
CRYSTAL
PRIMVEC
9.24322973516660 0.00000000000000 0.00000000000000

0.00000000000000 9.24322973516660 0.00000000000000

0.00000000000000 0.00000000000000 13.52840103739189

PRIMCOORD
 96 1
Ni 7.922381544209319 7.63364153028096 2.4967886405768476 0.5823690070986421 -0.8590132794951012 1.3566011882916054
Ni 6.824507676024583 7.527483035500014 8.978827256224426 1.5135912046578255 0.675163976844192 -0.14597978129864536
Ni 4.982174832815709 7.75290692498349 10.318369066023944 0.3353618408423256 0.8401894619203788 -0.3077523066551732
Ni 2.6252159247027014 0.5901016582113884 0.1610096693328919 0.16891145039415426 -1.4104935674346868 0.30071853973684337
Ni 0.489709090208357 6.012000042874426 12.457668397724088 -0.9293581477672511 1.253469869617054 0.5061712795901412
Ni 2.2056379923046596 9.118723539943158 11.634100315740248 -0.20389773666135202 -0.7697916289231065 -1.0346743899082633
Ni 2.23541967886837 7.414567739701664 13.424286553450107 -0.6906849552979266 -1.1598488044257833 -2.0989750873233914
Ni 7.46421312720436 4.725610501981166 12.030320606317526 0.5828022379813189 -0.7668222618821374 2.4843137743044763
Ni 7.574161346222154 4.832656346827324 1.2885302729255874 0.7494467467181672 0.7386473421098183 0.09259802324339537
Ni 3.217022958820671 6.467691274280666 11.101405585133215 -4.008458328998116 0.06852067057921749 -1.062448217587422
Ni 4.374108957398681 2.9176624737992936 6.18568587761808 -0.1541656595435474 -0.8552674392994237 0.4893449520614217
Ni 3.056837785590039 8.52865423303623 9.535872351537677 -0.5280138293865294 0.5492452279614799 0.10795213710196247
Ni 7.224730285125166 0.535569375089129 4.60632569649596 0.8976181363514928 0.4262565082413691 0.534729293733492
Ni 5.287663579224962 3.357002431608015 9.354199441884123 1.2055679037294527 0.6192440257481207 0.7459024810103349
Ni 4.751944463812329 0.616771149285961 5.729832889689535 0.8463289991592134 -0.4510067186028555 1.0098038519188286
Ni 5.2522065495358286 9.09737167899897 0.10384861164243901 0.6876294563010544 3.250355449266847 2.129198147873991
Ni 3.836661358004851 5.935161073164892 3.1305396030898525 1.1031744916621904 3.0697951017798553 -2.1194716646148466
Ni 3.5454903746270023 5.920279473112883 5.822231912521774 0.08111881895920223 0.3005480755972501 -1.090170880313671
Ni 2.459373894806337 2.6595914964998575 0.7064277058229002 -4.948011415020498 1.575651721433996 -4.774260377145855
Ni 5.961763088661589 8.887725982862563 2.602093060920027 -1.3735586420815507 1.1343210924683238 1.849944462879143
Ni 2.8892487852527875 7.222733747478437 7.642761825169977 0.21029952642263783 -0.5995272640454836 -0.283438412500157
Ni 7.673600012905081 1.7089992526807802 2.6030811621905605 -0.5952150098233749 0.9969951301899346 -0.1846651136839852
Ni 0.1408538823307733 3.6345119212735235 13.463735734109715 0.197913236943143 1.010394434314976 -0.1519676234509641
Ni 3.1264300631003348 3.926736632853813 10.472930658216288 0.039979625716731144 0.2528340573507387 0.34983972274352654
P 9.064373348448864 8.679818013937197 8.569890130025064 -0.9066542784118322 0.053746597593836466 -1.464603461905213
Ni 0.6847523318341043 4.3155530963244715 11.075526390210472 0.2240140477952529 -2.2125983066682022 0.7179049673561443
P 5.282736937717061 6.9991030445850795 6.714145360309689 0.11895260197752416 0.25249955682945546 0.3317831223521318
Ni 6.62817223086637 3.5470894533903543 3.986413697708338 1.8856763690631138 2.1963160245684112 1.65352683664492
P 0.544847729208512 2.911987130673869 8.95902178763347 -1.1608011410367234 -0.05637606479688355 1.307577450094735
P 5.32776995352662 1.4625192856081883 1.707622011433731 0.2749175195133394 -0.5216346653330629 -0.4180163797197639
P 3.0611081577788766 2.1818828916005213 11.961568538400229 -0.5037927520556357 -0.294753323292344 -0.04916412042947662
Ni 7.08865145533282 0.93224443257483 12.19631330086038 0.3027921344364205 -2.1870837073368654 -1.443043219235934
Ni 0.2999529760545035 5.047043819874715 9.062689231970928 0.5535621101692789 -0.8565218805318152 -1.7635057743689242
Ni 7.864934870716627 5.9448202483539285 10.33059785911016 0.1517796758098741 0.9996929887370719 -0.7356574062435588
Ni 2.9519640997576824 0.2780030781392825 7.374412376281824 -0.687038873904907 0.332065429479241 -0.5753007873979511
Ni 8.62340658218725 7.419854867173558 5.5430050307508845 2.282708433221727 -0.5434080524544125 -0.16493061136953532
Ni 0.524582872094211 0.6008681723359725 6.285146728052638 -1.2244498282356202 -1.1931664447413064 0.9772081773709945
Ni 2.214077061154029 2.4379665744830743 7.695576716186856 0.2560175972850429 -0.2027849632131475 -0.030738823844753516
Ni 6.860879785468469 2.507004258202612 6.1597382827944775 -0.22733565596931812 -0.4011358019143414 0.6013085243156225
Ni 9.019478981086996 2.7369388438509206 4.725632685732795 0.2847501893330451 -0.2908930690059894 -0.8931914680387069
Ni 5.501034296989296 4.780099341923148 0.10697282333037632 -0.9074726605480693 2.108673031337446 -1.4511136549488945
Ni 8.383627956752987 6.206394409764987 7.638256674943052 -1.0748159951241554 1.815167207298958 -0.2768034236821426
Ni 5.200111706123951 8.857888836919777 7.9246803354720114 -1.3141720725931174 -0.30732756041292875 0.4193122157130521
Ni 5.287293850031125 1.8055170587323819 3.917081154956714 -1.0261776652911618 -0.481597446905519 -0.9836027680434286
Ni 9.152017653848334 8.533109469821987 12.534455605346487 0.34824152501847117 0.05250166944314184 -0.1115064301121241
Ni 1.8264529743335 5.165874782774484 1.6485300430284555 -1.039436844293913 -0.39410434898885677 0.1834188999817099
Ni 0.35384932496336036 0.6548763643259655 3.434630773146396 0.6206254794766796 -0.47674526101954023 -0.1544561942007727
Ni 9.02850037341666 2.8981962317436842 7.052342199851887 0.8550504381926113 -0.0919436774888481 -0.8745982784175518
Ni 5.17863043996192 5.637066910632413 11.005949826190914 2.4667842500611448 -2.69856380073443 0.32622234043490267
Ni 5.821469346059481 7.1349970097805056 1.2916729710732169 -0.6818192773771805 -2.5024210254281485 0.04943460048204389
Ni 0.6567471940467894 1.7707255415921568 12.126858747474788 -0.053655323431610814 0.2134498991261614 1.8212239550159988
Ni 2.7372438704358375 0.6806437161675714 2.5611159743668797 -0.9779098314237094 0.9871046105490998 1.2774621187665935
Ni 3.618299296123695 4.362480974252453 7.999857372455242 -0.26234816748876105 0.9554381326837545 -0.3421099581994366
Ni 7.737267380084111 6.927643634645897 13.397500597679475 -1.951535690760084 -0.18122703453671368 -0.4060607500197846
Ni 1.7804679058498074 5.299910858770871 3.911574962937471 -0.8410991182188418 -1.0639757099755418 1.551394391548528
Ni 5.791687659495771 3.514488581723624 1.9223182083579764 0.1392764011365408 -0.05265644985345124 0.5635076514177649
P 2.3052522803546607 5.697933579168114 9.146674142674382 0.9526466859815464 0.260552509040919 0.5490392825982608
Ni 7.224619366367015 2.519445645575285 0.09095338168432857 0.25185575259786946 1.8209020529002058 1.283111603742887
P 0.2758817568896328 1.5652855150356644 0.9955522381128518 -0.5242453634830325 -0.32584104583608403 -0.0407373298183621
Ni 7.755947947602814 2.606655519171997 10.622676527658884 2.281418767876026 0.16850830141846465 -0.5248050926412445
P 1.5273143268284264 7.928722399883654 5.618223662268422 0.8241650614676644 0.13754861981215666 0.39955251658762153
P 6.058447272850418 3.246795402154535 11.480065587649122 -2.155892626446042 0.3397124045015375 1.4591928324126031
P 9.281958979022958 6.3904548456877555 1.2505775711780416 0.2155371206724933 -1.6807530193507247 0.44800341300015745
Ni 4.841871846983755 0.6214343587432519 11.473965055950785 -1.6693141813861638 0.19967238572609483 2.374598117544188
Ni 3.9793398539072187 1.61091934078521 9.728300683440002 0.09117723163646878 -0.8177481021977271 -2.15594122029579
Ni 3.717044720568175 8.530382717017426 4.226205263664387 0.9855205538914317 -0.3319391883140219 0.2727241114064464
Ni 7.344956975731677 8.813918792542506 6.979816121188481 0.5466651259391295 0.12988261862646663 -0.3208165960382991
Ni 4.495084349622714 7.435466682383399 12.666073652415168 0.42300817650740047 -2.1563438550508476 0.02313427202461822
Ni 2.2446166925651085 1.5239775208540318 5.18064731271431 1.340308364668853 -1.387093700453508 0.6817827677122904
Ni 6.367291311693759 0.4831417754027965 9.864179859467674 -0.4286725738820295 -0.28798669399247173 0.501126260967066
Ni 3.5839514540160766 2.860197313846909 2.254764834612997 3.5291419648172897 1.3827662767227475 3.589419935771741
Ni 3.4584099062481344 8.109381327223105 1.596987020438382 1.7669664792240152 -1.2548865474589228 0.8676930666572863
Ni 1.273338100350754 5.758874193542583 6.416520753853385 -1.5229968142424417 1.4974742444913047 0.5369255300538623
Ni 8.277450975512346 4.763840500624091 5.862275432860477 -0.48660621297402007 -0.06688802007180092 -0.40525728028188274
Ni 1.8388111726375598 7.676816656891479 3.4622966843983636 -1.8184175959154552 -0.2622630639741225 -0.45104579937090705
Ni 7.831058433331152 1.3874457727992333 8.640806038049302 1.6731546381781763 1.0053504441331653 -2.47902578643266
Ni 2.450592826452667 4.924617240564864 12.938467938683917 0.7732091392450877 -1.6754609177138498 -1.4979185311175751
Ni 4.160285321371895 4.17875329460414 4.214732566779571 0.34740026006409847 -2.198578595350343 0.7185192039013755
Ni 0.2144808296688342 3.42682578986446 2.317739883876564 0.6768516489592601 -0.9081023237122684 0.5812433781346313
Ni 4.7220703449501595 2.631723158514263 13.43068564147247 -0.012448510175997917 -1.2584400691381359 -1.172495032434884
Ni 6.608391718995997 7.5466719806602445 4.7931933013229475 -2.661065546678656 -0.551658722498979 -0.10151435189641873
Ni 9.013350719699119 0.30194211911735597 10.573635647388114 -0.49160623729177266 0.07696134514740294 -1.5788481168841066
Ni 8.54126199854613 5.247871474738068 3.548459300053527 -0.45380947815897327 0.8533992757424335 0.09589340616521551
Ni 5.845547959808229 5.508835582979294 8.605415559615057 -1.2993221520644782 1.3419250743366697 -0.6163448498234547
Ni 2.2086882581538294 3.8699554719100293 5.86337167992021 -0.06622956055219562 -1.1614290044287094 -0.8683186160564271
Ni 0.8815240574410479 7.29421164387731 9.838949539280119 0.16275031588876487 0.2661816823022383 0.6549425075909946
Ni 5.6454782497922436 4.89837571103216 6.099834758808726 1.461741824086702 0.41969171053965787 0.02901875582985325
Ni 7.4045295920889425 4.013586020486532 8.366978126831443 0.9556492202532962 -0.8319549898257286 -0.254670082118213
P 2.0865667054288957 2.8371631850707555 3.676938346266518 -1.6678656218650953 1.8153222448195832 -0.13004511234625993
Ni 0.6741032067285643 8.356683941751989 1.182503032008454 0.33915756043933204 2.2326387702588453 1.6979321022331726
P 3.6002472682345186 5.925843897480156 0.8245275292418532 2.973036262290551 0.9877281030657119 0.23745346112961044
Ni 7.515660944527021 0.09054113363319838 0.9163710339603485 1.277893035656425 0.07290105903510026 -1.1831759091874976
P 6.86614842648067 7.625978892738653 11.420744387143667 0.11411224316608735 0.39262930710522703 -0.060504999363592576
P 5.428595104686442 1.7990098249208202 7.822148884082623 0.4059985293232814 -0.16271200645166173 -0.5170946113708642
P 6.209703486049844 5.817744324431556 3.509605383395999 0.21964420086233138 -0.7106829956864084 -0.6658717529089887
Ni 1.826277352966427 1.7284654947363896 10.12287013316679 -1.0259005003703752 -0.21658535943134957 -0.3230711964004307
