# total energy = -340869.76801555883 ev
CRYSTAL
PRIMVEC
9.25378487748349 0.00000000000000 0.00000000000000

0.00000000000000 9.25378487748349 0.00000000000000

0.00000000000000 0.00000000000000 13.54384955510450

PRIMCOORD
 96 1
Ni 0.32405921579977415 4.600750465181935 3.056155898237105 -0.6913231031025577 1.8309941470288855 -0.04245482673010108
Ni 7.522882872571198 3.4904443479910285 12.934362977628163 0.026073300048284127 -0.8226871913705573 -1.578724961042681
Ni 4.986189110278246 7.419018391812506 9.823408016476161 -0.21956372533338311 1.1115642583877825 -0.07730073076469267
Ni 0.7513490280984412 7.542426866099562 10.453238193146683 -0.45856679033830056 -0.07162836297026373 -1.5984944303601243
Ni 4.540859969862064 3.062706652507336 2.3766615838452885 -0.9729753702365695 0.24008601365645105 0.6335452728621412
Ni 8.808002238694074 2.6705312520660223 1.6305030036493375 -0.26869596408365987 -2.376947334502655 0.1732545578541984
Ni 1.2195748082813047 8.532896469941836 12.557844055714614 0.2604977445435836 0.10670900872348074 1.0991851679971392
Ni 3.1211443036113216 8.40834978012259 11.364536115629457 1.9173053088223044 -2.0564246155556902 -0.770104532177835
Ni 8.512649188767567 5.823499321654637 5.273257246660274 -0.6028378164759554 -0.2923210597017675 -0.19384652307293712
Ni 5.977167672285323 1.0778160787069655 3.733687484869752 0.10115491167447095 -0.7264914234735746 1.3055524492449064
Ni 1.4817160245083354 4.200838900635644 12.22030392619698 -1.1320009289755792 1.5631543602979336 1.052939506766038
Ni 5.08349265760341 6.25610450795079 11.913833379194251 1.681011158108118 2.70900916443747 -0.746390990610979
Ni 1.3876975707923431 2.6542260832227567 3.0973296883910355 1.5541539565715365 -1.2574057143363506 2.931051690328649
Ni 7.786347380026712 2.3542276333193355 10.792294092616944 1.141403967457034 0.006912667959433256 -0.7718117446769288
Ni 5.504354790969878 3.1292321115392525 9.84423828609375 0.48314422256734857 1.428772568249533 -0.2811244196549997
Ni 6.223133272656491 0.6060997708920478 10.007563886556916 0.08127539914172455 -0.1220842056279704 1.442328709667413
Ni 7.335604775494008 1.0872179240785649 12.921726009085392 -1.758978318812216 0.35831150765996356 0.9708732362919021
Ni 2.387920663829171 8.637640060257912 6.476465811118536 0.8034558539447711 -0.5558174818623589 -0.28410947042525264
Ni 7.427346798145616 2.9385023527262293 8.151271309567608 -1.208187600740487 -0.12097606016545617 -0.6912554830894159
Ni 0.7078284781155365 6.8060754470500875 6.788745884227849 1.5317470496312457 0.0905236572128699 1.2793217976831517
Ni 1.9918401661961098 3.049288664526215 0.9225773607932479 0.748326517070795 0.4008532376769161 -1.140641892480029
Ni 4.724205208393063 5.371044766931239 0.35798821782238105 -0.4285355340835329 -0.581754770553411 2.1749941231621834
Ni 4.8369810839281815 3.544181076409214 7.689263147401653 -1.1632210633321258 0.7210558542803002 -0.25007192122456934
Ni 7.1984174156180645 6.75099691983379 10.099974032472138 0.29348988319888814 0.2076651741235843 -0.11585930776418112
P 9.335125583086208 3.2644854303889517 5.0591968455727665 1.083146883587354 1.9447940011608764 -1.4654017894367926
P 8.824603528651407 0.4096326654939934 11.666197470664054 0.20154749126162066 -0.8127658184917873 -2.4708378513052285
P 1.8919733204773117 7.169045902616631 4.819524744253983 0.3342966328026049 0.3515204528800592 -0.28731075097136966
P 1.1299704099218604 8.794140069041854 8.17644900729108 -1.1622332454975597 -1.0728426734478684 1.7309077858282447
P 9.072965859289548 4.345956754097671 0.5056610412717095 1.557538299662737 2.058734237525474 -0.9034985063916697
P 7.039779782541956 0.9326704638904952 7.894290003753181 -0.6643465745137139 -1.8507150224965803 -0.005475935512906698
P 4.447100622120879 8.159635805661496 7.72579061220019 1.1652941438110704 1.0155698078683284 -1.1236636127544777
P 8.442412962025008 5.990817004886808 8.014356010965214 0.40343256836831815 -1.9510104143842333 1.0761971917423983
Ni 1.6129439469636981 5.2749349578471545 9.858581652556326 -0.3411038855324255 -0.390485778399663 0.1267751833457365
Ni 3.1863372176299407 0.8703018049972822 13.075990303458136 0.3439452116359625 0.4204293600366308 0.5921407417734253
Ni 3.2838998709299116 5.340451754334283 6.929290517234517 0.05029849114423595 -0.059346203168801015 0.8213767000892499
Ni 6.820955533031909 4.782161662686691 6.831964760825799 0.7997107850800421 -0.19510199274659304 -0.7036034631318075
Ni 1.575938061490248 0.5677048923179312 10.408299037951705 -0.7986059820516376 1.4989107198275153 -0.8947680684972074
Ni 4.756926591497368 1.2731357147880138 8.423231716861377 0.5237545398895431 -0.6240046803615575 -3.76718986499779
Ni 8.980788908751654 9.200538536743156 0.5318344462412284 -1.53673370421256 0.44363793694261017 1.834700135125563
Ni 7.605260064990465 2.99565372774099 3.776688897524559 -1.1774004401563012 1.065079998783314 0.3427820445657967
Ni 8.965584940301323 5.754752954267225 11.715308232053438 -0.5970890869176362 -0.35455538305164097 -0.5064993523535212
Ni 2.327308373293763 1.362786382071531 7.972736188383221 0.42909680590364163 -0.5432234472474322 0.9071091065610637
Ni 5.97669572925978 2.4664112666263214 5.960120349899929 0.5084418207918727 0.8352251759365681 -0.7036248032880463
Ni 3.840403982108292 1.1923594271416655 5.89257697453841 1.4082837042675616 0.2810611705172321 0.48869934805762294
Ni 7.042444872568551 5.533319137439471 3.2916027214095562 0.2389207897037563 0.387444677580494 -0.016739681352184073
Ni 0.40354182432904595 3.6034700757161398 7.344802112221204 0.6846955704837111 1.064533896471857 -0.2538334451495306
Ni 5.869472124613401 7.781701980049799 3.124146231405167 1.0778786932098792 0.6029884831212067 0.417564636894326
Ni 4.126086826903579 1.0907066009536563 10.39509388702132 -2.529908946435772 0.2841992019255815 3.391426737520282
Ni 2.843799118933959 7.3978827472960385 8.736636124825658 -1.8284986343005414 -0.9324380722441553 0.697997686909256
Ni 3.7699641720998143 4.57112909999051 11.623399641275165 -0.5922003913667672 -1.3765616905739326 -1.0139476988838731
Ni 0.6849827341653356 1.8920843658950868 12.578172770195252 0.2379247443390741 0.6000245153968763 0.9910875064562479
Ni 5.67582742358379 2.3858570698155233 11.891459578269593 -1.888749865782115 -0.4000248282383498 2.263222042362341
Ni 2.845945997010938 3.0498623991847182 9.6067204658798 -0.22781233849542057 -0.1266725963296012 0.2081058612054287
Ni 1.26787956501334 8.138879566322425 1.9072041249036062 1.974483300695193 -0.02694438979932779 -0.9188955576730304
Ni 5.962944605025335 6.871481198119441 5.425666157177697 0.32597294342825794 -0.3389541861792743 -0.16938196227266958
Ni 2.1999022639668158 5.956226357249959 1.0497595285276824 1.6739640214533493 -1.340544391939059 0.5596581957646878
P 4.338044768081216 6.931491992641903 2.0227468820982795 -0.8838177401332908 -0.4973253991637371 -0.05876359119245363
P 5.150924987547153 3.2805962697511113 0.386956265805899 0.21598860638761508 -1.1323783669196563 -2.0864121630567163
P 1.320783452798215 1.032481786900406 1.6852881858870135 0.7743198558107632 -0.21220548519609905 -0.5407683008387202
P 2.7022532264103547 3.1063197403383866 6.920351361103647 1.2835654034508541 2.7153243080222205 0.10985526766194628
P 3.7525763104332444 5.046986476509946 9.221925884206582 0.5679183788909509 0.8904835821892405 -0.10154623357561866
P 3.8317702008763015 1.507617368204306 3.800458169199254 -0.853786226768207 -1.6071958147888643 -0.8885277440144504
P 7.8388348474949305 7.193364849109311 1.6278221821885577 -1.8474078125002185 0.13061769702027828 -0.7708524660874531
P 0.24495508706941818 3.241017832099212 9.574310009945261 0.9154546503122815 0.11877185342528579 0.08301269354780541
Ni 7.804632858820294 4.611975306162004 9.515637312706986 0.38889837930788507 0.26339949157141085 0.9533881921332613
Ni 5.53293047847726 1.0253008498843026 1.3233393481639981 -1.9112986976169084 0.4734123399915654 -1.711992951201613
Ni 0.21759997377907914 6.604222638889956 13.953957018417324 -1.1543857244286828 -0.41253427355927014 -0.8609734885452657
Ni 3.6921398418093125 3.4505327740858043 4.691670751742011 -0.10986169541984951 0.6122881632555778 0.8160930830928074
Ni 8.37156598548469 1.7986489006224118 6.093485896647456 -1.3271831401408045 -0.18066344872375983 0.007538731579206372
Ni 7.369566165763465 7.484266828540013 7.29752082408966 -0.8027624274221722 2.239670737404962 -0.6552227578355747
Ni 7.7134090481183 7.960577640515362 12.186064922383085 -0.6323479101199303 -0.7941955116887677 -0.048825506143135265
Ni 1.820062158683318 1.849840838216592 5.535466015516451 -3.5243869666308076 0.5862657710498871 -0.7580655987354299
Ni 9.181170365126269 1.4067048448014619 8.33312391260802 0.8178823137827463 -0.3589918215564398 0.6616050072128348
Ni 8.695975919728937 0.8505125861713323 3.817699821065754 -0.7095303701392038 -0.5260592767633199 0.09467624592866276
Ni 6.766404471550042 3.8678969767923683 1.5619981600455854 0.1379635958623882 0.4787252675640465 1.19546938184287
Ni 1.614443060103658 5.017503918090738 5.498626698169662 -0.9292277928369739 -1.0901459406130065 -1.9913993597242414
Ni 8.071946940758666 8.863201065112962 9.526296747434886 2.2316249842823503 -0.5424906828464656 -0.47148298417933643
Ni 9.23783128954586 8.938860009756855 6.1817105556910485 0.19914865201214088 0.3688602297100873 -0.23115400127414384
Ni 5.311987112244678 6.12236880981068 7.765244123757093 -0.45788981887593405 0.4141844075681834 1.1130632115308121
Ni 5.909466982581956 7.944568592786163 0.5855508163328221 1.683796948383371 0.1037841217672019 -0.20511566822885322
Ni 3.925723878098592 8.319226578573504 4.617382292629156 0.06304524928694304 -0.14374600687212016 -0.2389804392970981
Ni 3.688503104377188 7.549755863672698 0.09684178346291643 -1.4984054980563228 0.8449084646626029 -1.3110888056821033
Ni 4.096557999560297 5.769281396426093 4.230258533318113 -0.697635932694463 0.846920095775993 -0.7704328620515312
Ni 7.189394975423862 5.709418662460665 13.459741983582752 -0.44510757950960117 1.2847015739378262 0.5901381095210998
Ni 5.726112490266142 0.0786497678959608 6.327524293771131 1.5083186434049767 -1.449839159111845 -0.11949021964854906
Ni 3.5098958036712467 9.03300801646025 2.19740836895929 0.2787728887036876 0.6542542232747184 0.12158978249005511
Ni 1.6174968090924646 0.19201973641617384 3.960410765097512 1.4296374873529893 -1.3353965291895322 -0.4032088823932863
Ni -0.2116682977129422 7.382539972073487 3.2979683999834966 -0.2339613888159519 -0.7600384061910846 2.3427336647354235
P 7.371592744637855 0.9145598816299078 2.078398218594599 1.8191709291417122 0.3958285307688151 -0.5932100635782043
P 2.722750359774619 4.569343119521299 2.733650392907696 -0.5096078160755159 -0.73251268996699 0.3064037630470787
P 5.140616271263726 -0.1679895080097084 12.287508613034285 -0.10370287490730527 0.041377534505522284 0.013669784177608717
P 6.632474443928826 4.900406525047218 11.341470131600667 0.10685221916956436 -0.2994571565259165 0.17445757702336406
P 7.6684171463498805 8.314164758279937 4.861117730860014 -1.2899034298537397 -0.5915308761035684 0.11055383639086766
P 5.8235640981483385 4.515560122179039 4.790676070094573 0.48969025121598253 -0.42114155561230693 0.5868519825706603
P 1.8913625706795503 6.537623149579523 12.057290178282065 0.7907890571103801 -1.1704011260203326 0.047148889771660735
P 2.658038642566358 2.559994792456029 11.78145613666492 0.8232752026635436 -1.4545653609429208 -0.2766697263177557
