# total energy = -340869.50575251324 ev
CRYSTAL
PRIMVEC
9.21064681116083 0.00000000000000 0.00000000000000
0.00000000000000 9.21064681116083 0.00000000000000
0.00000000000000 0.00000000000000 13.48071263457872
PRIMCOORD
 96 1
Ni 2.613253925769882 8.530173441472181 6.357140538225787 -2.6229859661981147 1.3950810895343586 1.4597026821694863
Ni 8.473076641849145 7.146927713034049 7.8162119955261025 -0.5289885345949727 -0.2778082107975732 0.3017050720198288
Ni 4.688919239376811 2.5219395732190217 0.38662426869118394 -0.354431455879267 -0.46534190427860506 -1.1662374815609464
Ni 0.13815693907173066 3.2393292219106544 7.164001489040054 0.7410148139007302 -1.3854073138900205 0.5720331723902728
Ni 8.080159659252095 6.7736478294523765 1.706402193102463 0.16252688702404913 2.2676942192010814 0.96291515778709
Ni 3.3126275492860575 8.69835985236372 13.279553208689858 0.7540775606219594 0.27392353103118633 -2.234001454934327
Ni 2.592797079187729 3.7275303458370006 0.35653492766706146 2.0561024563295818 2.0309436976757667 0.13567942781390183
Ni 4.276383579058022 6.664400347547418 12.14116147312459 -0.488865698432158 -0.17828312141704136 0.5582353472752322
Ni 5.786690180346579 5.996048182513317 2.039888398172866 -0.12331139316685213 1.0943152414993473 0.6741568757359163
Ni 2.79956688959869 6.062899057116318 6.204767886855589 0.078541030929697 0.3510435132436405 -0.41374320626570676
Ni 5.060237255186311 0.5909726000537661 6.552664148872313 -0.004200925455225023 -0.06254002751575036 0.4247099896898556
Ni 1.5192777712890144 8.24682631341871 1.0909513780659286 -0.9531341671409264 1.7323344909724423 -0.04717845745801552
Ni 6.315049724398177 3.5118906825405776 9.16192341711735 -0.1465017152403864 -0.4573293183867736 0.7192612242737226
Ni 0.15395780368752657 7.576853074544691 5.510403013078888 -0.15922327657211288 -1.0245563276376548 -0.26262019020322513
Ni 6.527981457530191 4.851920056109974 3.816618485052018 0.13116122822857412 -2.152413923868822 -0.24263783354402726
Ni 0.42117616809849096 3.6037945164877714 0.031238829746973718 0.14411393173450018 0.04944231379152775 0.44832505800563427
Ni 7.753660650857613 4.603932601189723 1.2754645815065542 -1.8046246558964212 0.9232610337305777 -1.2661536357323098
Ni 6.252997596787209 9.289674167414423 8.454307185763998 -0.9227403853404172 -2.328144711177655 1.4805700125367984
Ni 8.033157728541278 3.8070182278739098 5.391597642971185 0.37174217924357267 -0.8842363157279483 -0.9834706133409385
Ni 1.9452517653148549 7.452288286981868 11.728812788936201 -0.36772045967868927 0.3904739513251211 -0.35858121638158247
Ni 0.31304133232911346 2.3233580278290127 9.511303514336408 -2.3569040426985346 1.4598029551927763 -1.315892911938966
Ni 8.351836897787518 7.0922348922304375 11.00522253280688 0.8980002022812598 0.30289189323907834 0.5815583382718887
Ni 2.645850404857787 7.064160840730032 8.314512593688077 1.6283084283977636 -0.8820007415292102 -0.0355940950545258
Ni 0.8119894389623733 1.5971445794860057 3.523871891921065 0.9698861897882844 -0.03396195876774152 -0.906740153257419
P 7.217002314023251 1.4741824444694651 9.75357852610031 -0.6123953782574034 1.4125872167389222 0.04865324223132911
P 7.058100235123973 6.200579805747573 13.123958673062823 0.07854154515032925 1.1319106832546184 0.35212106257853554
P 6.123652483525989 0.8632605044732027 13.143586561431382 -0.7976004236052586 -0.4170442456144818 0.39512919070894525
P 7.736722271359829 4.6210091403897735 7.58795650928345 -0.1315558925638315 0.45424476592417895 0.817243651757483
P 6.898746834530628 7.336261769019069 9.426913726063109 0.9724233543878413 0.11255261198845132 -0.3967849811448134
P 7.047968523624483 6.9301827721195 3.9492425885803453 -0.2514914272799153 0.42681443762736815 -1.2435202146035098
P 6.897761295321131 1.001353890081891 5.496706781260941 1.0292161950071694 1.754660408163152 0.34100746916387725
P 3.5645111078102025 0.1448540003728937 3.6309622403413138 -0.15478658095699793 -0.2858323666536303 -0.2918454056169296
Ni 5.374034781619159 4.7658649828920305 0.1920263280498385 -0.17689575415121148 0.11056257814161603 -1.6152253699615602
Ni 3.794933859249064 7.12185633239622 1.622269381875378 -0.235169293081124 0.6989160849584674 -0.2621954439609807
Ni 2.0310305191282665 4.008169543726063 5.251815945800809 0.23730073760183 -1.5237730302868338 -0.7975826829934457
Ni 5.544275166751048 1.4355806236564073 3.803543050829585 -1.0825827835537678 -0.6833249153884297 1.1066184843467328
Ni 6.811531219813651 0.5982895378857616 1.7176585245783966 0.7323957047731515 -0.43832372381854834 0.9230882555981392
Ni 8.424269424362054 4.7556780075116345 9.746986466172867 0.26304056557009536 0.1491023860880271 -0.5779153422026628
Ni 5.905627262703777 8.05543828319334 0.38622913194270386 -1.5752529433336806 -2.007786799943329 0.6520070791117545
Ni 3.4878601049931497 2.1689599552235994 2.7958596042545576 -0.6931460152439095 1.9052699749243251 0.9545729564699817
Ni 7.241189472566579 6.001390357667595 5.820985102707671 1.1178932859296038 -1.1065920019841717 1.5661610083347415
Ni 6.150759417110534 3.3279909081780117 6.711628860169951 -1.0186548745515553 -0.1391031087834701 0.09349096737130996
Ni 7.730026131123348 1.0428754859361657 11.741660720182237 0.747946508023557 1.0862602324053552 -0.33002577334139294
Ni 8.93577348473723 5.103444399408228 3.4586927497154814 0.024567662037035108 0.8798852378481039 0.6876255996463125
Ni 7.692253268523885 2.3293357376137123 0.5172763727358377 0.6736884207399301 0.04453664895979426 -1.6583301715708345
Ni 1.2293266094672393 5.015409037124475 11.21906704103853 0.496593663204035 0.664132915841011 0.3392051258478158
Ni 6.962143716576983 8.225098397575712 6.188118721667882 -0.7271969341810315 -0.09328785022156838 0.34405011264494295
Ni 1.5134197999129455 6.277507127969156 2.1003894528597313 -0.8123261598512074 -1.176076064917923 0.8197707890547107
Ni 1.5295660637844057 8.446559189660933 3.8112265724049257 0.687128605405236 -0.3724412621931263 -0.7098422449526678
Ni 7.76877532228549 2.027208100698913 3.5815425148408453 0.2591327458752569 0.8333199884940552 0.6309528295446165
Ni 3.369365133683203 1.487602356882881 5.450885655472156 -0.9665427272373484 1.6989970531625773 -1.513774010092593
Ni 0.1945408346310756 6.626249848428429 13.100596788474364 0.37966503363507514 -1.7035371071247756 0.6651503013619319
Ni 3.399548423304866 5.70574701611247 3.600428946140577 0.5117397748168541 0.6293057808594968 1.3808968276141766
Ni 6.3806571616807854 5.937348730343999 11.025941882823338 -1.2527767002047716 -2.1958087459146896 0.11224613649162604
Ni 7.815132507719067 4.323477616237016 12.163875849241766 -0.36284461964362674 -0.1129202797405152 -0.10739703592944085
Ni 7.551155369923257 1.7155658656214112 7.68155233905106 0.594471446789131 1.6580015845868221 -0.7214469190711317
P 3.505747181113159 5.14946079090955 9.670240593693594 0.6334691682085671 1.2201146911953762 -0.4496671738558256
P 2.510306526288243 6.154766048476241 0.13099381904159108 -0.36749857347587034 -0.03967417866117039 -1.3081603191813989
P 2.4056643677921445 1.4570874839757797 0.7209983801148149 -0.13349604700933784 -0.11460795185558327 0.27629717346968546
P 8.923339111533307 9.069769974641396 1.9217029045959944 0.29252751928561876 0.3258878399136194 1.8231885349415373
P 1.4538269150023075 6.076549235700177 4.429074918808112 -0.48665403549281994 0.4164577769833925 0.0738557096388857
P 5.953034461874573 3.130063318712061 12.12511928956217 -0.44837236630380195 0.6692059594885443 -0.3785188358457739
P 5.0394672466123565 3.303435323761974 4.841934793894885 -0.8000797383836866 0.6237884505856934 0.0814936858001177
P 0.33391542121210865 3.0962234023037634 11.461854164765494 0.6911971190476548 -0.36893607725334526 -0.23322605331182414
Ni 5.541530393999368 8.364473905221427 3.012157828798448 -0.3419610913263981 -1.7278566577067467 0.2701920890132121
Ni 8.151652699851224 8.581992540468665 -0.00939670188343631 -0.13712978710718318 0.5448522411001068 0.2969199919263596
Ni 1.7523808209518317 0.8834087943869617 10.19833395005216 1.6026714445559496 -2.165829683054096 0.8909654069216656
Ni 2.4985445303020164 2.127935734297482 12.148656176440168 -0.30435356538626934 -0.5173866886899864 -0.005205198350023294
Ni 8.795836127635633 0.015015196442244534 9.61719463654099 -0.44844410008200186 -1.3677068112864639 -0.5458274605291826
Ni 4.190761406240512 7.871584562064863 5.119920404435763 1.4822998507437117 -1.0473036486364997 -2.427077932610459
Ni 4.210803773715867 0.5809901010327229 1.4893219846437489 2.119834190160588 -2.3095772325881123 0.5675969909957903
Ni 0.8436049841641916 6.729851203834125 9.521319171685995 -0.15458166403504345 -0.07209707507656617 0.32789407171037077
Ni 1.906714419029521 3.8028273835718482 2.616066857308013 -1.440479829384132 1.0416947870901543 0.7609174663619283
Ni 4.318163073023193 1.6745048021080224 10.300329889717528 0.2329727996504375 0.03461527608102426 2.5740614725832702
Ni 2.01769350253621 4.638592265164798 8.230770313886064 -1.1045924550556396 0.7651137638314629 -0.43531193357541803
Ni 6.152887076525427 8.342497301914351 11.513472471661354 -0.5398835842409218 0.8038484613974994 -0.5352373437181621
Ni 8.973334502459883 0.24322462945080797 6.804794552731173 1.5407456535854305 0.38536491223332986 -0.4721992935200707
Ni 5.294261369530901 5.521423551996289 8.033480101179899 0.2417826846325836 -0.6323923902046206 0.010363345512195055
Ni 5.016956425789853 5.5501239274803 5.461832509215014 -0.6651716415181705 -0.29751057432250694 0.522860567320364
Ni 4.796996969135919 7.2108864445362855 9.681362449725988 -1.2809385073509683 0.41387433252693245 0.15139169634283603
Ni 2.5108131118632175 3.233222563070507 10.05363284641644 -0.9466423887689955 -0.45082982670535904 -0.5408629174350557
Ni 3.5823705519897584 -0.004574928274360728 8.740678169167726 0.02869119728710542 0.45638469508531715 -0.6520374181290577
Ni 2.113392122972304 2.2323660479167726 7.720592586652641 1.0179539918297886 -1.6558452003654516 0.276012295239415
Ni 4.095928586605283 4.146089769174577 11.46940413196198 1.0151774575259163 0.07802295364269789 1.160956178557349
Ni 7.85355011559577 8.94045249332063 3.966106361838906 1.1751520104417568 -0.8286791472879341 -0.7570669822675865
Ni 6.197779769114986 2.8241777378956328 2.1176179677322735 -1.4139054213297133 2.452989767380214 0.46633692120202264
Ni 0.5078428282651305 5.3205025023145796 6.403729831959169 -0.9797327435650611 1.8729679203575098 0.03894655646652648
Ni 3.785879793427246 3.8355251797747485 6.921483316200165 0.7736454554515578 -0.700821015290664 -0.17932750352115567
P 0.1953338713220812 8.890650525977225 11.826076298266624 1.8343316960425504 -0.703060446144144 -1.316992829871364
P 1.3138250833729876 8.816532451035046 8.193456141498123 0.2545631242267035 -0.2193086718997836 0.546464322782233
P 3.544395055160306 8.807671808796401 11.015912409503523 0.8907594615584467 -0.18451907502442413 -0.18583830805647994
P 8.930551047991582 3.3594821096477907 2.2520878848828714 2.051387053131783 -2.4808340432859923 0.8984524593273302
P 4.088495594623384 4.532586930939678 2.0422067179768857 0.2027942191845282 -1.4750753079708145 -1.564066587699558
P 4.657630672137022 2.0473794172297164 8.359241336764281 -0.22202735638252727 1.0071062504820076 -2.9581256637273055
P 1.216975132084679 1.8860549382173788 5.584627931524154 -0.585033955525315 0.09740495771373547 1.2473516725344582
P 4.970166339955842 7.411779862277542 7.0450201955781315 -0.3373451898209416 0.615763780509004 0.5921255722647738
