# total energy = -340888.41811437614 ev
CRYSTAL
PRIMVEC
9.11717349395744 0.00000000000000 0.00000000000000

0.00000000000000 9.11717349395744 0.00000000000000

0.00000000000000 0.00000000000000 13.34390498643133

PRIMCOORD
 96 1
Ni 6.753965648854819 2.242131772078916 11.14089333717145 0.7340013586973746 -0.8949007374203298 1.603014429717665
Ni 4.716496187162964 0.6776147731943366 5.931699624585152 0.8810324640786698 -1.9114861310373663 -0.9787778358509596
Ni 2.8515327649772373 1.7851881541936212 4.672247809089126 0.623845529075874 0.03463121692062423 -0.5602858020463576
Ni 3.515983251376854 4.545321254985618 4.561880777186082 1.0374678934930002 -1.2404138077640443 -0.28816847098597465
Ni 4.12321435698579 2.858999730061298 2.3678229491752316 -0.6018733956801571 -0.38176665335911025 -0.24702362131654879
Ni 5.337384818652148 4.9283245959090864 2.654823365020978 0.6679121803777852 -0.1655510185623536 -0.6561920637273795
Ni 5.7543040449391185 3.1141802987277027 0.23572543216716374 0.09223241237386051 0.44998367665497985 0.7847783321399259
Ni 5.602056364916241 8.303328993690291 12.27221604338132 0.12352299495702597 -0.27068625504081123 0.16147607716203158
Ni 2.179405618503409 6.562441185459373 0.18474675662683723 -0.1905969057873879 0.36541160903985453 0.18260643138274357
Ni 0.5417488304889707 0.4869737639095685 0.3056477707742327 0.11350392015812712 -0.373040586340022 -0.18930312667662882
Ni 7.90302125749265 9.13121393197865 6.988483055535245 1.352365552943703 -0.4933211631003504 -0.9955229165197822
Ni 9.01548964893593 2.611860508408498 1.3492559743214245 -0.4141805509134416 0.6691023440311443 0.5018993916876646
Ni 6.986699736401616 1.064174723494231 4.659424504582737 0.4245045585472689 -1.5179831630779341 -0.2506861577698005
Ni 1.205025936661092 7.658744828314081 2.6159258560653758 -0.6875762344656159 -0.16118579961512242 -0.04518919494212863
Ni 7.889445786173765 4.079351635350359 3.905587425903327 -0.6677825967784564 -0.442304048622535 -1.144928692780841
Ni 7.826819921506591 3.941427034872123 12.466756467765542 0.5746698386821716 1.4994570792492887 0.47210056315867727
Ni 8.587593345773247 7.393170681874992 9.20250384660844 -0.5231955820622797 1.5534263343768924 -0.32072660742765413
Ni 7.145748827844162 0.9999807049876692 13.444517709253375 0.4692458673187016 0.3685964345257394 -0.36497683549528115
Ni 1.8112815047071533 6.445139631403781 8.993819039279881 2.020712249755746 0.6063350309959364 0.5698752455070056
Ni 0.5018639316449635 5.038596809207888 1.6364560562664885 -0.6005050545777206 0.35775280694301614 -0.47309480875114657
Ni 6.596174727353177 2.124100844144539 6.814879308341545 0.738932734560721 1.2588133933171546 -0.41815624773173793
Ni 3.7471035992168393 4.564877592110539 0.24389897819629774 0.19956491361395307 -0.9022060128324914 0.3106129160324199
Ni 6.4706677171612546 5.904700938744578 4.599417092140402 -1.1694557313879277 1.3957007253962284 0.6183245992576448
Ni 5.388823911453458 3.1047440241709223 9.505317088146246 -0.3175070720490919 -0.6084777883705521 -1.0841758390725007
P 0.39133461405389014 5.672814748331868 12.601156368974552 0.5712081053858162 -0.36967398386063427 0.12093337985297883
P 4.452554014777656 6.346555634512509 12.567997209010288 -0.11406364931633906 -0.06646301671924038 -0.04616158615772695
P 2.3709300818988552 8.700865109148552 1.080275651868409 1.0954668386052877 -0.2872467305026537 -0.2457252142200994
P 6.453937703816624 8.053536674553412 5.545086794679046 0.12768998185052202 0.6492925083940688 0.14245351331294176
P 4.959842664646082 1.6518312576312757 12.236053686471163 -0.18291007866609144 -1.6046365387021204 0.7750731890370199
P 4.058801526315594 6.355490464527624 8.342983228045133 0.7685243321749087 0.24347267074049683 0.5876037731350203
P 4.883878375170628 0.9832233401225846 3.4098082958421267 0.8566519783517763 0.822092752319668 0.03658371266130474
P 0.35349287378782934 5.966023047603423 3.683211359152625 0.15869234376930735 -0.05419371243358408 -1.1893231597358163
Ni 0.8497962413244059 0.38699392775777114 4.893983850261194 0.04049718878309799 -0.11441691889069973 -0.17047159579242252
Ni 2.1328168619960195 6.594998611973637 4.8319752182389415 0.4392256668075274 1.8018704901900517 -0.804211501163873
Ni 6.237277193123551 6.149414992250417 9.343815477036285 -0.33412514022174716 -0.6184575252910833 0.17096910425413137
Ni 8.744581956008226 2.7906026945782387 9.922194375435184 1.0077968487911289 -0.8710344723256935 -0.3877827776462031
Ni 2.809994922580434 5.489650733021994 6.726141858813869 -0.902661098092039 -0.9376358143950109 1.5698441136132835
Ni 0.726781866363231 0.5782485228180672 8.843793214435252 -0.6481805062768127 -0.25153307915112805 1.2451032428199138
Ni 1.6470356243782645 1.203083978708827 11.26822013519094 -1.6223375555263093 1.6818894469480128 -0.1913813493618962
Ni 4.240233278663353 7.041430128830942 1.2790491799016295 0.2999150699989415 0.6553909079823229 -0.07570458992216639
Ni 6.054796965825037 8.049853336465548 7.9045018864665835 -1.6435563556957695 1.1919449136293796 0.9997647225152718
Ni 5.407176781678385 2.8260958509546117 4.5133354752488515 -0.17434933358027394 1.0326661012289828 0.30476494189207515
Ni 1.412815437553443 8.050755936640545 7.223683338509684 -1.234562748299906 -1.0225673222320841 -0.3515343368371301
Ni 5.211996331715528 4.617073410311088 7.492322678674368 0.6342739234980496 0.4682847889570129 -0.5357433368203032
Ni 1.167964626445331 7.400455303489356 11.356276531859299 -0.3805047559275511 0.04714426178597042 -0.12197184841982221
Ni 5.133233069980237 0.510354755311369 10.299185852162768 -1.0824701692353034 0.025481689210872245 -0.1369150999932158
Ni 8.535871620593907 7.703428095563145 4.645133335145295 -0.9770845073089366 -0.5118896701311572 0.34449877014658736
Ni 7.3628287285175364 6.52251708276938 6.850841087435038 0.43755393553205935 -1.3357634256106479 -0.0937611903135611
Ni 2.8282475038970274 5.388468341687551 2.32916522188228 -0.013691124333847388 0.3502773245015774 0.965048659190325
Ni 2.7990999002660835 5.362402342694473 11.407851470545534 -1.2856472256805471 -0.898903945042452 -0.34532126604788266
Ni 1.4090318105572461 3.628115368066557 3.5832251409793883 -0.7458544013812186 -0.1954166957735344 0.1889614270664939
Ni 1.6138491128935486 1.1147385676409984 2.585234714963453 -0.589568610170875 0.9928489692320449 -0.42350234253499963
Ni 1.0605552056207603 4.060023227562557 7.927280232701038 0.5613224708409881 -0.9603643663407783 -0.4530391756518521
Ni 3.939986521461522 2.6511555261280386 6.7666275793905255 0.39621136802953055 2.141468480600912 0.38524509882601393
Ni 4.319270055603188 7.161147733860009 6.217873112795825 1.1046392491331751 0.7095324270217328 -0.8497575652247882
Ni 8.87613365222058 7.335923949563856 0.5739616278455085 -0.7374198974606203 -0.10701085623461572 -0.16468044303194218
P 0.21800255863003762 6.111624308155871 7.54504455778499 0.35954255185358724 -0.41001639223342284 -0.028323272424725415
P 8.756899257386205 1.9546125890618833 7.601368632139462 -0.1529585266093237 0.6555688283210839 0.7058040703275521
P 1.5746270325618872 3.649613663143744 10.396222664713669 1.5331642416937465 -0.15997121048173096 -0.9392818346388663
P 4.306132208611574 6.3969006664956405 3.960364315917426 -0.008646105710772206 1.4855664373101254 -1.0857910060784204
P 7.1214424433336525 4.246360019245146 10.180305203659607 -0.013313172169138363 0.844670637620184 0.4476486007639
P 6.7349654593124715 8.085446781750253 10.33717620235663 -0.15476729768328829 -0.16068237761614262 -0.7805398685785461
P 2.776270497860114 8.761931937149823 5.777376875877132 0.10851006648796152 -0.04413170021189174 -1.0087476427401725
P 7.4195010788991285 4.368183691349205 1.620911275474884 -0.9186834416622244 -0.7554824113892861 -0.24105197711414614
Ni 2.8887764186626947 1.7355360273953349 0.2137028996146003 -0.10028279348216278 0.2112289802154427 0.8238755552517038
Ni 2.0575637120523806 1.274188814716876 7.028821989618796 -1.1866754377003241 1.056790247970696 -0.8014041136220649
Ni 7.127332137404841 1.004648697811893 9.093697674805997 0.632101341326763 -0.2912684500675371 -0.28948333314265623
Ni 3.1940558556281404 1.6795748165455586 9.079139372185448 -0.7276859580023081 2.1146660156960873 1.5689696814281302
Ni 6.612704162881141 1.8522631995213834 2.274495002797953 0.1987280195349545 1.2407416234171083 0.7684274015857282
Ni 4.020263233995292 7.19095177398186 10.618865864647477 0.2020653114383036 0.6987800736012353 -1.793305631339176
Ni 7.809077901905146 6.392843524294899 11.530201203559665 -0.7398400768663387 0.251894833365921 -0.27436833187808873
Ni 7.703811016849507 4.179686129550715 7.940704358940075 -0.06581509872259633 -0.03948108881375781 -0.3391177083403321
Ni 3.11527435954588 8.881084277422831 12.27377690348192 0.8630113449109008 -1.174580711319319 0.22428915583351053
Ni 0.027934107840115605 5.237998510494212 9.839008372842411 -0.5099975953147668 -1.1437837805431206 0.9018548001406598
Ni 9.081014774771274 2.624779543236477 5.531622552876675 0.2935299924082041 -0.1395057435385275 1.1554445047105006
Ni 3.461945764132373 2.907211343448984 11.451406031717177 0.15103919809942373 0.635590328316628 -0.84447831910372
Ni 1.4088038812201258 3.3716128092448554 12.762657980084512 -0.1748149603627828 2.2627988387819933 -0.5702701669525791
Ni 3.5984480855469787 8.81226785195947 8.202898769168344 0.18750438290499322 -2.9151805276243468 -0.5906649285588472
Ni 5.859534461300819 8.04515799212087 2.762735142104562 -0.9871421486552547 0.14829274570253814 1.0218137318955112
Ni 3.3342415151306106 8.691848224572073 3.188766071572253 0.4195176468556388 -1.1509461026195147 0.6800354460038804
Ni 3.4797060180807864 4.279364187260166 9.114501241263639 -1.8136345727045153 0.5893996886931785 0.34522947766502476
Ni 5.385550846172411 4.55201326032347 11.566416440076035 0.08199299403403944 0.4657052011552947 -0.044828212058284085
Ni 7.97141829297571 8.99586037442313 2.594108459916221 1.6796572151833844 0.292507978901593 -0.7752241127925875
Ni 4.841966728660948 0.6359511138034426 0.9835634106935681 0.07375903616002136 -0.6972006449292574 0.30004953869427675
Ni 6.502860456736126 5.863956290440953 0.30278497830000173 -0.5489973736167318 0.6524002007851151 -0.3172008536625827
Ni 8.29612642663729 9.067712818656933 11.437474990632385 0.5677049773285642 0.5221671407977652 -0.1489560903181499
Ni 0.326154117376272 5.014627760116317 5.504520842975722 -0.02732722706004326 0.2860033450138558 2.382730002622703
Ni 7.56831158451823 6.422729618978113 2.612950010639933 0.9437108169444973 -0.48495967850953253 -1.18826232257147
P 8.744983111641556 1.9327313726983346 3.510274077340665 -0.21646477469308528 -1.2545127090592718 -0.6291463724634971
P 2.1336009389157136 3.4172077938424 1.5065937723008713 0.4127972974126697 -0.2474671366118706 0.35422576762636415
P 5.111935352719716 1.278947979275948 8.032550764626071 0.00045251415638631747 -0.42997638029511753 1.671667769220005
P 8.89688433907201 2.112275870134738 12.424096301312758 -1.4271280906675743 -2.5271560662809835 -1.1430818693800895
P 6.768343431440367 8.087224630579792 0.6959658199845664 0.7302840577467874 -0.4960658157250231 1.9354925212542926
P 2.1524917223762436 3.576557752009945 5.879404429193618 -1.2197812191153574 -1.0159868408010888 0.3501330856142293
P 6.727206744676896 4.234380053286103 5.9068525916869925 0.25466493991189043 -0.47886410713475586 0.0502979769236037
P 2.3137745213225687 8.705441930237928 10.0303869614621 0.5886939208754055 -0.1998904152741719 -0.291800154201291
