# total energy = -340870.9315582782 ev
CRYSTAL
PRIMVEC
9.19344899693502 0.00000000000000 0.00000000000000

0.00000000000000 9.19344899693502 0.00000000000000

0.00000000000000 0.00000000000000 13.45554189508105

PRIMCOORD
 96 1
Ni 6.30683478239737 8.799776404242962 1.512658855150774 0.9203037508744667 0.24382414054264462 0.8836051099018524
Ni 8.080434980381813 2.111845576816311 0.8685106513773028 -0.15677404370067194 -0.18149082972106162 0.834621223803982
Ni 7.225195992107405 1.6510882954427655 5.570338382538714 -1.1792467493364207 0.20958861639854226 0.6211821233110979
Ni 3.6967778126245334 4.48465639943392 6.889277475239616 -1.8453118492031382 -0.542736994529317 -0.7114029045715684
Ni 0.6028907623029406 6.027390703929948 9.339168933042592 0.0616491402703648 -2.7578169299687927 1.1224690782257443
Ni 7.580219415524186 4.794549181279554 9.190578892818959 -0.004495059656876129 -0.03556092782374521 0.8176311170038887
Ni 3.028184227727069 5.692914639224007 8.681529342733032 0.24132811359366826 1.8564377839129704 0.8928772792323977
Ni 7.463600513847674 2.6980934382359254 3.3878898747641766 -0.045205650002360855 0.6792052367931013 -0.6720953652211974
Ni 2.5637587601675618 7.5555074243766525 4.5050364373713645 0.3759389909337396 0.5026470684869666 0.18509654479444895
Ni 1.3624323809895433 6.923751989973298 7.452176734011393 0.14605151507684525 1.5507511015375746 -0.4189345206586591
Ni 4.600732887614262 2.1145668377462474 9.91898138010087 -2.6678877118068116 -0.7987581913587857 -1.985408689358445
Ni 0.01607658441952829 1.3545627885705371 4.486427977073105 1.5347860935678856 -0.7750695894925942 -1.8220400231593912
Ni 3.0833265353546384 7.9636689835199 9.520105204536122 -0.5710726082492165 0.7424826566955084 1.840011005815515
Ni 0.4561394118968318 1.676168024553804 6.660748556509274 -0.5962511643973731 0.31439372323109077 0.4841369254979211
Ni 9.25302263771192 5.841802547198079 11.941429857989123 -1.3537130681105332 2.1077980849316607 -0.25953126686525624
Ni 2.928931751377079 8.990227895542183 7.094044086113177 -1.5857782683450368 -1.6232577533477333 -0.8362459038915985
Ni 8.038439304949547 3.787416027179419 12.641158896911644 -0.28716856896655063 0.5913670968321945 -1.18483941293285
Ni 7.321405436809392 5.453774641556728 5.458603960362457 0.2513443601790897 0.3358318385002087 -1.3355394825252997
Ni 4.933250747664538 6.09037502362926 5.177894863300577 -0.28719916509416993 2.290168746154514 -0.3230208027784695
Ni 1.8334771318921401 4.641055355312581 12.745923765334574 0.8232114393051435 -0.19970375318466252 -0.07726576376169919
Ni 6.9650213829276435 9.24594368191445 7.555515698480831 -0.4862724837836852 0.4168377860306305 -0.3344465281169079
Ni 1.829744591562565 7.188504936798698 13.052817644087824 -0.4487230647750014 1.1848790079215334 0.018738714060083858
Ni 0.528927625703187 8.051880127515654 3.0485550722154264 0.14123995262081482 0.585841539028275 -0.7615836391910175
Ni 5.109783357045097 3.9302270653065725 1.6451419725728902 -2.3807245421568997 -0.638855372221145 -1.9771611046376725
P 2.4502840180790173 2.5456200851176796 10.948276262571632 0.5982201151982859 -1.5519183823727982 -0.14408050739340347
P 5.929940143601131 1.4434358609005995 0.34025322811260356 0.4414776960664977 -0.6119526342930299 0.5469530894931935
P 0.24504770805098575 -0.08324852017825388 7.892132917479279 0.4527501836565234 0.18736605755491603 1.1209940363421147
P 2.377949960657591 0.8681861226245096 4.959874056877388 -1.2121614977865705 -1.2432350792629234 0.2578335674478592
P 2.3530816808755675 7.437684180869661 1.8297381561482033 0.3278822446358288 -0.0733761988993059 0.19930677485655998
P 8.584190023138177 0.7998282319334805 2.495155404385893 0.5865233955866479 -0.5904186168759961 -0.12469618932952073
P 3.3178054543344917 2.6771783415615804 2.807767608471646 0.9312329961924608 0.3135959099201438 -0.922374003139934
P 4.730112296624396 4.104065994104456 9.094224191621388 0.48266496893808486 1.176274296971658 -1.428263232713282
Ni 1.206695353445191 0.5795274501365613 1.1056253322105776 -2.16455030212104 -0.45979783453192424 -0.9019959537042143
Ni 7.70383453195638 8.574261098123543 4.795474042257768 -1.2385325315809315 0.3220476402319228 0.33659956990416867
Ni 8.308469291551242 0.5080640123437328 9.783349506366243 -0.006206128810711893 1.005061452137837 -0.08085759487801558
Ni 6.880119880603435 6.953226187748221 3.2688218382507217 -0.1553879619864227 -0.9551527402328517 -0.7109151663018725
Ni 4.544294303665337 7.779082912738583 3.007986220081559 -0.41373189341179717 0.7032370809313243 0.9860520009148696
Ni 0.10737029189436205 5.860308960211467 1.033891607014573 0.8365981450246948 -0.24496930989068133 -1.1347116430385231
Ni 0.7248142841030115 2.28825867135873 12.482841268208395 -2.4893145699531773 -1.152222398228777 -1.532798887934528
Ni 6.926923729908529 2.3247934380329482 8.890627906816682 0.2964170841480121 -0.12758045285585123 -1.0071759273776784
Ni 4.299776138281799 1.8563780135694117 4.82744518080489 -0.7245412417257393 0.7768104834431009 -2.267489559389443
Ni 0.6283207618242176 8.626921174497454 5.813816768830442 0.9898888581624566 -0.6053700959795058 -0.5647577217747822
Ni 8.848124752994778 8.081207230105175 0.7317489027498064 -1.4750560246971047 0.7175568399881062 -0.7733114691509069
Ni 5.085043785550301 6.485785268887973 1.2391086968934273 1.7841625313873273 -0.9413520869043337 -1.0302901447976387
Ni 2.5170560388024312 0.8107914199704723 12.4353028623212 0.8225452664760544 -2.445370046051427 -2.23352837195265
Ni 3.8348358375733844 4.299325659276505 11.22220427158648 -1.4933987888703506 -1.0422863979275663 -1.5218822410220243
Ni 5.878594730446751 5.201690267574075 7.39317409711193 0.4234455211551353 0.032365303704582966 1.5713014148851003
Ni 2.9571556400760852 5.4219193404681105 1.0108178884944539 0.08013665755159102 0.5025578512072699 0.37438681595527135
Ni 6.5717440178572595 5.888955747568503 11.3933191814197 2.5315971327714726 0.23516697908827885 2.3410143680514715
Ni 6.15391095027383 8.248491229703582 12.625039103281404 -0.37343087979990525 -0.5049587473392787 -1.0945893210963407
Ni 0.9445809265079398 4.063136758766354 10.781643159168627 -0.8106739689597652 -0.67404837518251 -1.8463893985380329
Ni 6.117826662604906 3.5535162954920865 10.709588582599464 1.969089126262815 1.353866820079578 1.438906057139109
Ni 3.9264025904861204 6.264397821408896 12.344733598634472 0.9205122673408469 1.7407018891005313 0.2109073352099658
Ni 1.7550018504801808 5.554902581520594 3.144519971171682 -2.272771633723989 0.9233404808182615 -0.501864167574355
Ni 4.045990976217936 8.491336187353173 0.4943308380966399 -1.0597588436807168 0.46435897154004546 -0.0036540518128195133
Ni 3.848855847432011 5.256354515849088 3.067850283160532 2.7805858482341916 0.024737869066312236 1.688359885163705
P 8.356505063034078 2.6627630133921856 10.746187703417295 -1.2397373505223102 0.16076439580698765 -0.5626633011395987
P 7.3530676754671696 7.859994458158764 10.479929788976253 -0.11808254066774503 -1.0377178047202773 0.023985307171003854
P 5.30986038953906 4.465929343642429 12.727529512400055 1.1367595267064874 -0.36176269943335765 1.2728534163499885
P 2.330888694778043 5.986893560698963 10.750251207914026 -0.5108928534355266 0.9309378335495451 0.5086554794645756
P 3.178120188897131 6.61202051831014 6.390009754982923 0.10300096374427424 0.11901225157086602 -0.43973037435808787
P 4.648704304953485 0.37725869938010814 8.204180643791053 0.1814880015075842 1.3277531537116618 0.9310018540182612
P 6.496293381195128 7.155353359388725 6.689947870156477 0.3097585384519246 1.0545297340712934 -0.24933118640380286
P 5.810259823378441 9.465391311636036 3.8790710372033965 0.4901484217993236 -0.7685436154486183 -0.6432339609048148
Ni 5.068624285479803 2.2842595210056134 7.137451875325303 0.19458880055560035 -0.6122220859043327 1.1961394113267012
Ni 4.550214884877767 7.446565052688307 7.86203264582149 2.0783882643109752 -0.8696802722906442 -1.1537964275841162
Ni 7.150820988988526 4.733762095912183 1.1698829446085264 0.6822951885723347 0.761770815501159 -1.356450521646354
Ni 5.176785213995701 3.8834691832469157 5.376175495842819 2.1437511059875014 -0.7522551627012399 -2.050148809849308
Ni 8.256958396313285 7.323161385585128 8.166302714205132 -1.2453593246947778 -0.060385700176908905 0.758219607814791
Ni 0.5879541655702776 8.032141792324525 10.177354992604368 0.4830470348678519 0.48927681782764765 1.4385435315933677
Ni 4.865927119995868 2.216347512595334 12.216245954185837 -1.3553912271439044 -0.11712943272585634 0.7127905289477143
Ni 5.8953084208880515 0.2525541592310308 10.004666164287345 -0.3051313240925584 -1.5694301660043164 0.7766937553595784
Ni 7.318141762383285 1.022642502710956 12.221857635508924 1.6353229120423836 0.7890661608820024 -1.0124567161606435
Ni 5.405389519008562 1.8076711203031792 2.3637755008542918 -0.6847930152935238 -1.139141910895735 0.7834711832927281
Ni 2.7431781125616337 2.0311638676233215 6.858168682216915 0.278089746593734 1.8378469082846607 -0.7924918987340998
Ni -0.10811220323573331 3.6183944657034495 5.127435698638244 -0.4369844361818345 -0.13098819298581957 0.4248529430256232
Ni 2.6539740760644173 3.7193385366855622 4.5538941032026345 0.17901588581800784 -0.5554634409570498 0.5921317429123609
Ni 8.630148075127211 5.048527405774257 3.0290713955640247 -0.2816234707786053 -0.3819324895130132 2.053769437321031
Ni 2.7903956670756718 0.3882650966278117 2.5365847633543623 1.5582888046755163 0.32932026263393605 2.2583138064274464
Ni 0.20055233381179377 2.577548933798998 8.800946730311818 -0.5587917339993345 1.5460009884470989 0.2785090935193397
Ni 1.3959700832611963 5.4651285511799435 5.462505660155245 -0.2424375446077631 1.2892300579357991 0.2868042436485964
Ni 5.042174732454709 6.257043062138798 9.947520604103582 -0.9135954856163557 0.0938295816576513 -1.3206422536984932
Ni 5.039122507357617 9.322157374850853 5.892773786974594 1.1149115775934606 -2.3672689308726262 1.0232319523992766
Ni 2.520806966030182 3.580793258935067 8.794999488097034 -0.8402817645238688 -2.3091607138759844 0.7656207853748686
Ni 2.335706062099958 2.418860809097518 0.42964113359157285 3.0337394937078783 2.518185744461573 3.525093248669213
Ni 1.1093918883017773 2.797934295327523 2.7192438872069133 -0.6081152628248108 0.05371471591463652 -0.46775899836052987
Ni 8.810587900370008 5.198399012800706 7.293804863958527 -0.03616487995633127 -0.7304568358792259 -0.5002906524396481
Ni 1.9277099850402875 1.075670317048372 9.00929235091519 0.4039388185807753 -0.7248011802553453 0.5782472716207848
P 0.34652499908018075 8.940004083176493 12.249535433332124 0.6427025138813769 0.5282159180950065 0.19789446789006562
P 9.007456419132392 6.848034743287626 4.628437346439817 -0.18403056542377982 -1.859126129378411 0.2419202386517124
P 6.927484530302873 3.353071525034618 6.799408752373365 1.2412136779575205 0.8556158237777781 0.0031120632664204473
P 6.342909876617207 4.738248499066944 3.1152002233414313 -0.0595745171295232 0.41640095560352797 2.8959733585682774
P 0.5769836227740158 3.762134042188453 0.8072114908957515 -0.8160555449866526 -0.07404982792756279 0.3117040922140696
P 7.245807704961859 6.684685539898721 0.06111804953452512 0.9183114030347862 -0.892691902694469 0.9395070632757948
P 4.198887227994212 8.509024383397762 11.731698784608247 -1.1192469717440208 0.31286905905644824 -0.8928826785490365
P 1.2447746195661298 3.863234401805055 6.933169759218661 0.7812852313850028 -1.4139732984531712 0.41499533350525303
