# total energy = -340865.69545712654 ev
CRYSTAL
PRIMVEC
9.35941863507863 0.00000000000000 0.00000000000000
0.00000000000000 9.35941863507863 0.00000000000000
0.00000000000000 0.00000000000000 13.69845523697168
PRIMCOORD
 96 1
Ni 0.39914551107697616 1.6793511271064088 3.443244010901685 -1.170233490094217 0.6952630615869123 0.49487256674787033
Ni 4.055913426941516 3.1061383422199595 13.009149208709829 0.24826494992281758 0.015336630357070363 -0.05888417593071794
Ni 8.233340186082524 1.0424146104175098 1.4784334231093927 -0.7505947442796815 -0.39330859256043876 -0.08699276124147598
Ni 8.652585984630164 2.308528685742979 10.690671460952828 0.14085737247041547 -0.2165766176806012 0.971422938147785
Ni 7.78878651953308 7.289686161151344 8.480576716985652 -0.17713049586983687 -3.365332611536391 0.8212247478924178
Ni 0.1290364329020985 9.336254078587187 5.280165630517108 -0.4623460548750747 0.8553011207508365 -1.5204971877490392
Ni 4.604440875159615 6.518694691285729 11.601084574643176 -1.5594923380653143 -0.31036609012893646 1.123294145230201
Ni 1.9013752560778583 2.729777399879519 12.29089806287904 -0.39849373630580404 -1.2126996296782278 -0.27223405914390536
Ni 4.215369842306434 3.844296971497436 8.302757122249604 -0.006771257285562533 -3.2787481414769273 0.6744510099375675
Ni 3.6820608087965208 0.9825611282164973 7.297057639271989 0.8760797480590847 -0.3764192730042678 -0.31933615483803063
Ni 1.4330954632767228 0.5454847012183259 11.275773645331226 -0.5985175918340466 1.116271948276097 0.382116066278729
Ni 7.811108732988813 5.216013367334872 0.6552519630249679 -0.1080683509648526 0.6238889807192997 -0.7152078801399554
Ni 6.228187696127445 0.46879924053564004 3.222739851517326 0.9317922111300404 0.17478770666927318 0.045713957097347074
Ni 5.366456662549739 7.8489956596424015 6.5670669746413965 0.04279652634023598 0.28985665732167504 0.2725927280349047
Ni 3.2441429700626383 8.560648415332189 0.46319856442163126 1.0237739409456754 0.26016684356672615 -0.5161690142328014
Ni 2.857692574428579 7.3294168932769574 7.440343787053061 0.09026166180073486 0.5794140382353763 -0.7862315196466846
Ni 6.496615822714628 3.070497676039904 1.5569523939036 0.9354493482666536 0.6348837891679066 0.5461215947308335
Ni 4.78206392210423 1.6559057834139088 1.1531945613209695 -0.47117522313093047 -0.8864253529594669 -0.4750120803785174
Ni 0.029793837355822254 1.2633062497335534 12.926725488459132 -1.0654124424220683 0.8913407879832133 0.2720651376662088
Ni 1.3644815652289317 0.011767597055720579 7.431356873275202 0.6395901935046405 1.0379497182254254 1.0275670894395208
Ni 6.673798976983178 0.5350498853769016 11.221418821581048 -0.5186419012533261 -0.2384888443726602 -0.2712958636003521
Ni 1.7432385187411408 5.719390980034959 5.356219330441613 0.9222521328500892 3.184104805668729 0.6667592977202645
Ni 1.3711080336258539 0.06949461934178865 2.00190570762896 0.421307648876526 -0.5953834170804391 -0.7146260394945564
Ni 3.9461742433907934 0.2016112369182192 2.8038132091453 -1.0520067105391238 0.39794043490549535 1.0151946839170969
P 9.086245287882972 6.572370957184526 13.2301466094565 0.4030882976550219 1.6358201633937763 -0.9523656644060178
P 4.387555067021372 0.3924207687843369 5.257411947862083 0.10337865879866712 -0.24805231969137925 -0.9759053993991709
P 6.500808842265223 3.0920898548417393 10.646617613357527 1.643751502425711 -1.4456379765463039 0.03284661421637569
P 5.771045611507576 2.1885035011072036 7.241250233748928 -1.1824619138396089 0.8026940360780821 2.2017935027432145
P 9.217876151632002 0.7674189797708343 8.89417410638422 0.997757719387572 2.2964738624369354 -0.6791242470435207
P 8.396849229718441 8.93900291384289 3.140768191186926 -0.014201488311362637 0.1421622073247681 0.5577152131057039
P 8.165053867687122 5.076324044137043 8.513192419061351 -0.373708301831008 1.2365209004675413 0.8288899777471596
P 7.277247493779156 3.121459710533182 3.6771040606849246 -0.15060956676117288 -0.49983659562136495 -0.47125004223292394
Ni 1.0191845333537237 7.072547648709829 8.89285910806534 -1.1452876187821563 0.07184279297391498 -1.0945934348613986
Ni 5.448931859602956 4.805153607888422 13.639017492442012 1.3730115113288288 0.8018489144689674 -1.25359765344417
Ni 8.817648691760274 8.592517235800438 10.13252814602428 -0.9747070082156953 1.5475901873110895 1.3536811864313332
Ni 8.269710886916478 8.984751752153844 7.224195501103629 -0.38856902099292434 1.4530226990461492 -0.44788745624758347
Ni 0.9017781140533417 3.725975201054089 4.904759348877919 1.9080043431363527 -1.9812895249837492 -1.5084304863924927
Ni 4.679728038697527 4.022762366119626 10.613521773105612 -1.832991379964572 -0.054106809146732625 0.9262298865509145
Ni 3.9478121416527445 0.8746329921725604 11.720233717694272 -0.024515468642861006 -0.2926560744436831 1.4764925000333151
Ni 3.011935793611173 9.249183406981867 9.683999534378547 -2.51746069337009 -0.8403930932907526 -1.361290366237159
Ni 8.788849760605855 3.9606345451891616 2.323573015264466 0.957914619248705 -0.5681983720252151 1.288930267307193
Ni 8.67849285542491 3.116480499816851 7.974610289089819 -0.4264259439396978 -2.739488306862934 0.13346545088171854
Ni 0.6235647152783301 6.735589858842612 1.4673921169401145 0.6197839574119907 -0.10474031503288414 1.035809789064287
Ni 2.2197358811079506 1.055836016746869 4.731706506055079 1.6308072835602174 0.7249037672714806 0.5749431469482162
Ni 7.365413217365323 4.610449621926316 11.929601104839229 0.37770276770238176 0.19877609916407057 0.363968963056057
Ni 3.7788465569498704 6.171282430797944 0.9556331448481574 0.16846613532661953 2.080324819212056 0.5353142197026846
Ni 5.724800724008718 7.5803616258451445 0.1150272550821649 -0.2824433955767394 0.015153053591354548 -0.27428348547376635
Ni 6.642070547794525 2.2849055130963247 12.807781316676243 -0.13589565758976596 0.8433858573704894 0.15792204126218606
Ni 4.444675598979586 6.0851196228006765 8.546671995477494 -0.11699316425830819 0.7414668138364844 -0.32567520968218105
Ni 8.10623928095512 8.670752616209862 12.649592166595141 -0.9184877807116503 -1.4634901742363762 0.27382582911105746
Ni 0.9312874250825165 7.839215067163893 3.6411723165851737 0.1672489750900668 -1.6100813638667755 0.32643317089412816
Ni 7.132972055447865 1.5663455064504235 9.079267841287061 -0.36675012534561996 0.28320752743627353 -1.4514216731076164
Ni 8.395417238666564 5.02919937128605 4.855869489671475 0.9524250568890434 -1.6603137776597665 -0.4690322086459987
Ni 7.731806378854461 7.658437896137692 1.4493106560700386 0.25608701707039766 0.7905507158473287 -1.0129292849216878
Ni 6.129782768549423 4.7378593878688315 7.5865744079381905 2.456722494949769 0.049828750596669025 -0.8124511154648459
Ni 4.958208180903771 0.7512758545010442 9.440660265396996 2.8062215465244247 -0.7915292777105143 -1.033473941842259
P 2.7564798212586417 4.641017483203643 11.641535982004047 -0.17525359056209816 0.802573708450134 0.5768748167532903
P 0.684950334310665 7.659570385793098 6.410561583973582 1.0795190570267794 -2.2466579673560725 0.16630615156082326
P 2.712406318884198 3.3061397591321473 3.3261221179279503 0.34107148963259326 -0.07288743218834545 -0.3728955761217255
P 2.7721662068988135 4.460670845434869 6.961500018433274 -1.4751182453936078 0.42690314068643254 -1.6109293136893676
P 5.645713636503079 0.369180396360047 13.256022594169735 -0.06946992186636423 -0.4651606415057344 -0.3937472227597541
P 0.831851089570398 5.441996530390923 3.435311903604522 -0.39753137239253467 0.5630096287354239 -1.3816637876871882
P 3.5585726392640487 2.099355038563866 9.982584643764772 -1.6732078600136153 2.283632230587577 0.2063719092334575
P 3.257723486508873 7.188276860189973 9.913311842644745 -0.394524724355727 -0.4329943411858349 -0.0488833559642642
Ni 1.860203173481728 2.452729248725153 7.049430820611583 -0.8034831076382807 0.551097193568554 -0.2565924959519065
Ni 1.0287592186221577 8.47588952013088 13.312678898963421 -0.2180832841331147 0.21746879047756743 0.15900653257561648
Ni 2.122248176556622 6.368298193164061 13.188228581194785 0.6297855487093927 0.5224417346153906 -1.4883810239407849
Ni 0.6667069554981218 4.699317301910462 12.625783677459422 -1.7916084461424113 -0.7874648778331536 -0.8389118807595359
Ni 6.087468836879246 5.744614613269006 9.976530035846737 3.050602330901488 0.2110207208593785 -0.10966577735895952
Ni 4.205748359944802 4.207835510301459 1.742320359772584 -0.11698287984566305 -2.8273092204326598 1.7132502206474818
Ni 1.432786602461612 2.2272234160197275 9.524837004758915 0.4573555436390188 -0.29869173911480174 -0.7758995415930573
Ni 2.988359418057717 8.001516745795287 4.951991655043268 0.6768184817284796 -0.16887365517768338 -0.18332685448853586
Ni 4.82429361900665 2.4095823287960414 3.5507902826651208 -0.3709996446505933 0.11090736307554448 0.3274338442445006
Ni 1.3923632733566593 7.729784744428282 11.041721727465871 1.6579105675349126 -1.278972384763533 0.9561050768437921
Ni 8.814269941631334 6.468724755168261 10.720520518878624 -1.4704090128433966 -2.0119028789942317 1.3324130210811764
Ni 7.052396820378511 2.221383138788542 5.626517468873012 1.1435896622544435 -0.319000882985799 -0.758489573646726
Ni 0.3251190612298348 4.329676422153341 9.93773618152696 -0.8072410320188164 0.48346612468314154 0.7898248934248978
Ni 4.406264544882173 5.549732798352745 6.095593748200388 0.3131094572020285 0.8235487680399043 -0.917333098281917
Ni 7.445370730804455 6.582909662572852 3.4392437953750683 0.21343627227940662 0.22665379941094516 0.41886792908678183
Ni 0.446463923893811 4.743531195564501 7.025471644835763 0.639699208278679 1.5100983610132186 0.6652688292176672
Ni 5.8549060025194715 4.715190875923428 3.872744924452866 -0.37744180073151123 0.6894839930112899 0.4389055644639473
Ni 4.290554052239309 3.0589762316944085 5.864473200252994 -0.07984638000468183 -0.26172158964835573 -0.11595752390494223
Ni 7.18503850134063 8.505184500473206 5.062729488562849 -0.14885556018454366 -0.5235277685907178 -0.15096695010059163
Ni 0.9053768105203143 2.2288519548630386 1.2346636208704167 0.7743062289640084 1.6276093454482097 -0.7516283277505185
Ni 2.222843208096338 5.042452308079895 8.981871859038403 0.8657241158563737 0.24189015674472533 0.5048751864865371
Ni 3.4373026519491905 5.635811371582255 3.5655435342669124 -0.5901149695926482 0.13961064454750796 0.09229874683542169
Ni 5.19096756305498 7.448010086860856 2.83858064156627 -0.021249139186763404 0.5818295896554044 0.4766912678531532
Ni 1.749359578531518 4.632678241195652 1.0960983638512187 0.45643200338348494 -0.832363795228373 1.3079057799684315
P 0.006297016860803949 2.0730925098608104 5.758693986728737 -0.5960141086859025 -0.6994976684935501 0.7709555673242205
P 6.8638513318813414 6.038622030998545 5.659242676146794 -3.1327390496022436 1.8678123442984995 0.6663844308793492
P 6.425605913495069 8.85165145967838 8.445837362820603 -0.9751047578747464 -0.07991374290750754 -0.320546373096048
P 2.6553045057632634 1.3046935989583972 0.3652737750198276 0.008923270631558825 0.3174289105129888 -0.7409127411052272
P 3.04117461744166 7.657136936946771 2.4810368104009877 -1.393246350318465 -0.4019981499146367 0.5176196306363988
P 8.386160773631879 3.1083003679257355 0.17119874199031143 0.48025198862121804 -0.12882589522717813 0.04238772093759151
P 6.061664919689537 5.851265188668621 1.8374700815477107 -0.10908985025083147 -0.9173086728018848 -0.49198187546363653
P 6.682259891433484 7.014949786400989 11.890258788587163 0.49467664868698036 -0.7419308979570964 -0.9424926282666801
