# total energy = -381169.7460142021 ev
CRYSTAL
PRIMVEC
9.20910785375872 0.00000000000000 0.00000000000000
0.00000000000000 9.20910785375872 0.00000000000000
0.00000000000000 0.00000000000000 13.47846021486161
PRIMCOORD
 96 1
Ni 4.510123792069807 4.24378718045797 4.254462378417253 -0.21765339568454775 -0.33980085045028574 0.6588081611939879
Ni 8.267633235258959 3.848421757072907 7.038101286450599 -0.45669605567814897 -0.23228348689289674 0.03237070302122167
Ni 8.162815168339906 2.373960689040693 4.0625970602296215 0.6623686248517366 -0.7039166234968522 -1.7981699014100128
Ni 7.352036093518229 5.966470544724252 1.7341523873326132 -0.7708910326348724 -0.048109196802401014 -1.0981572409532572
Ni 5.9691411860356665 2.2353820323021663 3.9136323715220818 -1.1909380696314198 -0.5466867232056843 -0.3391495900195321
Ni 0.9671681463749523 2.805729716232733 0.21515423133396766 -1.7002090711928075 1.7632898017033762 0.8070672254451132
Ni 7.850442225984057 3.470747030098976 12.780707625522483 0.18949930184783492 -1.6653361705750223 1.208169603018358
Ni 8.8313319432349 8.533896174007033 10.47411156128524 -0.8294936727694295 -0.04315905188597729 -0.2344270155984608
Ni 5.042244468815258 7.261326380009822 11.557752821626577 0.9674734665817338 -1.4566566962543106 -1.0725151149051206
Ni 2.5266845356217487 1.6214844767795944 10.28006184268703 -0.5436739045212895 0.7012347057893149 -1.0949983836093014
Ni 7.357294494169325 8.332612701098078 1.1277013165149041 0.652993868505056 -0.06991009472757638 -0.32770252452485493
Ni 2.7199008299486374 5.187886511367079 1.1786184744832262 -0.8313199273448908 -0.08225318967396157 -0.7596455416280401
Ni 5.191201790236421 -0.015351582986650975 1.0443257365941223 0.7185207465632723 -0.9268590354944811 -1.705333022682934
Ni 5.649778530730286 2.4183025439181525 12.755839350359222 0.04323027144354491 1.0336611181524005 2.2840783169860597
Ni 7.544782723338626 1.5016003092209727 6.36934047019439 -0.18960111753302186 0.16946269491193394 -0.777960537887144
Ni 7.279937987217993 6.7220502263713735 10.16918878727744 -0.6831413386227138 -0.4984224888826578 -0.7847994151858484
Ni 7.138034842502154 0.25123091180799595 4.017902496516896 -0.638773611140616 -0.43789306403903294 -0.7834850672497989
Ni 4.4616286294976994 2.006867227124747 1.685832197811943 -0.5191504654586284 1.6302902347144825 0.725748374659963
Ni 1.628538653484918 8.684741362562129 8.833985087241171 -0.6543349559139828 1.4118742498322974 1.1221227506299192
Ni 0.5772453058003938 4.046482042192225 4.5994171447723655 -0.33596476453364726 0.9132069919286852 -0.5756502003175699
Ni 3.638233076756577 8.849169985373559 10.811841782437577 -0.10688281529718366 0.5916617452544778 -0.7783965969832981
Ni 3.2719960618818784 2.8785461329546584 13.183834485104995 -0.3579993757361835 -0.8409091136952226 0.1347782561558711
Ni 5.877427679758488 8.19982657327293 7.43965154674858 -0.12007488850742547 -0.892055811772367 0.15106002403503016
Ni 8.957515140645274 5.365852522894991 13.324724627944091 1.2132994680457556 0.5636693738066099 0.14623329207034816
P 4.77309907927245 7.570420879928211 9.122356331493776 0.3720363134452238 -1.0893800089812593 2.218557609575431
Ni 0.47242723888134075 3.2820247804616405 11.275581148859645 -0.341846677235721 0.29361226770936527 -0.4839124681919407
P 0.064752921783046 1.2240930496410445 9.768918592987346 2.1749162187363966 0.4587071725709068 0.05732197364992063
Ni 4.4161264270159695 5.331217067818329 9.750506823422132 1.4456130368456395 0.09913736702380992 -1.1503619479812703
P 8.454384735790631 3.042265654452367 1.7531839298642347 -0.2587753625358382 0.2949744381642146 -0.10987763625944948
P 2.0511538273543843 0.5061951959871906 3.669726384193739 -0.41574018209107755 1.1128613799326512 -0.39960085332705375
P 6.2037340024735474 3.7134070251189235 10.786609747509486 1.046052806948534 1.366803325635588 -0.14551492584708486
Ni 6.806792437914963 1.4186446646236408 1.787162775542607 0.8353653010588581 1.1052938519980384 0.008271495980172853
Ni 7.743386345828198 2.129937746041126 8.71069723337669 -1.2315972379136788 0.3929306403957298 -0.4604161848422135
Ni 3.6485196503595096 2.124292562855273 4.302445514586207 -1.3652143838819133 -1.4176204082874553 -0.13572853588428238
Ni 0.760108720946963 1.7457521797321247 5.176254487089671 1.4630286612189254 -0.17019211687879077 -0.03266098056813085
Ni 8.706953730986726 5.805578219373454 5.913135075002903 1.3577682120165133 0.6563686985145599 -0.036977605665613734
Ni 4.463166550528755 6.812667848800075 2.106292440416336 1.6401481013451689 -0.6069289558261934 -0.7270017874510899
Ni 2.4007684023425173 5.145054950196764 8.19609043816934 -0.084997328078002 -1.2853188958068509 -0.8526863088358089
Ni 6.077210068068269 0.18931163254744096 12.147125601713187 0.6110728027912379 -1.1891154146003844 1.7902619594168456
Ni 4.557928271544135 4.745840119680076 6.647428824487251 0.288261030699781 0.3510877362180147 0.7358744073503714
Ni 7.879570634494422 8.690101063400899 8.240272054568115 1.9501233837935898 0.5880434317756001 1.058173501471468
Ni 5.678382020086337 6.02359464146462 4.016527576696916 -1.4975174390244146 1.4099382091518493 -4.2744008987063555
Ni 9.311329068867908 8.90358660437063 4.13077116562367 0.10193395593234059 0.40138494181067 0.18180296164484172
Ni 2.818622467391288 9.06542746784238 5.713937465049241 0.4172779588918426 1.0567313697083025 -2.2162521013707055
Ni 8.173985816307997 4.46699753944444 9.542830387760125 -1.0181905333206271 -0.6600757150525018 -0.21134493696801665
Ni 6.292546639740051 3.9302538904978506 2.3929526324080412 0.5906752129714924 -0.3422436555638235 -0.642896375059738
Ni 0.38294233673299793 0.9652434428091394 7.277128288376226 0.4432674409770688 -0.8578064036711937 0.8241133822941226
Ni 5.016541848469881 4.773255634107946 0.7163461189608419 -0.775651173027677 -0.03377272557507087 0.19077636878804563
Ni 6.294710780113094 9.011563395323531 9.98239032029512 -0.7789498983836068 0.10897749304268328 -1.4476562925279133
Ni 7.5328569285169635 1.7676698567016687 11.200344578563099 0.7694810396612233 -0.16446549880765868 -0.4894470248569249
Ni 2.490345395570564 4.855096976640859 5.760411228421847 -0.41825394965186674 -0.1657929593698306 0.12687005705238796
Ni 7.902335549397241 8.340385188225092 5.972426995759504 0.35692285484255304 -1.1729218355596573 0.04768290789825981
Ni 1.1624104444553285 1.1798064494114076 12.052479915458235 -0.34111905504107704 -1.2199696809770795 0.37224997211792665
Ni 1.2611597092218905 7.123723888716158 4.690787151322248 0.3727235693202355 -1.16168997139958 1.3355181423690612
Ni 2.287192473743617 7.432615788259197 2.0825835919465505 -2.1492676649303566 0.08661840862119276 1.2784221686870179
Ni 7.7622926444914215 6.747089790942882 3.900059988195311 1.735620617922882 1.2947412175620154 0.250281209021898
P 5.347959226108511 8.322989183269012 4.114960048149296 0.4068277100927961 -2.220786241795633 0.27210421843426036
Ni 2.0391083141291055 0.9779704300242273 1.0125616813826306 1.7468488825385335 -1.3818957011923363 0.2107916355677079
P 3.255263112699668 3.7043360537680834 2.5926622687648573 -0.16344014286693787 -0.7817269469081117 0.19144845515440578
Ni 4.926522818059256 2.046687409988742 10.665182133455026 -0.8039608186056477 -1.1962468834388431 -1.5281377350134326
P 1.1386785732156168 3.539446975558134 6.60494444668742 -0.5974012188414163 -0.2335430703316107 0.796839634179834
P 5.829411390800841 1.2829576677878187 7.884333585136711 -0.2328982376587602 0.635356357928951 0.32771589426129366
P 0.24336817542287142 7.357322121493236 2.5540337444722323 -1.826402928113777 -0.2974121010714297 -0.8319472765162446
Ni 7.300262488508659 4.354360939858521 4.4559116152696765 -0.30596744684060856 0.8948063779343106 0.9621924206884525
Ni 0.6274183678447081 7.858573868321917 0.23530928503797743 0.6034877913551284 0.09652975419763377 0.9623289462663168
Ni 3.872264137608264 8.97347452475797 2.8201926203002405 -0.9447937655960309 1.395663187290074 0.6130358400548797
Ni 2.619180816076411 5.686099252565529 3.5909581209905466 0.5887139754800635 -1.5713500087348486 -1.3156836241416374
Ni 7.40761306011957 6.356273666895195 7.798664016420504 0.010249702752466219 -0.7394073602042943 1.4832799552687936
Ni 1.0610365839172038 2.9738051458004393 8.711547234042358 -0.17818387683501571 0.21301178314747832 0.4008591512141871
Ni 0.37472873333420126 5.875806876755698 10.51007220699884 1.263650666804798 0.47368487692666167 1.0860216340319877
Ni 7.961356722379513 7.332291766029698 12.288150197528651 -0.977975137444006 -0.7958523305659003 0.6201763077544028
Ni 1.187413172594955 2.462708862551404 2.78366561444646 1.2984119815453832 1.0119748914282185 0.07182993745810855
Ni 3.2951293411035145 8.073394729947356 0.3011737461530503 0.5131937336545613 1.01043402930366 -2.2322320217387297
Ni 6.441071133086606 6.210843433826693 5.879749295877824 -0.510132064010102 0.12319929306902008 2.3820075226343813
Ni 3.5120314611302637 7.870748309058782 7.472309806343997 -1.3132045664735257 -3.7840290480423153 -1.0562896541851938
Ni 5.489254569698304 2.6665985130159826 6.032567996270975 -0.691613380649467 1.742489577128573 1.799430513289991
Ni 3.7677960167920856 0.5472346647464656 8.359503296371635 1.1849479134862562 2.022114272309595 1.1913324768563613
Ni 3.974494445187635 2.8674767851742415 8.51292795606924 0.26633029206496067 1.2661410373268194 0.15132073389558456
Ni 5.384979840149504 0.41733190862684955 5.815025843240284 -1.0668707721351496 -0.324921362235292 -1.3440920000810013
Ni 3.0591827857939857 6.26210132878992 12.424862168081578 -0.9634622885398118 0.15411192348747652 -0.6292433030526775
Ni 6.102406187475275 4.24866800768228 8.288053511272517 0.2943877124228091 -0.5442169215089531 0.6707928443596899
Ni 2.70579247653799 6.819233942782968 9.658826469933647 -0.22096806188007748 0.29886091770281437 1.075053050835626
Ni -0.08563089046273191 0.6420755840903911 2.047741852851352 -0.6905823682817913 -0.3052418815284937 -1.1870348779222717
Ni 3.781232105320894 6.623669325923627 5.3732557247923936 1.3231534501561213 1.8638782993514156 0.019217196358399163
Ni 0.3936534502133661 6.7132186918277625 8.19334059852938 0.5146752032960943 -0.16502677062776738 0.07649546125457793
Ni 2.605403990552698 2.0039755672220427 6.764461852218237 0.8477960706230432 0.28541121995581165 -0.0578981578683648
Ni 1.567408594777426 7.957976979754377 11.359956837906012 0.42156758740613204 -0.231746126332188 1.2511710462805485
Ni 6.564224533974718 5.215034961663807 12.580215214988183 0.04716945859695102 1.0124420608726241 -1.6827245412547986
P 1.7288442574984768 4.63049604235086 12.61919460629448 -0.09753814085749009 -0.6030496753764453 -0.5941464593495446
Ni 0.3460331528984457 5.1010262049902995 2.3638794785455 0.03263424109525348 -0.31374400546223385 -0.11649128492122518
P 4.039354192623138 0.7589354805915346 12.602818970501522 -0.599941982985399 0.8584612636463732 0.9987118557707251
Ni 4.302578125740981 4.4269379197732155 11.847687772412556 1.4189103307434725 -0.33805969938946295 0.011218494423638745
P 5.698724939592943 6.958807183182297 0.01420412813353957 0.3384358517819591 0.5516895757369144 2.5115016475731777
P 1.3006023186590985 8.095689980343687 6.740740110997293 -1.7113468329771817 -0.4046566705834064 0.33807435467748226
P 8.58698668145637 0.13111743746091137 12.71688666546604 -0.8808596859462312 0.25584327649070776 0.3892233667474716
Ni 2.490603250593735 4.098310901849616 10.408484695155803 0.060395727479237916 0.5317910370407746 -0.08774146648204244
