# total energy = -340855.33387236396 ev
CRYSTAL
PRIMVEC
9.38145826637440 0.00000000000000 0.00000000000000

0.00000000000000 9.38145826637440 0.00000000000000

0.00000000000000 0.00000000000000 13.73071246516915

PRIMCOORD
 96 1
Ni 5.356503124740601 8.184262297966571 10.383865288744374 1.4289620585525196 -1.5960230860014966 -0.5464213853594396
Ni 7.165886232104898 7.081509395783504 11.99469733548234 0.32594157596969026 0.8727028611670518 -1.1297519850404025
Ni 4.152740060597068 9.34128693665389 8.675723127215742 1.1033799228047771 -1.1624160509323271 -1.3900514975302511
Ni 6.965742199852217 2.1599212982858953 8.32007016520648 -0.38518133546761407 -1.3016454008810165 -1.707040492292344
Ni 7.6553732025190655 4.163331727064363 9.212772215128485 -0.7618338075286105 -0.0026999154296663175 -0.4823484661389305
Ni 6.959390952555178 9.003910931785096 8.528090869882492 -1.8963436189689729 -0.33963115764164087 -0.833627492432145
Ni 5.663117327708369 1.1768851859957914 10.010279669115775 -0.033258247832497555 0.05969073099241333 -0.34995387972388764
Ni 5.183246352094004 7.622266036032719 12.645203904282749 -3.6320673381286226 -1.4010969567111355 0.2542124257555041
Ni 0.08718752124043816 2.4830750123093237 8.902691563303618 1.0855639776692787 0.677293107372053 -0.9160568026726545
Ni 8.934281747976181 6.394983655827619 13.121398286373168 -0.586129759692655 -2.0338302751949424 0.11777400828839071
Ni 9.289126028276423 5.831120483683854 6.201380376330473 0.8046611871067819 1.8696661096777865 -0.8462806624197812
Ni 5.771773378216972 3.4097567043434114 4.671668861723647 -0.11918965768899474 0.4279320961715792 -0.006668413159111096
Ni 2.7626237079625233 4.54079470342541 11.79546518098043 1.1527489601562082 1.469578289411985 0.453912836506057
Ni 8.939028765896865 0.436625267098606 7.627534663037176 0.7355962139883202 -0.3769381216222153 0.8866528955892407
Ni 3.645812959126478 3.877169103280567 3.430481283965114 -0.501424251823459 0.7540503069284498 2.1110438455624676
Ni 2.321554444047657 3.5241542073568732 8.480720134134078 -0.2294269912807081 -0.1488928411803823 0.8814970624199141
Ni 6.142866344364296 5.4178109550008084 1.0382647575451678 0.3702776788829042 -0.5526056597932805 0.30024957052022483
Ni 1.7994481429808904 2.427189664970371 11.367560917555872 0.04577309247005665 -0.37314214491489284 -1.8954702152250844
Ni 1.8786088884645369 7.593549392050087 9.214433671400725 -0.011490517138102792 0.3770450795137248 0.9894648832511604
Ni 4.679781008751344 3.4153574349731506 8.629629207947573 0.1387855775430513 -1.3078625854353219 0.43978950973079745
Ni 4.89738393497713 4.342442529715913 12.95268964473042 -0.2437860882158576 -0.37853580512663837 0.6104074012930971
Ni 4.4507889920992545 6.587472418073822 6.273095996474486 -0.7502527875592305 0.630191783008876 0.6757764136172104
Ni 1.4912578550117896 0.6689814747118749 5.117189627621445 0.5029049501340436 -2.3072113034590975 1.6892176051783103
Ni 8.668120393375975 6.444761673786403 3.4161323434321393 1.0612125454081078 1.2934417820243014 -0.30790374463137293
P 5.0601803815732085 2.274722204008031 6.385495248861257 0.18744807574576103 -0.48438220873950777 0.6129252826189444
P 4.840354049720542 0.8867673393753154 0.7217456108606866 -0.054694563329402576 -0.5377670521185512 -2.5401190541995544
P 0.7478260650494205 4.4514456941831435 4.449039350118607 -3.265734502826079 2.083330181697283 0.888820592664521
P 1.34543246655507 1.9427311562271254 6.950555495089368 0.2549511036937416 -2.0438781463492477 1.2114516162037394
P 7.623007171241679 3.6445839880837716 6.847561154689722 0.8508968210355539 0.18822583445205002 -0.962293207932375
P 0.9559893678922193 7.777350923872273 3.5196482929155604 -1.4981630430282133 0.7186271902341496 1.4233457408070067
P 1.6611654470305526 0.9607363858129025 12.983473023985633 -1.3712770451362255 -1.3724211860429976 1.5381557813710671
P 8.277654715753926 1.3484532961409592 1.4686232104718047 -0.5944825025327246 -0.39841197522527516 -0.738692850635773
Ni 1.8401355278069835 8.438593633598433 6.960619923597884 -0.44028856085440304 0.5333221289733202 0.0643346575223279
Ni 0.13273731592481228 5.349129298484363 8.43329404778145 1.0278866775624684 0.7009891654374121 2.6068090993279363
Ni 5.823812327636003 8.190510349221857 1.0190140050288792 -0.6817796823884968 0.16539700948299257 -0.9385912363297448
Ni 4.13504663016543 6.114149700381664 2.0787060134255104 1.8511189428032184 -1.7195777055274064 -0.06304524928694304
Ni 3.6564702958021624 3.998949814008609 6.3794404556478 0.7772869088588871 -0.2509862055087226 0.23116094325267933
Ni 8.404567084194642 2.175147405173779 12.994211041203052 -0.4035210143170663 -4.044549675404034 -0.13265915293033928
Ni 3.5948528774166926 1.1514051451408986 12.224906127281292 1.3903137500527023 -0.37663216034602237 0.6867737931689785
Ni 1.4374927172579643 3.1142032407600033 2.0896082061639016 0.3566210073314181 -0.529468816665501 0.45524209684044176
Ni 6.726139753816151 4.787395717384065 11.539043656430133 -0.7754529409739419 -1.839335319904729 0.3222708119863224
Ni 7.078901350364631 7.243114397170242 6.825070046462359 0.17124935449871154 0.028095472684635484 -0.05006220676371378
Ni 3.3086245834245083 8.942443616733087 10.601853792907988 -1.9870711646625328 -0.47215249944253523 2.0939627217104646
Ni 6.853858927674217 6.311554346798693 9.656233750920375 -1.9601085200307597 1.319013716956135 -1.7983488501900384
Ni 1.8328179903007922 2.945149361450296 5.024012983375941 2.108010972273415 -1.6236760718320746 -0.09616748576220857
Ni 8.573029931628849 5.5420402263559225 10.786092500688877 4.1511473553606315 1.1629045605329715 0.6197829289707261
Ni 6.425229477519877 0.0733386124370536 12.262927301646796 -0.044521479451142675 0.6603055716751209 1.1553750849251456
Ni 0.43549198693098046 3.817709420313591 12.407648492456747 -0.49015536377785907 1.870518430375753 0.4161924391371477
Ni 6.248295173203502 7.098949526839928 3.029338568604864 -1.7606328236965034 -2.1344102882025497 2.133790909450996
Ni 3.201938639167572 8.800079986404295 0.38556761822207153 -0.30755073216732837 0.11122566564691166 -0.4688774282356893
Ni 1.6224106426227614 6.92421048377541 11.811213835097922 -0.5395010040905225 -0.22289458947882904 -1.4444861223300478
Ni 4.258544147769925 3.2168363950135106 1.5124243013213658 0.30600627049834395 -0.8872889865113429 -1.1702509735957134
Ni 8.550720823693306 4.397286535178985 2.4289627605968716 0.339683351035815 -0.31028252927619465 -0.9282307190310272
Ni 1.6407420122216052 0.7835065655587773 9.253099351954273 0.6323083151312465 -0.6292389321773033 -0.758059685198159
Ni 4.138996224127106 0.8891652401273444 4.567576890698072 -0.13801990302162034 0.9664249707125615 2.2149282403529598
Ni 2.697169273115474 5.702125431491375 4.930946102193027 0.17910715998023347 0.42416054494428884 1.4369142235200607
P 6.610475753926619 3.4644224620979993 2.635431772063236 -0.2707281640223402 0.06667667539194323 -0.34463015351812903
P 7.77703195428867 6.773628695939665 1.417091797949036 0.5871270906089179 0.13815308616537497 -1.4719336770180391
P 1.9746187331291065 6.3821592022751 7.475164769241586 0.1763933605934962 -1.4127998469703602 -1.2123311905952154
P 8.009110470735036 2.299554924237376 10.26090626684867 -2.0782908195011625 -1.4470978489212818 2.9595454268929675
P 4.878705451419658 5.655143088118288 11.1458789332433 -0.1203088588951025 0.8428186720131097 0.7937543103862911
P 3.4133779472631427 1.8796033230487117 9.963499027097026 1.2159142799607834 -0.11422074371949362 -0.6021256209002791
P 5.254001310903872 5.593713298899644 4.597550650098433 0.8262129451356287 -2.6268701317438694 -0.4295349218823247
P 4.2388337037949135 7.360748503311442 4.086355923228399 -1.3456182069175406 2.5309687551588538 -0.7382812170196511
Ni 5.55266003719824 2.1488324145265127 11.97809684494746 1.3515289159750208 2.3832894746705984 1.1963391860423331
Ni 0.4639290634550417 3.8247642769862265 6.914732396413224 -0.2434256195526453 -1.179651440974007 -1.7087839573460117
Ni 8.691742905479297 1.325853362996837 5.658879722975616 -1.1479386832517586 -0.7783096936964466 0.29945175720927786
Ni 3.6268061245270626 5.759999647998677 9.454268777603653 -0.19595277078266252 0.07106631981920665 -1.0533362279838245
Ni 0.9452757424664876 0.6285792862193563 1.2849952356289325 0.6572444162512938 -0.2466724086247171 -0.013507804678447706
Ni 9.322561545804714 1.1752715751610927 3.465521969015596 -0.6276692736973383 -0.027548341931913845 -1.8543418206158904
Ni 7.785400215129084 9.070528667466462 10.541699882023757 -0.9662239104453489 -0.7670328352310468 -0.12265576186072424
Ni 0.1167015891820774 0.6651679118961482 11.440346962096624 1.356327880025561 0.5076092975882485 0.18682509744978146
Ni 7.521659276780926 8.725741310508063 2.4464967062367076 2.897485167227113 3.0240024689257723 -0.9845085676871496
Ni 7.7279763086221624 4.067228067816381 13.468112594874867 -0.6407353628526772 2.8666077609219665 1.3717812384661536
Ni 8.9083044898292 7.640409776464738 8.501604198547582 0.09890776751150708 -0.16914439234056677 -0.6778314963740262
Ni 6.171686184388681 2.457379197912582 0.6674898228356128 2.558547693218387 0.31249136400205535 -0.4907675434405612
Ni 4.4631912800264155 0.17299221552137292 2.5452759574036197 -0.9281211900363564 -1.580136239567911 0.7672848033408527
Ni 2.6297447320167575 7.505063476975217 2.4627547735421302 0.4485428304433952 3.071298168687943 -0.4437873180362809
Ni 8.2210939034144 8.715590572582808 0.060006621988273064 0.12291750016254314 0.4851041745071968 0.00023191350514798772
Ni 6.004358493413768 4.89805001851936 7.432764330122377 -0.2982687926447702 0.9113280297384175 -0.25716739461877
Ni 0.8565384043080714 7.46604599173387 0.7721868979241996 1.5012619936685114 0.39038370560415997 1.4943477830471812
Ni 3.414391144764 1.049100341929336 6.982190710761969 -1.3967525636995106 1.1887693441148752 -1.3103640117009367
Ni 9.073643311635765 8.138856039594817 5.45157388542521 -0.26903097882557536 0.5793186503080926 -0.5371232478869653
Ni 8.282392352216268 3.1731375620598694 4.530078263562177 -0.5481993031954688 1.6583281146883055 -0.0107999188289814
Ni 6.1670423625097515 0.25632395738354863 6.4029062973968225 -0.19779933707309805 0.6625802266419105 -0.7311906287214568
Ni 7.387157308542121 5.649870708530494 5.015279783806051 -1.8046652793263696 -1.1268060150382013 0.7183471970998855
Ni 1.6230392003316263 5.518314518210848 3.007561389357271 -0.6550422663936525 0.02474429682421545 -3.5005600394145393
Ni 2.749677295451569 4.78093189258693 0.7298905929925783 -0.758607587281829 1.9400258903482714 -0.07637307674410074
P 0.0816890485066191 7.768823178240057 10.576218957990465 0.06105572966074001 0.16668718904932583 0.40158111698187615
P 5.274180827795947 7.19024987941718 8.140019340429136 0.8790100343320022 0.643328320390834 1.3811071438527698
P 2.9067698153761556 6.747923500084583 13.401614941860267 1.284825243999884 -0.05564587149907836 1.4736894833668812
P 1.1471084372205964 4.602365214519174 10.472744286923744 -0.10310252231914502 -0.18790033279183124 -1.718748781868208
P 0.5417182397291944 4.747674622767123 0.6433569593985267 -0.8479063709486622 0.25976343748072034 0.6369614976325418
P 2.3497269634464946 1.291892483801435 3.3445677647674206 0.5810639151339736 1.089011055677615 -1.9882533578960921
P 2.8137620373807923 2.9795136433543723 13.480154634801721 0.6290059902308909 -0.6957970797135113 -0.9561017344096824
P 7.179282954616234 9.145373942113125 4.41241976562929 0.33451157702688844 0.39703206415861303 2.5330153532752373
