# total energy = -340868.866178868 ev
CRYSTAL
PRIMVEC
9.30603974920826 0.00000000000000 0.00000000000000
0.00000000000000 9.30603974920826 0.00000000000000
0.00000000000000 0.00000000000000 13.62032984187876
PRIMCOORD
 96 1
Ni 7.844916830255213 8.559350786894806 3.6496760635807677 -0.16333807007143483 -0.5204974664048261 0.333328869572697
Ni 4.608629929877495 4.233661681256543 11.10874030144348 -1.091746709441223 0.017171369572963977 0.009125102229719769
Ni 6.942994096285407 8.065907349700321 6.043912496167733 3.0418479817476256 1.776625599580334 2.3153051362108252
Ni 8.12354895821689 1.4178030323417925 12.24520780135571 0.44631085578908297 0.41981872303582535 -0.2107561543440822
Ni 1.3062701492176245 5.988752808379508 5.36037645179755 1.3211202217761764 1.090880761896502 -0.33404903556817306
Ni 9.03716938380848 6.776174032632187 0.7967644878869441 1.0765715443626815 -0.5333555533144169 -1.3167141222886807
Ni 2.6043137595381474 4.89148699976144 9.065595611992968 -0.24065345612414688 -1.2345640338514867 0.49030988707785234
Ni 3.2335323126927156 0.9442372954688125 7.0465861359243975 0.5630975604635399 -0.9520620171226699 0.360475862301134
Ni 4.627521190014504 6.46609679727989 13.119087715967455 1.648632741777412 0.3917623311192414 0.04042339812236909
Ni 7.822256624130278 1.7156800499405824 7.224440370584737 -0.11347358114082394 0.08333922364928872 -1.334325664722857
Ni 3.1509691304584546 6.047874077172819 7.090130955842178 -0.44336617133846223 0.22029751817561416 -0.084325498821958
Ni 8.874527731880146 1.4628256513284197 9.320459184528078 -0.39681532016211657 -0.535049396077072 -0.18014125767170266
Ni 4.8571384080541975 5.133192763080925 8.62541436113748 1.1546829439541275 -0.11133956551695663 -0.3132354412569315
Ni 2.5320895871621216 1.2364283229475468 1.470123447485781 0.8569959919547564 -0.1582547420112565 0.37619070193322957
Ni 6.636611358605224 5.219152649724057 10.30000638558204 0.20080341400674448 0.5569204851185505 0.5817511710089852
Ni 4.8082072524875 8.552771416985019 5.657911937747558 -0.7317650131676882 -0.5359245995931737 -0.2173672319026966
Ni 3.4539458576902895 8.098208612722765 11.84880122959307 -0.13365956917039562 -0.6072755405323348 0.3035284983818128
Ni 8.403632828336882 6.062103011532173 5.728819305537679 -1.4314567999499155 -0.7015874611430434 -0.033395544741310235
Ni 0.5557529551123963 2.0712452062533244 0.8709382755332673 -2.062051217713849 1.5166045375628527 -1.2950278955644987
Ni 6.260721812076113 6.635336431196963 4.611939157515288 -0.6412459839405086 -0.36586283764466027 -2.1471562750143085
Ni 0.7820497782669246 9.113460295435676 1.0129782172688369 -0.20541314486461396 -1.7258257433196473 0.8356987731388769
Ni 3.4563002856778087 3.2625764618984334 7.378527911026401 -1.7993616077252688 1.6299796454525992 -0.4206250209872046
Ni 8.196098841974589 1.6018671871447063 4.1735688619419 1.0769911483986034 1.837855650035409 -0.6226399388035471
Ni 5.304656540432847 1.8760882523945905 11.14201497619515 -0.2236137270330407 0.030342616847599358 -0.7618194093509073
P 5.6527396410065975 8.280932697841083 3.110025348574316 1.8481254073925333 -0.6941220060039336 1.4135891756408752
P 5.821067283054988 0.5052490788741936 7.07073530836555 0.07612470817872051 -0.2909964273530731 -1.6032597129592518
P 7.102629897462877 7.083310559509955 13.370151632584365 -0.8547851003463666 -1.0009577143821087 -0.44629080118442493
P 1.1295484595615584 2.221072441822712 3.0018389172458466 0.5672771457625263 -0.09020278353834144 0.454298759090566
P 3.9091786967948416 4.637152940872537 0.34190947398513233 0.0040836831510703865 -0.8903239166829247 -0.4189697447719688
P 4.658473077312876 6.3716684147132705 10.865876866813135 -0.5051796051008332 0.47256670416181845 -0.2555910512705856
P 2.581942040636979 1.230453845603724 11.259449749555225 1.794227371822497 0.1421308398662004 -1.800125739584803
P 5.377708950322269 6.317302532092378 6.746571521057888 -0.6177579281208974 0.8939964804385054 -0.284741961802929
Ni 3.816592910044541 6.581519604905177 4.810755246096127 -0.07493428741504514 0.42296601041555537 -0.12969878475043467
Ni 4.469281294758488 0.5240212217059058 2.4533214078263197 0.7770691364211262 0.03821584894808902 -0.4461365349947478
Ni 4.5499367389000955 2.593099981969134 1.376769912478681 1.4153488386444593 1.0381361232046185 -1.2098318212121293
Ni 8.631798304218263 5.660659080600979 12.307152522526149 -0.27994505463491787 -0.14013694936462315 -0.7117633732347807
Ni 4.412514453952696 6.877907656187748 2.0752207463176258 1.0154741628307284 -0.8576958462352584 -0.3249095351607501
Ni 4.572131643051213 7.890711850518378 8.04025711309163 0.5941181772147703 -0.2112420928415652 -0.6433907981976532
Ni 0.3956955903466471 0.3198178668722026 7.117017034493328 0.7670210081565049 -1.26087978892788 -0.34750927483813704
Ni 1.9032898057839893 4.868594142649596 11.447246556792106 -0.9491980653113138 0.9947780679339577 0.7483745966999111
Ni 1.5084252447625812 0.057998029828515055 12.435414872816969 -0.6210491972776595 -0.5026244427791473 0.8946158591900594
Ni 6.128771478340813 7.649769182435955 9.895469127128903 -0.016379726909604046 -0.8977934855870925 -0.027081943818456584
Ni 7.515166627449892 4.6472686057833394 3.8328701036926414 -0.24069947887073387 -0.8028480451574432 -0.7093552780139203
Ni 7.7675371120092835 4.017352099668043 8.218248146532273 0.09390362942869634 -0.14695345806582433 0.0320004641659965
Ni 7.176035936852401 6.4027878107222165 7.972237409351025 -0.6003569590356306 -0.6598345455759733 -0.38924470690371027
Ni 7.950410093759223 8.553906753801135 8.409913474379477 -0.8414091932600929 -0.24637698887148535 -1.4704547784796675
Ni 2.670554148530874 8.06514425446326 3.034268603613064 -0.16622696158345565 0.4653146505850954 -0.3003871245393536
Ni 6.2198682987748946 0.5930766876402312 9.066440600377422 -1.2013484663314664 2.117062798063038 1.1239551758529676
Ni 0.8127550555191726 4.206032050051232 7.140049482197318 0.6700166283152977 -0.24245914187431789 -0.408339004531
Ni 4.564119143062068 2.5717240092919362 5.421857732202066 -0.3823081276848771 0.578223874582017 -0.31852831422475464
Ni 8.703231463238799 8.525690842108812 12.41965695617165 -1.2559808089643658 -2.295972754430801 -0.07053384435450433
Ni 1.0537042378292287 2.351105731425883 5.399507417191694 0.17000056969327498 -1.3825862995014575 1.004236128023064
Ni 5.816805116974814 8.888570545449973 11.960269901044851 1.5057495971262196 -0.3344974359595014 -0.9235921918177513
Ni 0.6852958164351628 4.1029304386926455 3.984083008540059 -0.12200450142997052 0.5983270730897953 -0.6157020740331332
Ni 2.3103452785194283 6.931128895953049 10.23472451865538 -0.053547337098836814 0.18758562976488985 -0.7102387090601382
Ni 0.7720904548193247 4.553240382914203 0.4160795392156648 -1.7378927017865102 0.5476321178380891 -0.7817986806863116
P 8.139471591760943 0.38416819924728063 1.673161686177044 -0.21116495974672664 -0.2830841144845318 0.49975354898925545
P 0.3112553799500043 3.2189404427937838 12.405587155087341 0.19565709391911465 0.28408761604838173 -0.6042059004680755
P 7.624214798033872 9.160725669936106 10.507266774383728 1.4682572566077168 0.20770965420827453 1.2039396240974105
P 0.7893485050282333 7.286033323462969 2.451236854983615 0.5274967805407949 -0.07495614179191606 1.493331940188157
P 3.5663628145647115 8.467407116868374 0.7906625178022952 -0.06376695794431599 0.2184571225327657 -0.4168812376740562
P 8.330831681513322 3.679719681426246 5.935330558161518 -0.24179219771428034 -0.35594069343494183 -0.6703434155270971
P 9.478387327461636 8.0296603259399 5.672281393303004 -0.5941852830072799 -0.47638067859126987 -0.8856925885585004
P 2.4320868869491625 8.300028690846572 8.187575440418192 -0.6591604023270841 -0.26988998439176104 0.0942540707895796
Ni 4.960668097228696 4.902002824369727 3.702155611999801 0.2970922558381658 -1.7668430662722732 -0.9229172772379137
Ni 2.475797354369623 6.509993385489877 0.4585923193555178 -1.0352595729877718 -0.2996109084949614 0.9838837896189573
Ni 7.05162349509295 6.82496559760674 2.020698522233531 -0.7676825529999037 -0.9629362408330127 0.3045595107494884
Ni 4.014271800601369 0.7104072333581712 12.970394886610237 0.1948327982456064 1.7993878329775137 1.4309050412115032
Ni 2.3506869596494466 3.851639454712511 1.7013012883456595 0.5807324999364837 -1.4315511594359347 -0.8775375635515339
Ni 2.9177597811808864 2.96713762664245 12.44127209406339 -0.144745394670912 0.35022410266613874 1.3335450778030904
Ni 7.28559593960758 2.3706391082867615 1.5576616384241035 -0.20034318654087432 0.013269206305080373 -1.1706224980025195
Ni 5.657504333218493 2.5972225574571612 7.436018761703455 0.4499474241004057 0.7828134951040712 1.5241106161319107
Ni 1.206453569794193 2.8609371041382357 10.287121243323075 -0.1943867118471233 0.374298112896207 0.26189848154585216
Ni 6.03935905105195 4.577771102973887 5.860650521967681 1.1977635771936856 -1.401795782550373 0.5888600141396246
Ni 6.262759834721435 4.7449727142456375 12.85444442654664 0.7735261562648742 -0.3221862226923161 0.7444001854331954
Ni 6.168061577010002 1.0214960352015487 4.88950760516482 -0.6078815495474499 -0.5395058891865289 -0.7760584357684248
Ni 0.40123454504297623 6.732137853830054 7.714418238678224 0.9035614984191213 0.5137789167340701 0.07790828244170453
Ni 0.5449663247553481 8.521363533752305 9.48553808819527 1.9182355339460577 0.09412294452835403 1.1347401822836134
Ni 3.4551835609406454 3.0022679256657065 3.531247405204617 -1.164665766198452 -0.8996315672370958 -0.10221163507375944
Ni 8.573002746806624 6.4346609959287475 9.88894466285203 0.6161769567870227 0.45561696368135723 0.4957475131536559
Ni 6.037581597511966 8.763283335979747 0.6249582482822911 -0.27267294645353685 0.6905931669150687 1.3419410151762696
Ni 3.3866631922762105 2.3270775374979222 9.63908029472362 0.823170301654563 0.6097990782851369 -1.1781645720158354
Ni 0.7728954272340298 9.442093773503835 3.7318204740385923 0.597666556687661 -0.3752306520128054 0.21381833820917368
Ni 2.48700182589916 8.3700473318667 5.729010079346944 -2.5360381992619616 -1.499259618526502 1.5099474372576511
Ni 8.104527413527213 3.314308735347516 10.7448052932257 -0.11561890961860088 0.8381328365016661 -0.13450006279381996
Ni 2.5848455249536033 5.601891441307769 2.98199378806251 -0.9707565082083798 0.8895739258907776 0.6691103144509444
Ni 3.419290166680327 0.5076416616235656 4.397050608154829 -0.5571752814418339 2.8119797891644414 0.20060158240858353
Ni 3.913050009217007 9.218171851623673 9.78164416648171 -0.6806396552467827 0.5974855510251065 0.6337360487167085
P 0.5089919679515853 4.860339685634066 9.158390784631488 -1.1122661695508134 -0.156948107384691 0.9254696113461223
P 7.879479460870411 4.437249906880859 1.2192289007873391 0.5204619851812005 1.726450778498156 -0.18664229201501403
P 5.99845900755335 3.2530563835141177 9.551515116270817 0.004139990310302548 -0.19458597234212294 -0.037740451973567256
P 6.177665409749605 1.8749994457758563 13.035091403653833 -0.7719349005183544 -0.37484061566323834 1.8695403827331996
P 1.4564789324055427 1.9578418091944083 7.833759819527005 0.652623886760147 2.3343891494254696 0.747024767540236
P 1.2742759854979007 7.081607554285781 12.37859126517037 -0.6057899571257438 -0.3926768725137108 -1.1385636697947616
P 5.972243894348447 2.7311085474035446 3.2007089808556484 -1.0889254379423439 0.36841979973855904 1.6533833690885202
P 2.9007762591365305 4.575733080328564 5.000227140438753 0.38887986736512375 -1.0211683850020286 0.46751680044273675
