# total energy = -340857.6664062021 ev
CRYSTAL
PRIMVEC
9.44896279377051 0.00000000000000 0.00000000000000
0.00000000000000 9.44896279377051 0.00000000000000
0.00000000000000 0.00000000000000 13.82951216447850
PRIMCOORD
 96 1
Ni 0.7018339979876991 5.390841172755482 11.537256374708555 -1.9422272688749649 -0.014559128761097506 -0.552348549477152
Ni 5.248284670511289 6.278571230808243 11.727052966630607 -0.9783212079295152 -0.9561917230203274 -0.7212587143197255
Ni 7.716221476712125 7.633174542382952 8.019084357880152 -1.3123712719389526 -0.005042704630230026 -1.3927976928168206
Ni 7.785539068046612 5.463541492783773 1.6022322805091282 -0.7155506081913547 1.482204205706112 1.423129768141459
Ni 2.2617698861725954 8.704762519217946 7.515952599283528 -0.3149369973290705 -0.7439756963012671 0.4171810283026621
Ni 7.5559292712325385 0.7790093468131566 2.2140913646193394 0.949948570324093 -0.40510224276125717 -0.04015600339359535
Ni 5.333703294511256 7.6580631104820585 4.397425410324708 -0.3082575284263659 -0.47601326794952215 0.06196461462825457
Ni 9.115008138488587 7.26266181182026 3.652761153612777 -0.7954376116259849 -0.6043992474258042 -0.014658630453439271
Ni 7.876239662269586 1.3699956720278004 6.1139164391891905 -0.40389510982703347 0.1928041978513518 -1.3790019245843088
Ni 2.4418293218964213 5.903163937498651 4.023323018782194 0.017135631239022103 -0.1547845240744689 -0.2926486182445154
Ni 2.039114526002768 5.510833551757207 9.258622924569949 0.8266634024094861 0.6269025707346428 0.7135788291769646
Ni 1.6581323446223815 4.4161712076868245 13.557596756460711 1.0588648711115376 -0.6426166390357901 -0.431732957974908
Ni 3.4192016903349898 7.4114546295334796 5.764223553330209 0.3130662626689189 -0.057677300106810346 0.29927023732609104
Ni 6.984474897087623 3.2808216296624755 0.6369914354503784 -0.5331619492463722 -0.7677622571979036 0.10600606911918517
Ni 3.3886059486854436 0.5548204199757193 1.2537753189885523 -0.1661752824099138 -0.07212869964544996 -1.768746196832257
Ni 7.86856710445012 4.869957647686653 6.420917966077571 -0.16031830940850456 -0.6717840046283656 2.2082850240048293
Ni 7.840390297285529 0.6871191281696516 12.315540041176225 -1.6006405301688498 -0.7914202629364757 0.25549386357108905
Ni 5.355076848436912 1.6359367309303545 13.064878699801074 -0.5262392539846099 1.4057815066709982 0.13461576243607784
Ni 0.5788018876429668 6.289040681625939 7.671354966497629 -1.5767146154808718 1.4078538158189948 -2.3284375598277256
Ni 3.8854418633472023 0.40917410688550887 6.274629123514794 1.7670289570308342 -0.7676666121603037 -0.8240516758182518
Ni 0.42905850426886416 3.2522196191704507 4.372504715751973 1.9962111792905881 -0.91234464392839 0.12356798926234848
Ni 5.98522817969331 6.011798663176487 9.33528047023222 0.5006148685482863 -0.3198994835406684 -0.10395638567900806
Ni 6.203055119856059 3.237526481966917 5.59894701995682 1.103673028565164 -0.24866629912629434 0.9936164435256887
Ni 0.37958562467383866 1.84075244927364 12.484744508398817 2.7890792304171836 0.01875311223778706 0.8464835224592068
P 5.773023372415515 3.4438823812517945 11.695978162565485 0.11337793610322408 0.06442747434645033 -0.014229256225504527
P 3.9295968666604604 6.62598124724705 8.759681780989252 0.10694220778020937 -0.05197767861887178 0.07136019691054162
P 1.8403650417975337 7.501644979763533 13.664319012061378 0.6283812121626984 -1.2228225770448424 -0.5770355107008707
P 5.751838797746497 -0.17207317233834196 12.032464233074384 -0.45730206469326395 0.1849070544914622 -1.0738078655746153
P 2.507981510682237 2.0240717771744556 13.646630553640145 0.09908003142331323 0.8152227646727122 -0.551802961386327
P 7.958199965873096 0.20893168655284128 8.673510074651587 -0.858436838166341 -2.059083907555409 1.1217411989207842
P 0.07023697541802652 7.759063074191754 5.752551249544018 0.7735482677520613 -0.004039460176696269 0.9951850735643891
P 0.41718210288550583 4.989846088097227 2.9680902517128596 -0.8855133826681587 0.6652503172749059 -0.755488324926557
Ni 9.148844874389459 4.031040931623253 0.6041156590695059 0.4352962498461342 -1.3316555740898615 0.15352031265006463
Ni 7.579476086609522 6.996777446694697 5.508930530642871 -1.5776471545974702 -0.8126146376259037 0.9437918066940779
Ni 1.3838478515392993 3.314677263489011 8.675141910532647 -0.6431393443084795 -0.729891193183743 -0.19749106180405987
Ni 3.8959207631277297 4.029604689272812 10.130574159589795 1.839828971711696 0.520259125141775 -0.2696719548436839
Ni 4.902197508868942 0.35506556612517537 3.035467026081683 2.0603324352505292 -0.3233622452782882 0.23074313898897034
Ni 3.884175702327734 2.7211784590573775 5.819168327301161 -1.1009612860609554 -0.7743327113265697 0.5321337650921739
Ni 4.429872203793014 4.773587675764565 5.011925479546422 -0.3781637664992003 2.9006604796313016 -0.4882386063711204
Ni 2.959320669308615 5.749410414298709 1.1295403556753247 -0.9569836227940035 0.4562276006821626 -3.372724018904456
Ni 2.9462244068236645 1.3153712178968475 3.3358996340093574 -0.7643599163845739 1.8814075664844307 0.7606958372694254
Ni 0.439016766197356 5.454687814610326 5.335978604761167 -0.9969547638703025 1.0182614957678786 -0.6169138349530472
Ni 7.949865980655399 4.486452593230161 4.167772148281609 0.13879663328664482 5.508579524193965 0.465597729043153
Ni 6.922603088464638 7.726303520053714 12.966190897296332 0.8569355710304661 -1.5182456727107014 -1.1525101046725248
Ni 2.8674389547316586 5.770736723410206 11.673698453104256 1.0901626527835548 0.9799309756187963 0.3993185461999445
Ni 4.634073739552229 7.806185051834215 1.7292698061982836 -0.11055974992813863 -0.4514186093292935 -0.5438731650162891
Ni 5.039661020146767 3.1184506523598823 3.6188233138096044 -0.038828285721107324 -1.8096761022773993 -2.0924851087236735
Ni 7.309764891537057 8.814020876442683 4.217158097418581 0.7053214742641789 2.230317578324837 -0.6873458636223647
Ni 7.406654556414897 8.558520921469327 10.456065416947549 -0.5525686359077581 -0.9364214823719357 0.3781555389690842
Ni 9.305612616732763 7.117015498730051 9.50383484881198 -0.9328777308847352 -0.42542372792742866 3.1757011549860663
Ni 4.848971501237104 2.6197816389087434 8.289920924425891 1.9448343674805089 0.40455151246410975 0.2142104314412698
Ni 4.02720465271352 8.072929272577477 12.698770130814312 -0.8124585716640137 0.04921425694112169 0.9258316226712312
Ni 3.69526258843046 3.335219308685464 1.5041671646550063 -0.5252627490039535 -0.765627727353404 0.060690633011837414
Ni 2.1356923751071566 3.4046786344624285 11.305515836775898 -0.8896852546576614 -0.5716079119273962 0.7934856301059366
Ni 9.240102957419513 6.527787625498415 13.633423738290064 -0.10229776702966252 -1.2332026347275857 1.0596665410772268
Ni 1.3219949408419778 8.831425865978959 3.0490754223521206 -0.044803786578251875 2.2248930648751553 0.6288105863906333
P 7.581224144733414 7.757863055912109 1.2763044810685438 0.5864624604417253 -0.7751433801533231 0.8002908259532282
P 2.682088099821994 3.545704404727862 4.085653102102525 1.293348965200179 -0.1320261473320307 -0.510407686268992
P 5.163414086355568 6.07570199880832 13.98924333164922 -1.230083886592946 0.5224062533917648 0.6675964489095793
P 6.269065574199398 5.7174634709642085 3.9462232616593917 -1.0161315939090694 0.04781069172537572 -0.1900207215689437
P 0.5540219826164275 2.423592823630942 6.488668919374535 -0.5319699858207999 0.2041183373125904 1.5974091677157458
P 3.250925111262487 3.9536255791418666 7.882323849437018 0.5208126836523997 0.4178875674513835 -0.34911492876236006
P 9.880874922898915 2.4574579064203093 10.436206531763839 -1.6156963960607078 -0.09068795070487608 -0.5036729386483196
P 6.0365454968331145 1.1277620608703698 4.719390314753612 0.03289289407327883 0.8733926881452249 1.125797885488661
Ni 9.035570707961183 4.545735386037218 8.809385215277375 -1.9326005444184782 0.8839010438757163 0.9484295625764051
Ni 6.922168436174372 5.356172928125408 12.906834402579186 0.8970211261974422 -3.263323579391741 1.7187333552492399
Ni 6.827669358892992 2.6217564721406013 9.958258148906674 -1.1744899513777256 -0.4374588047150917 0.3810549720040663
Ni 1.2458363004172277 6.857839897215104 2.06232590319922 -0.31287548681435146 -0.8751400098536348 -1.7438890285792612
Ni 7.911011845490812 2.912708935659075 12.124955405753997 -0.8308645849750271 2.429381383932655 -0.16686099562302875
Ni 0.9871614939323698 1.6346894678365496 1.8478023204424867 -0.14362953589891392 1.2395139216575943 0.6569333127687783
Ni 5.791344911346481 0.46027787746531257 8.49602264661059 0.24343924639940012 -0.7574009685682375 -0.1259506305619121
Ni 2.2687337717796727 0.5491397035212081 11.777793897037666 0.4735673775121908 -0.3368955038780327 -0.04315056724554504
Ni 9.264481281525699 8.402471300301245 12.436424402269276 1.1968508355714294 -0.008044467571031307 -1.7630877129948992
Ni 5.178362345555564 4.947004490617597 7.207042381903113 0.02261105253129654 0.13214184697428855 0.7681216974198514
Ni 4.012917820911756 3.7633896104481335 12.901469281483259 -0.14489323310268595 0.5840610500890845 0.09689176552274281
Ni 1.874787613393981 7.839256421745707 10.260281017278949 2.334160835464748 -0.5001654397156934 0.27627943285787254
Ni 2.2344907304770305 5.435289093916528 6.586554504934853 3.0464106614176436 -0.9578415999189246 0.10126649755167076
Ni 1.708419724813513 1.036428386137661 5.218013028286875 -0.5825633824976354 -0.27818693429323055 1.2748385651008174
Ni 7.7386533144749485 2.6361755894220114 3.544144380964323 -1.4936397012365632 -4.236251384219827 -1.1167789698195025
Ni 2.76591929806621 1.7501179977904882 7.861206362404105 -0.4217439650829963 -1.514168417317534 -1.1142209792843392
Ni 0.16094323901870017 0.4048786083821477 7.36176725848217 1.8611763270392205 -1.7405211405482928 -1.0033249290627044
Ni 4.467677504083266 1.2228847696986525 10.482244713369484 0.04039228777411753 0.08313816338207618 0.16303005191271278
Ni 4.906742459991064 8.051319494581024 10.22085333007047 -0.7777257961685186 1.0419303001397282 -0.3923750250025759
Ni 8.419186515550797 2.098170543701861 8.333069613197555 1.0866654382635736 3.511939999116706 -0.12532405272150673
Ni 0.26818613247140294 0.005989697539112777 10.211365626491004 -0.5322024135465802 1.81158077549928 -0.21054455255390836
Ni 0.9525310451536219 9.281933515876133 0.5084902654185687 0.10340025606522192 -0.14043622577259685 -0.24234601333522135
Ni 4.455365505513359 5.537564667608524 2.4944288632925073 3.16572373205838 -0.7008148446430769 2.5997853597119356
Ni 6.3038094105321285 -0.12862022696349115 0.5428967737782017 -1.8448973873735386 1.0007574254458442 0.6071608693313414
P 8.067694547168628 6.313022149293187 11.510732191143257 1.5328968469649729 1.8284994056314896 -1.3365455551923109
P 3.239898171637712 8.127544277745598 3.630178132444644 0.5219164582395399 -0.28975561296743646 0.02074288897430621
P 2.7349172510148945 0.2875347736621921 9.402575038624407 -0.06510110337470723 -0.5580926510497808 1.410769703914209
P 5.5908851648686815 1.979831733195711 1.6352157750662841 -0.7406828844826083 -0.3016803894294804 -0.24819347325493385
P 5.58364725933948 8.466544717264053 6.825901457947152 -0.007924911274031513 -0.6538788422131706 -1.0072818568279234
P 8.703222338276353 1.432443867383529 0.4372753223474452 -0.6953494506531315 0.8952717476065034 0.25686477577668665
P 9.32297036145488 1.150137204856202 3.8991759308233034 -0.12864154713051396 -1.2938151062033203 -0.5625365457537473
P 6.972881019692937 3.9121068364586966 8.277986884369257 -0.8881127679642188 0.9290249327975484 -0.9667913529130447
