# total energy = -340861.1835336221 ev
CRYSTAL
PRIMVEC
9.34472527063915 0.00000000000000 0.00000000000000
0.00000000000000 9.34472527063915 0.00000000000000
0.00000000000000 0.00000000000000 13.67695001288761
PRIMCOORD
 96 1
Ni 8.41728905646559 3.292286779981498 9.762100575929567 0.0030133329050270686 1.4444462702310479 1.1273264063180457
Ni 5.633514175512669 4.088092903677635 8.804851245655021 0.19735556466746013 -0.144735367368583 1.2414443059110878
Ni 2.304568039449632 6.915255342694942 7.286422211913672 -0.7049460932026311 -0.9561143328151727 -0.24064368593213392
Ni 4.547460894056502 0.7754271474680917 2.4731347298773807 -1.14460267689999 1.5472040076162645 -1.8530786376327504
Ni 7.828496625166683 2.308810544588816 1.0249789624293733 0.17111668557558918 -0.37757678364747876 -0.16982290646483011
Ni 3.4117310546269817 8.025903940288405 9.333834633688909 -0.9477680177330065 0.01432361571152372 1.0385876089197403
Ni 4.005448155988333 5.848452194689696 8.458290906243558 1.053780514610095 0.18263291374530483 -0.8936180140531642
Ni 3.1700203983932096 3.4545298950178682 8.506091977914192 2.223083522470242 0.08291602006894107 0.11495170834824718
Ni 6.089022794476375 6.591096177996366 10.064237961749285 -0.7818786419946278 -1.6780096522776327 -2.352034373311059
Ni 2.2878222922923244 0.2692364781235966 11.585757296040256 0.12205026706624142 -0.12521966593315853 -1.4877115086775863
Ni 2.0467564220819083 2.3250703660473624 6.862190387445227 1.595182592378072 -1.4932704908226027 -0.5302401476138867
Ni 7.841112003884522 0.006269375986516575 8.22118719942304 0.2496975686042861 0.34747096540103384 0.09967652735673156
Ni 9.08297922959345 6.313950324652935 9.13921111213759 0.08574757598046523 -1.730240327447575 1.1784841601387834
Ni 2.485220262689069 6.808108726118105 12.280163809019905 -0.35503617934280146 -0.7485468606117173 1.708406262291619
Ni 4.217554723497579 8.907214297516552 12.77797693242326 -1.8767626115132519 0.8405008225132106 3.309318043843984
Ni 2.5719112762930556 9.388738630813933 7.727913743413114 -1.4539115294090057 0.6329238372280583 0.14453070755694464
Ni 3.2968656952198243 4.266782734672075 3.8169631842738645 2.7495012110142456 -1.1597415894239576 -1.8320760672391545
Ni 8.73537414992965 3.7542339144537897 3.9508880447424306 1.804436708255331 -1.0959522628821383 0.03427691890499903
Ni 5.43600406841621 8.782135153710435 8.515036748661387 -0.5179633871290629 1.7145977358143114 0.7935879600117559
Ni 0.7782380407409254 0.6475455206416187 2.9337334205356096 0.7915642447135077 0.1542556481541924 1.2713914870924814
Ni 7.735441853853922 7.9211682627554225 10.415776236155558 1.8872856225317627 1.5333593884236882 -0.168972899759709
Ni 1.2910017896336627 8.415663074319735 5.3823989880628735 1.6500571329287648 1.169761692664121 1.0789567567654064
Ni 6.407201335190196 7.098682949252304 5.388896375338808 0.183584993245929 0.5073007652088941 -0.35019762030357754
Ni 7.273709648056082 8.05741435290807 12.761729259107181 -0.32608427219514163 0.9559132725479603 0.26916030531458807
P 8.002252441373702 5.766470922473704 11.118251919152137 -0.9417639776307716 0.06250274651991172 -0.27673220412457505
P 7.504225323768395 0.9468822923859763 12.59860400203306 -0.7506340821580492 -0.20038689529461617 -0.11548752624705917
P 6.972304888674496 1.3730017512996084 4.21571474714977 0.3861465275943608 0.21465600361912063 0.6306124154860624
P 2.9208246174535204 8.909961646659548 3.563200636238318 -0.8781222324104102 -0.6210633383450466 0.4696065930922299
P 4.251681659110575 6.065660982035935 6.007983470537981 0.4157463527386646 -1.2481939659300956 0.5574537319142012
P 6.748470691320149 7.332076800257279 8.078112918730302 2.0378648502756325 -0.9331700653141736 -0.4571359714290449
P 2.9477187359349553 0.7077629283880977 0.7694100790559318 -0.01672091229910669 -1.2328285392176188 -1.1146264422528738
P 9.08314743464302 6.844310190675812 4.937720905346556 -0.4926395636522935 0.09884066171899752 0.22740044776898258
Ni 6.4548781220186475 5.455319614941967 6.984790375715166 -0.36260910659405293 -0.051393009759995355 0.1427147373941284
Ni 2.966716561811521 6.654621618384413 4.333500333111982 0.7140783945212025 0.35067635971220895 0.3642091040913211
Ni 1.7719560947074966 4.020530542099881 0.37708955590863114 -2.4725982856397613 -0.0998251371194539 0.011501315771380192
Ni 1.0265086939079733 7.552275899595893 3.3914324430337315 -0.2583763273252066 -0.6010200465409262 -2.925407347558678
Ni 1.7683957544915734 3.948594849233277 5.229313703503156 -1.760342546149594 0.6268992283005332 1.4106506618378414
Ni 0.010844553334852415 1.941310545450737 11.938212287966692 0.26772357286806153 0.19352899183251832 0.3288790613314594
Ni 8.226619288051692 8.931547961354516 5.176150628641192 0.3344285303947789 -0.02224132789670363 -0.614932028636328
Ni 7.79744410407085 1.6112174803922905 6.367549798171286 -0.9323689095691168 -0.34310934599822845 -0.42967916076967283
Ni 2.1598182495686635 5.066326748358682 9.856882252417929 -1.2919281735932524 0.5280698794354454 -0.8780759525535071
Ni 2.549044734276352 2.2438647060043917 12.762331059395647 -0.020688124476970823 -0.9258884440510957 0.5192157714789251
Ni 5.7502578246400375 1.868533827336277 7.970515886409613 0.10557952310472783 -0.13871075844105787 -0.22639926019797785
Ni 9.070055474951399 5.222458413260633 6.360096445530288 -0.5181513347701528 -1.4276495103886833 -0.004305569353889359
Ni 4.942742760548753 2.042336367168177 4.531214155212921 0.4983474126703482 0.3287952433684015 0.6274597287896936
Ni 5.737334069997986 8.969478200032814 11.230348436548852 1.4516214478232485 1.3605761137789534 -1.8881885939620062
Ni 4.2286469120443 8.143955850912437 6.505318144022553 -1.6170253992847763 -1.641242105740296 -0.08106431157218298
Ni 7.582076227544918 5.6649591750575015 3.7866685203735995 1.2327406074895026 0.7803822599547593 -0.2604321814129708
Ni 9.240578016316661 7.419235050110073 7.202295390843149 -1.080801523283629 1.2896522330748823 -1.1706078427145001
Ni 6.681618528840585 3.5099254246766405 2.806770380174295 0.06481365404127547 -0.6170585880610275 0.8681710347349694
Ni 0.6447738752136849 8.136386623681735 12.293608064843129 -2.248909482394411 0.1126423434887802 -0.9434997293749557
Ni -0.06246668304824467 2.717474057246951 7.5946187174079425 1.325632507824233 0.4553313141201384 0.021445828578601774
Ni 5.847741995591507 1.1130128130124357 0.5695301497055145 -0.06329721739674907 0.8211262746413407 -1.601646345725545
Ni 0.6878792225837902 1.5327311353173874 0.7451829450826976 0.6916452623286669 1.1486740187558862 -0.4625188330075131
Ni 6.516142138962459 8.514277956993322 1.3776516864477537 -1.5657059230751937 -0.7342854655966967 0.23389376880281013
Ni 5.417585615488167 5.244867063753503 4.236243238977433 -1.5579550754851814 -0.5623665958347863 -0.007075675899858782
P 4.361743829879977 4.990027068928203 10.448026750993337 0.29718661532418494 -0.3242986410496286 0.5150233306641323
P 4.155459026030888 1.0066324638836466 6.726911476327614 0.8912577413511038 1.9191050810352046 -1.2162734630724152
P 0.5083007082441157 0.23522261368281305 6.985515526373317 -1.0661071544962477 1.3779480293984978 0.08848631506786696
P 8.375929303721033 0.21890952729190233 1.8726894265331824 -0.18298464065776873 0.75022759074825 -0.8710491276137128
P 4.920577072905262 7.0241307333923695 -0.001514779918638153 -0.0034733032605811153 -0.13409074317054326 0.29254834522122525
P 1.5308902244970806 4.502531456371046 7.414657069344244 0.41335239858519135 0.13621267460955253 0.5913305871673041
P 1.622646079038154 7.1064110368076 10.344355437635143 0.08195879836199432 -0.37464161227855475 0.3562037172883414
P 4.488663884506401 1.5080890955552109 11.788956471702212 0.1099560549058687 0.1524355642263181 -0.9806611689166014
Ni 1.2290275735916625 8.623162692415727 0.7734825102005494 0.36173107486447376 -0.6940829252358821 1.2197943317414799
Ni 3.293464215328496 5.479587865705096 1.1510981741253392 2.3474025309660025 0.24272550816182714 0.254516073038852
Ni 1.4358543714893692 2.4012859429530553 9.485005184101007 0.8182337835848941 -0.05459788985053823 0.9685217053405902
Ni 5.124105182886379 8.707704419275192 3.9169283797065093 0.29814126592797036 -1.333276397522736 1.808425774810066
Ni 6.945307978218324 3.2860912273222933 11.844169779223947 0.45335439289942575 0.39162503421042877 0.678252900182161
Ni 5.968756184032989 -0.061122911596670534 5.922269915166503 1.9049156769087 3.063566090151008 1.2939979116380875
Ni 4.3597253692851226 7.203437316235237 11.327482180313716 -0.1418511038422525 -1.1660719025173596 -0.5537395162874076
Ni 4.5641412281389755 3.6114745509927464 6.423092040012183 -0.726872203851761 0.6656673502076665 -0.2770042268390391
Ni 0.6141446701592723 1.8565912688167239 5.101871278750563 -2.173681832108663 -0.7354884847658624 0.22743027256565349
Ni 2.809229911788025 4.338428741064417 11.919229413650086 1.75005350551876 -0.006657100305201438 0.1361208862266946
Ni 2.679095271769796 1.6156468800309982 4.310878622889655 0.7517219159055892 0.0420925582946759 -0.6906289052490105
Ni 6.660536829294332 4.283332242604883 0.4269969285888951 -0.03683850898458817 0.4520559858029763 0.5439937497545535
Ni 0.5730493731315425 8.60106241784707 9.365933763982072 0.40708687729145376 0.49937251150075285 -0.41732089631463615
Ni 8.27836103024478 6.157519628551746 13.354693175635454 0.44942137639360663 0.10581760725746293 -1.4403792992505258
Ni 3.139547250245899 2.53099072562238 1.7276863946053598 0.18160215848794534 2.198741603290768 0.5338751732633128
Ni 8.407215442941272 7.411768614854108 1.9369839377867673 0.8966259476415526 -0.10108677744069687 0.4293711426109509
Ni 6.75118066156324 3.504113005741459 5.48530496844552 0.8160660865096138 0.238552350620744 -0.5942906982368926
Ni 0.6255284141252502 5.162231660789177 11.838056460144534 -0.3605941330465532 -0.12082642196146934 0.08962402821673598
Ni 4.865181543246491 3.0292888402519966 13.263522300877888 -0.6895770669457284 0.9586203870664782 0.08154022276733698
Ni 8.623648618114487 5.240437664114796 1.5957173850743074 1.1631341600452743 -2.857345876004066 1.4365786945575132
Ni 6.887417406990912 1.5950324167335537 10.278377941413346 0.2037658390691781 -1.5105547318243469 -0.185932410432183
Ni 4.014662054814843 7.668767241148905 1.9661983514797867 0.18466614212524973 -0.033477305821839116 -0.23271697488588955
Ni 1.430051297279164 5.111957040417351 2.991778179725128 -1.434159543593059 0.5002775398135255 -0.9639556832364626
Ni 5.948309925785115 5.759051210842619 12.288397446196415 0.428229829917656 -0.9757061389041712 0.07272288158602315
P 3.38712639376471 1.2083850761192896 9.68481222459661 0.15702961135490376 -0.11442900307555776 0.22048340893417512
P 4.882917831251273 4.1197995555218005 1.9489928438536512 -0.7303159394259874 -0.5051780624389365 -0.26591197358061947
P 1.122843463687373 2.953344260370613 2.678781289010596 0.03367913742000006 -0.3289587655294593 0.4112785467752981
P 6.128149157951625 7.103271209215605 3.010966637991208 0.17371298554785566 -0.46281990918769966 0.0646025664717339
P 8.85788349436732 3.8402988314843722 13.312335406263443 -0.17612030943776766 -0.09912656839053251 0.36420499032626313
P 9.171473775117837 1.1739777987570088 9.87151609173062 -2.092327757210203 -0.08672356674048935 0.2828051497915323
P 1.5581487872525863 6.497275139235559 0.6613663688813832 -1.993237955594877 -0.1130694037238698 0.28650085347556464
P 7.565750993011539 3.823543739602088 7.878497445096709 -1.1203797997968834 -0.15265487932597582 -1.0454712234134511
