# total energy = -340888.1427452396 ev
CRYSTAL
PRIMVEC
9.11461938080448 0.00000000000000 0.00000000000000
0.00000000000000 9.11461938080448 0.00000000000000
0.00000000000000 0.00000000000000 13.34016678365289
PRIMCOORD
 96 1
Ni 6.723015999357958 2.114764819734919 11.692389301024361 -0.372802502187287 0.6263760088072116 -0.32213171530529683
Ni 4.7191214069201814 0.6241654732996839 5.8360824363001775 0.09657243451011109 -0.6861937522957925 -0.7553520564590088
Ni 2.7647191964475044 1.8750503361838808 4.6015574033219035 0.37907033747386976 -0.6863220503435407 -0.28738377030115025
Ni 3.3306367846300295 4.235864299776605 4.606079165880446 0.17031347294800345 0.932927096065432 -0.5882545193451418
Ni 3.6984936987606902 2.6301145008930655 2.4753610282535345 0.13514540968730274 1.0306243882086057 -0.3368127143562393
Ni 5.147809289234097 4.7386449211318284 2.6498102814065807 -0.8104333137038688 -0.4026702362809968 -0.5638940882229062
Ni 5.180065926393303 4.720543287507024 11.477305252792716 0.633441143184109 0.11539445231262062 0.6435815740522206
Ni 5.5825401640420935 8.001633002457075 12.381929380151796 -0.11480052748236358 0.5136200225587025 -0.16381320993564044
Ni 2.004322979537659 6.712525072720421 0.4937872266434437 -0.32159306919300745 -0.4448759231147693 -2.102294381504612
Ni 3.092471786333884 2.1636374075980624 0.08228678165394579 -0.9820745043243602 -0.3475442418411305 0.17239863761180632
Ni 8.317263148878705 8.592251208526418 6.5364278964257005 0.5072380302917586 0.4458184895336967 0.13102470265070984
Ni 8.653382959141506 2.347925892119676 0.9845967072117496 0.4920073293849333 0.6695011221314598 1.0490697393979869
Ni 7.325601700366561 0.6221228871489695 4.8493775176798595 -1.8182903263089718 0.356279050610967 -1.691508458095016
Ni 0.792260925445755 7.48898124856627 2.4191994794589937 -0.49676875532931863 0.42355042216411576 0.45146463207588056
Ni 7.746031737733814 3.6400781046512374 3.9650972202556036 -0.7763096325472824 0.2776585725935863 -1.021103078981732
Ni 7.734137159747726 4.2112639427003975 12.826463027851776 0.08219071186714232 -0.16429272067522027 -0.8274681576989684
Ni 8.291213567358218 7.724111078686656 8.605901262160108 -1.1099629753389335 -2.10912965925889 2.2213930221416973
Ni 7.413038241838238 0.36633659565703586 13.258004697420438 -0.7227360701962005 0.271307690674894 0.2087913173082275
Ni 2.20915581561532 6.139261101505874 9.157197178307936 -0.9924579044412132 0.9763224323319313 -1.2108414934235663
Ni 0.14628052268101197 5.072486076608022 1.2025172249217655 -0.3311724853513264 -0.3752633050229537 0.6245574675412341
Ni 6.782561806241568 2.05924767451403 6.696363030049976 -1.0317397327599713 0.3271075712533334 0.5036973641283519
Ni 3.3448829343558955 4.5696963406336515 0.4562586937699439 0.9458188644264356 0.5821715463758553 -0.8480683504478232
Ni 5.757832519466184 5.380870100808243 4.870201688043702 0.2507774319320262 1.6592007471012458 0.3234995421871009
Ni 5.6936017983413105 2.996057345002976 9.157784159780965 -0.9645760904292807 0.05156038857579508 0.3492853929019533
P 0.3932894359349361 5.765935415887358 12.441572713460273 -0.41441554974238304 0.006218212995569936 0.07646743623011991
P 4.050308883193638 6.264760292533032 12.548667665506965 0.2161798964628148 0.7140177164865962 1.319286253891231
P 2.5417118097918676 8.627388065335897 1.465337268008997 -1.720812349265456 1.0188610770250903 -0.8910595092973685
P 6.337093910079079 7.900843543935882 5.82805154537026 0.23016669766021006 -0.6008611523655587 -1.478957159523724
P 4.817796273799403 1.3296770995574023 12.527550004406606 0.7153464626003486 -0.4575730589664635 -0.8504360793490515
P 4.40994441085422 6.32994804866828 8.22313191964398 -0.019565323726437274 1.014463462178027 -0.06478665745808197
P 4.845650549910885 1.1221827946889846 3.53911911421392 0.8997200131858439 0.883784315792194 0.47237515697630256
P 0.06183448775127755 5.625688771081281 3.4999663562085273 1.120578546071251 -0.5719616957223892 0.11587524860378108
Ni 0.5793780577379695 9.05034285220671 4.413901067025684 0.9771130465540269 -0.1626608414987521 0.33786840931426326
Ni 1.821647782604963 6.579606581708071 4.8108372620811055 1.3443640227954652 0.605588382637899 -1.432955495982629
Ni 6.443862558760329 6.212843421874982 9.346920710226565 -0.8562069203945577 -0.7885228867840226 -1.0787664951314713
Ni 8.697160474901796 2.4898405122295495 10.17207720763369 0.8843764408502383 1.323255522951624 -0.04926773588687644
Ni 3.0247957391716613 5.253311005853993 6.862674751229091 -0.7137693479212159 -0.11791259074878403 0.2195184739177445
Ni 0.7243178199425419 0.10289220115827402 8.586851708144074 0.7212723411664803 2.000480496089903 -0.04884401808589652
Ni 1.8483627313231414 1.365634272090058 11.45890921696948 0.46153332916579226 -0.7227730940817231 -0.9900153564379917
Ni 4.141801430185475 7.248893065630229 1.559132167797222 1.1328054271547459 -1.7896266398256921 0.1830355485003622
Ni 6.030149995703994 8.47552939573727 7.87323262815561 -0.887283330084388 -0.7919272844798813 0.24882956417703597
Ni 5.40220742423003 3.073595410081633 4.782610198046536 0.1980029684434719 -1.6345047870164622 -0.3116920080292116
Ni 1.349528740058321 7.498196128523309 7.168191316245847 0.041274947489386975 -0.4783876817189696 -0.36767392271147004
Ni 5.470676443257991 4.559907239670388 7.32208345737604 -0.4251810157890032 -0.10952359535414041 0.23930979761205884
Ni 0.6770940666829872 7.226635165674653 10.926450484211575 0.4972037859842082 0.8893558963427006 -0.33555364513815755
Ni 4.774082560373138 0.5037604429134644 10.356811397031562 -0.6586505525702011 -0.680344492603867 0.16728805585811835
Ni 8.074486153294467 7.257624870772506 4.3479203390246965 -0.10317605586955779 0.4541604337404888 1.3637889642892964
Ni 7.2664660513445405 6.143162158500545 6.952267811590813 0.32256983128398 0.5536312728443175 -0.1808251711126047
Ni 2.2914517118884126 5.482343155765419 2.428883762302073 -0.20989354923347078 -0.8375659082546028 1.5319329403898068
Ni 2.5236648638819412 5.311580766057103 11.31562284667807 -1.3035014802531488 -0.7831883619449868 1.3800977287516487
Ni 1.0406798702816313 3.5163927228342184 3.8015609006065754 0.29390151681501 1.0071265621969816 -0.8791617294185182
Ni 1.5342638409181097 1.3731994059815926 2.506857506175929 -0.05002441154724288 -0.027687695723255537 -1.1939442034475953
Ni 1.065243768881253 3.4522713771391023 8.091318120472176 -0.1725423622785222 0.6053634111112863 -0.8497619361001623
Ni 3.838093205607371 2.847306760533282 6.735196776385243 0.599359885229684 -0.28222665158024296 0.7188213085228266
Ni 4.1464772298075925 7.231073985198963 5.772610051488288 0.5391585331494393 -0.13558352566598586 0.06230374313522819
Ni 0.7438577404686528 8.946891924894759 0.13371146287808872 0.9124891399260544 0.12417914048378616 0.22612878014541057
P 0.3663994865291463 5.805073590502118 8.001005005197886 -1.1935551955392927 -0.7528346893537937 1.0897399634238394
P 8.63041411889251 1.6438944800113375 7.590208208806493 0.6449949094599795 -0.3208345937604281 1.7757025735454322
P 1.914471063992179 3.470445927717078 10.071278634493348 0.5886255295313153 -0.09274740433706608 1.5772784584041415
P 3.8570060403362074 6.2402966547440215 3.7461184952626874 0.7202559840868241 0.39471935686503634 0.07111259967610978
P 7.094810428959875 4.237359097316619 10.592425213428623 0.38090353402786653 -0.2558219363344691 -0.5434646167239607
P 6.69566302729953 8.207778343691821 10.295086284710042 0.0533889571441016 0.11258603632954803 0.21057900533626958
P 2.400590161547733 8.543096067469737 5.671931791320681 0.29951834878115513 1.5756833460028798 -0.23445735461576397
P 6.999790524358371 4.015463694196846 1.6720167259257244 0.32177021820082 -0.10342725264841542 -0.6499849064754031
Ni 5.318380271940338 3.2402744504123495 0.43678622142551654 0.4241841990933727 -0.48028849828610837 -0.5767717155165227
Ni 1.8056425113838366 1.3530652122871347 6.684570535798327 0.18649779601734978 -1.9505553291246858 1.3852826153866982
Ni 6.875941079396716 1.075114901416834 9.371253097499865 1.0821888905494588 -0.408169054612039 -1.4108103273441572
Ni 2.5966456193873846 1.6964038009139053 8.996821808578886 0.9806472849595305 0.06327047792387168 0.04023802158444038
Ni 6.51960504386714 1.839348372987325 2.045981346346405 -0.06732613605048406 0.28581745425529487 1.5051531011928012
Ni 3.9709023211899632 7.010172075566151 10.518841070135688 0.8011508599606783 1.2566204994308938 -0.9940172785085332
Ni 8.216409888023488 7.279600217534542 0.41121151156255614 0.3719638083360755 -1.155098177114675 -0.29289878658210844
Ni 7.773840440749564 3.864507371893717 8.349610020767463 -0.11396414762399727 0.820732895857664 -0.8277365808690067
Ni 3.2478122404464447 8.46198507168568 12.531019028453736 -0.5810274054690832 0.9778283274534966 -0.042010282993514746
Ni 0.11744642501128914 4.934891785973555 10.24476720678836 -0.0802623844961779 -0.04881804994396754 -0.36089803744021715
Ni 9.117353532171242 2.2040242850358815 5.5360619866287175 -0.92298592569232 0.766883454137376 -0.044117816254820794
Ni 3.953219960045894 2.771044742135125 10.923368831478166 -0.6815467404420843 -0.5852360442337922 0.9727246876783441
Ni 1.0429494104490917 3.4880827157654153 12.289682142694634 -0.0934714269872842 0.587187254422892 0.5719676092596601
Ni 3.3426042795692887 8.541993198553017 8.21692850985292 1.122642627689131 -0.550984836360406 -1.1364319681637396
Ni 5.7847662190438776 7.7076774203656475 3.489280376721256 -0.9703399894962513 0.661035764972926 0.3572689253280621
Ni 3.1786413957442083 8.814884895797052 3.5604637293310235 0.22602079381263654 -1.1446756962297704 0.3653514452258805
Ni 3.92417166882623 4.613565002585406 9.46662209201468 0.1664179945483392 -0.5675417122778226 -1.304000274266438
Ni 7.1820099903337455 6.464498056507841 11.546754093378917 1.4658116232807012 -0.6974862944904762 0.3812573178228595
Ni 7.9356067013603555 8.96714460863812 2.395293656361744 -0.035958934593112266 -0.6615530709289769 -0.19884603317005756
Ni 4.547711879252469 0.49730911548162315 1.3020406628435202 0.3245146137151766 0.081022402590654 -0.11452876187821567
Ni 6.085448390065367 5.653105545473735 0.37482686339193294 -1.1438524289975267 1.3357276872767059 0.006778456374414133
Ni 8.66837650763738 0.29670455122598977 10.699626806519328 -0.2745729916897271 -1.8356028494454903 0.9935123138476567
Ni 0.23320026524708673 5.4335252556171545 5.851971040396229 -0.7239221200845017 -1.9679802094693528 0.30544448445760297
Ni 7.283082002048477 6.106530504151054 2.48439270436573 -0.12650676017569823 -0.7853336904227636 -0.4178669986260933
P 8.671758031340705 1.6426002040925447 3.395485476933031 -0.17664815691677965 0.6257633149238772 -0.46950554873799144
P 1.7106134921631855 3.5188354407654607 1.3119947384133333 -0.20188456288606518 -1.3615050533511261 0.8135453769702891
P 4.8587756014817405 1.2145868035954646 7.938626374683566 -0.3801941666656678 1.0326599305813957 1.3840006633504809
P 9.06845360045066 1.5353211367390955 12.418547362572568 -0.6895135606976448 0.7469962282951458 -0.8474957657738049
P 6.253813634938173 7.939917916216615 1.136511887449083 0.4904335571399102 -0.42237799912256935 1.1981376727036528
P 1.8565020862209012 3.3958518846227173 5.992416383899698 0.14368892838193964 1.1838886189838063 -0.542881233416665
P 7.221512749714361 4.12398234975421 6.0219112914575375 -0.4249339327752037 0.14058997774164175 0.047916621175620705
P 2.2359710251441096 8.815213022086324 10.001990211204124 0.6675949062476825 -0.770922142983124 2.3366676610470014
