# total energy = -340898.211459728 ev
CRYSTAL
PRIMVEC
9.02190455635110 0.00000000000000 0.00000000000000
0.00000000000000 9.02190455635110 0.00000000000000
0.00000000000000 0.00000000000000 13.20446926631048
PRIMCOORD
 96 1
Ni 6.289296040716015 1.8717655365855668 11.526010074253977 -0.32809873152200913 0.5796130416200598 0.157254068660884
Ni 4.745783483048403 0.4137725153202527 6.004151526614072 -0.8068499672279846 -1.1328810175876878 -0.0017218677871131637
Ni 2.7914224093587827 1.6257201528715586 4.724995210345491 -0.06958227907451242 -0.39758485133828947 0.10204991268491456
Ni 3.471484560245342 4.33390646989588 4.93024534559668 -0.17779306915450024 0.47641795958710853 -0.31237926390422327
Ni 4.932356471285631 4.544522834035052 2.7240684779765854 0.8007155721954726 -0.4502343592132052 -0.37208002219896563
Ni 7.301652983805358 6.232755764251667 2.7003534994040326 -0.13567042895283732 -1.3461614810155202 -1.5697919202191095
Ni 4.91779511717466 4.588161786844698 11.431096028535848 0.8803048418840258 -0.26966038487945815 -0.4163161091992056
Ni 5.590585612910387 7.835343753591299 12.50939948588142 -0.9257876568071732 0.6026668381157297 -0.38117709940422745
Ni 1.794934996555188 6.462805311014776 0.19552542422503302 1.4883956792288042 -0.20993905775942553 0.8352686275799938
Ni 2.585686895637228 1.633533122301609 0.3388122161245729 -0.05890397342505985 -0.17198494711315543 0.35076763387443466
Ni 0.7102593679527495 0.053527862500498034 4.796179842443623 -0.14545759024658822 -0.08870228773341499 0.0730175300083065
Ni 8.640512656309852 2.452568692472803 1.600342437271341 0.4737766653095195 0.1372172046146669 -0.8212463451589728
Ni 6.864532681431958 0.7344696490907864 4.781232350813477 0.1253443644364809 -0.3561026729341028 -0.5797539380732983
Ni 0.963512351294549 7.221312922864715 2.270363208278401 -0.533763587386113 -0.3249938673444403 1.2111304854188947
Ni 7.495461539574804 3.7413207065309924 3.7900922208980927 0.46489581788012196 0.09455180453565652 0.013966489482421109
Ni 7.5550421979074285 3.7582999310891387 12.76724281431099 0.005051189270662268 0.2215632722619152 -0.7259288661018853
Ni 7.8947710395448105 8.92103073770541 6.859945945106047 0.08353796992365613 -0.24312248648992965 0.2800517554161112
Ni 7.075112957952515 0.6314665636602045 0.4531341831336088 -0.7521055244972531 0.3520187326727163 -0.6750014831243988
Ni 1.772416322539708 6.519607222714079 9.080304344651196 0.42263845187280763 0.10982415731369474 0.594297383105112
Ni 0.09388193982575425 4.891541374632575 1.2999969160184834 0.13838191434672942 0.08829631054424793 0.6174306266884657
Ni 6.350762277121248 1.9807772105154717 6.975207994579992 0.26124465001193714 0.2607509982049703 0.24471065691265595
Ni 3.553331279263143 4.241404881482132 0.3983324276960171 -0.8241252093686644 -0.009511796145177167 0.3124569112196941
Ni 6.1833427924636934 5.649327234110222 4.7208487429666794 -0.7037911536625815 0.24454276387622395 1.0815671978050598
Ni 5.4977592359291085 2.86710716749815 9.235932199926447 -0.6130931756553764 0.16877235371312868 0.12914959711518403
P 0.156183604601915 5.510850019581537 12.279404070546235 -0.737543310412362 -0.3158926763741205 0.7837244369541148
P 3.8564311880067565 6.0978873115844365 12.561583084588525 0.37439864302981324 1.0865399684293031 0.4026874626721775
P 2.4626190942569557 8.428173108381834 1.3726043024804946 -0.027420815215114067 -0.08464945782028002 -0.53961207574709
P 6.332637270672091 7.69854461332819 5.814376664415267 0.47391190533580313 0.16873250161412875 -0.12207109300184783
P 4.53288457703186 1.1359570368441807 12.656616219448084 1.255468645214638 -0.33571511041668634 -0.2667478392183535
P 4.020503546037812 6.164514077451551 8.21703527815368 -0.9223698893748761 -0.2609021790708539 -0.40142042303429576
P 4.775916644591553 1.0425171703464546 3.7538458167616375 0.0674498061125419 -1.1716977333445693 -0.4465036885261794
P 0.2885647181561375 5.500709398750848 3.58653188838853 -0.10454645385452317 -0.27440946952866935 0.07627511771365574
Ni 1.4546648406385871 0.8593896474964506 2.5326173458931347 -0.05018433416387486 1.2054421767848658 0.3260953279387352
Ni 1.8268184076011438 6.598990961761437 4.712978935537311 0.4850463246860679 -0.3930013457326651 0.3422310571583332
Ni 6.031143260956824 5.724470677970371 9.145640075962374 -0.2026461236424381 -0.5691967313827422 0.9439370740226904
Ni 8.293178349049454 2.2817299059515195 10.202459671756241 0.83688867968192 0.5875227833854397 0.05450687279862871
Ni 2.217782645766535 5.258372017849484 6.93517239048901 0.810129923530837 -0.0429793317750034 0.5521824562129328
Ni 0.5663049551088406 9.15696256630269 9.110912058379126 0.134600078706794 -0.5520711274460491 0.1185615371866926
Ni 1.4653106881298799 1.0344696313954098 11.299421330116003 -0.6605930210085527 1.3505148728882095 0.3275883675444939
Ni 4.061905066493356 6.888431706859443 1.8017230776165851 0.13460599224406494 -0.3838024528422164 -1.0197499073879472
Ni 5.553821351446813 7.840576458290409 8.014624336296992 -0.008934583485468484 0.5401052133334248 -0.25805571076099426
Ni 5.201750544243255 2.7837357465938837 4.791308013930659 0.6565571603762822 0.8386671117385814 0.35439108955963483
Ni 0.7218344716233668 7.454078062928568 6.857569575420278 0.3486223053966577 -0.27893178287905507 0.27904465430783554
Ni 4.975526285053289 4.522635693345328 7.082626400148064 0.2302001220013068 -0.23035721640446136 -0.3299321851863221
Ni 8.130053291007028 7.194779501278367 9.24889938348512 0.254498075316723 0.35612221331812866 -0.0017624912170614807
Ni 4.62417723022202 0.3209416273866472 10.363157837446836 -0.2741071077969021 -0.5251879299019601 0.7683821501700896
Ni 8.264172925588008 7.222909799988408 4.548874098649502 -0.20352621225454626 0.374692005900516 1.363024575319446
Ni 7.17730407196427 6.061826758683846 7.109431381064487 0.18864235316417835 0.7244746501538619 -1.405504855970844
Ni 2.4244564375720685 5.172627836021312 2.648182531363442 -0.3856796152602712 -0.39616997326863385 -0.1513510729128877
Ni 2.297870093376877 5.161350455204265 11.266277558989934 0.1258866100931961 0.012183943660701597 -0.23613422809755463
Ni 1.0129163011778692 3.224500898447355 3.6992984790352788 0.27862916403697174 0.6810176074114916 0.04619192517503013
Ni 3.636359867790571 2.493537161504972 2.5271636045300108 -0.0981804024271793 0.4380779263563294 -0.1950855376863608
Ni 1.046739421724357 3.4035766839174104 8.224536089682715 -0.17104829423149895 -0.0828820815072121 -0.41030461289780307
Ni 3.599739956801456 2.5101284441630116 6.919524799057741 0.7488314817316717 0.27908064975209357 0.7543832647878362
Ni 4.054001878016769 6.783894897637743 6.073686052351054 0.6063532858283814 0.4428396094110309 -0.47800844400268006
Ni 0.8675472536842698 7.287461527785187 11.420492583996426 -0.6559447236032638 1.7082679369415419 -1.2293436659928119
P 0.07108268457554633 5.556997061884894 8.072697434361993 0.7233305092470897 0.27834968512333996 -0.5004721723228349
P 8.491867755236516 1.6880976016468099 8.007084730577946 -0.313888244349582 0.4009342274264966 -0.23847316064337637
P 1.8085400287728737 3.2292734860091294 10.311898081776262 -0.24611730745219546 -0.44369784364626813 0.06267192510792433
P 4.146097480721103 6.17048657833226 3.8904329422653863 -1.078412197115846 -0.05402273407335857 -0.10332338008069948
P 6.837151200808167 4.082664469101376 10.465400376315117 0.13713235821034447 -0.30491637986827486 0.28865080993903197
P 6.2381328194252355 7.828947223191869 10.259318421454863 0.6105801794255356 -0.5925613742506117 0.22316532664171243
P 2.5689693063140373 8.450547431922855 5.850834181120617 -1.122350550370009 0.8478390080458367 0.2960931251496901
P 6.915786121769273 4.109667029729714 1.7175577291027986 -0.2838428470274273 -0.22594057539400444 -0.27033684212119247
Ni 5.4089746722326595 2.7953920474063834 0.6209280768342902 -0.1481860449213448 0.10884868077430286 -0.5497599628143693
Ni 1.4230611086368943 1.201149319871367 6.960616868183664 0.00537360560708752 -0.24761908880870256 -0.14427179746860314
Ni 6.812783036338691 0.6709662666147611 9.164456160308001 -0.054487332414602935 -0.21982443519393755 -0.23033947579264843
Ni 2.875939612154061 1.5853741952604907 9.260624250772986 -0.8815790806107592 0.09378638712454171 -0.7561935785236976
Ni 6.447846993099044 1.775979974877895 2.4668458565871854 0.019241364728115253 0.09459422773781774 1.2260377415480304
Ni 4.123813376226618 6.754456422752923 10.340208818579379 -0.25021513167065296 0.9708794069394893 0.4796138408165869
Ni 8.083301781091878 7.0591983181434985 0.49172898905140566 0.4768483622563078 -0.04316162298913857 -1.1058687506649019
Ni 7.518819250723073 3.9495913754602197 8.115269095851113 0.5888255613572633 -1.2541239582612853 0.5535461693296789
Ni 3.0907782276711364 8.506952379817399 12.401690574983501 0.23849758612340863 -1.0548336384649575 0.17679239580412778
Ni -0.0037314597647445666 4.702352034045791 10.201456435958756 -9.795903044499258e-05 0.3168144168574415 0.2495656710121121
Ni 8.509667973118145 2.41523605101605 5.666790032757803 0.5695849679600965 -0.03973845624020253 0.8234976030869947
Ni 3.6550171666142943 2.626926021809006 11.387244158776374 -0.18207189903551227 0.25184778217806947 -0.057685784747242584
Ni 1.0887454097916944 3.445275927226524 12.570021272011074 -0.19877352806090928 -0.24181868007684162 -0.3082521291097272
Ni 3.0850493182160768 8.382531292739081 7.968026198760953 0.0029660246068594076 -0.07977104668205617 0.4234159534687804
Ni 5.633881733343195 7.837346616424406 3.6162419226034244 0.0322118088458542 0.7419288410745674 0.10746028506720848
Ni 3.134886319522771 8.40237046107243 3.7457252003828985 0.6890520476801939 -0.2583516447348583 -0.7182713495566275
Ni 3.4591065070605502 4.210360507568964 9.041363999785164 -0.3846252058538279 0.0031082066116785182 0.5565245352317124
Ni 7.077151908404238 6.182377448665754 11.511088746147326 0.8756781417452919 -0.8714638465536282 -0.4868530388775035
Ni 0.5600554817552656 9.014560823249672 0.24628987733012184 0.3473835478935501 -0.1410931426303054 -0.16059701699118795
Ni 4.510401990634995 0.2506862514678395 1.6015306221142251 0.4233699307221934 0.5987896145485107 -0.47940918100494856
Ni 5.858229436365204 5.597415194733191 0.4404114931910489 -0.10309120946523537 0.21765365279486387 0.2967001626060697
Ni 7.908673794616067 8.999945337710779 11.342956531022132 0.44767482601614517 -0.946141537873177 -0.19213905346352717
Ni 0.18355696551151723 4.89750485360863 5.836851131097944 -1.0108060679310977 -0.4658406982918945 -0.6003980966862112
Ni 8.193062273108035 8.698198714665212 2.369422819184878 -0.893015861692791 0.5463776766056977 1.1633645308885254
P 8.586769170288132 1.5268130121537282 3.583772087754982 -0.8640127895922217 -0.23359372106388804 0.3042700045335276
P 1.8174626924753212 3.3149454926000734 1.5321413490421665 -0.05579782369591035 -0.14466106248722183 0.34515517278366364
P 4.712754290111436 1.016858873511509 8.238835808558731 0.7247176194026035 0.16449223828053605 -0.824588007937696
P 8.585289577924936 1.767517428312783 12.496617251368146 -0.006971032001194447 -0.547905940324766 -0.21631642204067908
P 6.277784090377973 7.832168043153218 1.3974551388489396 -0.02821862852606108 -0.7664669354252477 0.8095293138323607
P 1.85515621011822 3.222705539421281 5.90062877947544 -1.5077190621477647 0.37449608783962596 0.2760714306121246
P 6.791734932781753 3.9458653288382672 5.985717971025759 0.5224651316541582 0.1210051136311787 -0.3660613268087115
P 2.4449993144684012 8.438331773021831 10.21847716127831 -0.3979131812119857 -0.18598871759141516 -0.5018585111474001
