# total energy = -340866.6387208363 ev
CRYSTAL
PRIMVEC
9.24166551464091 0.00000000000000 0.00000000000000
0.00000000000000 9.24166551464091 0.00000000000000
0.00000000000000 0.00000000000000 13.52611164254309
PRIMCOORD
 96 1
Ni -0.13853811231548435 8.481141211072687 10.72382636760559 1.0714005416847034 1.0699926055935831 1.3133161523507253
Ni 2.8099284251146064 8.909021086600992 9.631024363122595 0.215156597404623 -0.40164873699501796 0.45849145701567495
Ni 1.0387724548965858 1.6615867828864677 5.333629528322966 1.9897463975018503 -0.7523484937459947 1.2852759583840574
Ni 8.367052849263642 0.3809654842859049 12.908887890800967 0.017106320662983444 0.7214952558105638 -0.6820751021417286
Ni 6.145300989477087 2.501506319107865 11.927108787648114 -0.010237361457292047 -0.8026351578156886 0.7372810578899109
Ni 3.3104108255819034 2.513381859401475 7.280849394017721 1.1066984456550488 0.4205190915369596 -1.49840035585
Ni 6.532757819679126 1.1415305346823095 3.1523007138626773 0.030553961527457055 -0.8722557463273043 -0.6069544097474902
Ni 4.453336851769532 4.134370005315312 8.659930473734311 1.1357082026238374 -0.5237293430785624 -0.26605055604101274
Ni 1.904929079751104 6.616940151612588 13.825579791479237 0.1945422635883811 -0.13964098356481114 -1.012658033538172
Ni 2.6216664552148874 2.4091451131200494 9.576338655278718 -0.03842899340015962 -0.10383117295505345 -0.8044608981705177
Ni 5.894352801825181 2.3895435403863936 4.995977882362426 1.5742846658831404 1.5202930421580332 -0.47561423273889053
Ni 6.846410708414416 2.535580340168209 9.409507183734528 -0.6195898391233136 0.9547359644104073 -0.15630018938804696
Ni 8.527072289095445 5.275540115039294 2.9279971722967697 -1.4948054394098902 1.0230470900819801 2.4971469215134023
Ni 1.0971243314832446 6.827770268902966 9.07819901704055 3.059036063491138 -0.7708295832693176 0.6517594818773226
Ni 6.73660123777731 5.385183235695632 12.820291739377835 -1.1962358276952494 0.7215381932333574 2.475392046334814
Ni 5.9859654328995475 6.226683096734312 7.929547779014874 -0.608411711019307 0.27920046315940944 -0.11908038580464009
Ni 8.831335645583023 0.9005134408821652 6.863581723095759 -0.27634705287101435 -1.6738956301092591 0.8080388453297631
Ni 7.4602698624396995 7.875507139429748 6.6022847183070565 -0.03276819556995647 1.0591600337544531 0.19276357442140352
Ni 1.8241291974265619 4.077727836864309 5.487313806387242 -1.7212777189376482 -0.5422435998326661 1.647146387039873
Ni 5.938823696683433 7.738933805220428 10.009295901886642 -0.44767019803045477 -0.8459772722467496 -0.690355854093282
Ni 0.9546455729567132 4.5920727357288165 1.7702567561553217 1.477967799027261 0.33673840947487815 -1.7319182293706301
Ni 7.617618460913638 9.223635108558486 8.915262907545976 -3.121849656383249 0.09076174136560498 -1.587880145179388
Ni 0.24916916702426398 5.213953655493286 12.864063040150308 0.41613690330886394 0.38818052730525404 -0.6465622539470993
Ni 6.7445583118573085 8.619923303359961 0.8977307753705651 0.17865387449289877 0.13947771851406948 0.24357757174947728
P 1.1926739121024188 2.785826161234656 7.5726614544449244 -0.7059411101260488 -0.25885455251320577 -0.5980553074856475
P 1.3819986735459244 2.8909963157414946 3.6565407755621777 0.07146381236794143 1.4708139615912992 -0.9719150472928552
P 5.708142481688249 3.153607485378254 6.8874557178354365 0.2995952247656776 0.11118478510664723 2.4059730323110435
P 5.691479758614802 8.764213428343728 7.537154975216868 0.6031874865058903 -0.8747252909137194 -0.30123353170004896
P 1.268021211724058 6.6356175577864285 2.518210629676504 -0.025960942840135934 -4.01030103863381 -0.7111419376006979
P 9.327705504859146 0.38325926568736335 1.4419918699428127 -2.2823636482877983 -2.5282372151603036 -1.4499283763915416
P 4.063819130139108 6.5632183494905965 9.625614292081444 1.5647273612120085 1.7116193699122781 -1.5484005990275267
P 7.910948926998617 6.423225599009966 5.166974572591699 -3.475748379687498 -0.812139240651382 -0.5507732345702321
Ni 2.138299619435347 0.5910562683284319 7.551628347710117 -0.5298308279906101 -0.4328796699848416 -1.0493929270653606
Ni 8.038927512201665 3.01054650191904 7.163996850028273 -0.731350808448405 1.820144605908891 1.296390066019348
Ni 0.8168957747167502 2.230956558722303 1.5887901829699154 1.8142151277983334 1.7650643771052956 0.7997863755129839
Ni 1.3934121305596276 7.463421270408665 6.890228217514879 -0.4535292279143931 1.1444550955785322 -0.5275777702903753
Ni 6.618603651420252 3.94776229355766 2.8455966334906297 1.84963387361726 1.9044587918769393 0.2857007261717725
Ni 6.6896073682107655 6.408808600676866 1.4339433033733924 -0.6099299474360463 -1.462022331441598 1.046444643070314
Ni 3.023799050386773 4.7181567794842465 12.907548773455797 -0.19111189775059345 -0.557069351991589 0.1434433880300368
Ni 4.1689061096555635 4.536022033876095 6.258437459729523 -0.4033268960283893 1.0003056826204062 -0.5461138814213498
Ni 2.658882642578599 0.8614184229023516 3.0331220426421774 0.6665644081006391 0.9593616361078768 -0.21035454803028933
Ni 6.523747195720939 0.4654758953481003 10.913434848182957 -0.2825004740669199 0.09922067076623557 0.9283299636130529
Ni 4.723831162161504 1.046609387323809 8.695910126240992 0.5841875483646197 0.36960687806812476 -1.553791431025795
Ni 3.6732293752992993 2.6385232532658955 4.561857110055697 -0.9142506027018512 -0.4515739039602352 -0.3309565126857784
Ni -0.16998842451251617 1.5474984210774236 9.197417427423122 2.0994476560844357 2.7716083273259295 1.4500862421256446
Ni 1.0886866907921424 8.497840900808526 2.96124498845264 1.6778607854045942 2.385726880467498 0.14183284900980733
Ni 4.119832865329437 3.4594696500143107 11.086826053968709 -0.5731143212695936 -1.0790829979306253 -1.6882400717563892
Ni 1.515670124757428 3.432299153155778 11.488564954186113 0.20561600490403942 0.7585173415608679 0.1291825072356485
Ni 7.895210370484984 6.722895847695267 11.512952785533047 0.7321933589543583 0.9830180991845521 -1.2218329594380635
Ni 5.859724280828949 5.326295342504282 10.245515647074791 0.1496106931830133 -0.6475431298031299 0.5137892011467152
Ni 2.7875451110359104 5.078433871162154 10.033439753261785 -1.4242867645640374 -1.6520332828185291 1.0995646628237452
Ni 3.1313443129523337 7.636656292045807 1.7900588730324571 1.321829332028059 0.43102359061270923 0.7834778681609474
Ni 8.2310894649838 7.109169744700745 8.843750899147565 -2.1581909355619153 -1.9989514610398862 -0.35209920820166457
Ni 3.77381566366946 7.757879219696616 7.454821900569595 -0.040621630176104234 -0.26891322230078846 0.9059459394908979
Ni 6.3801686789882295 4.941435420335321 5.543095575771059 1.4042576138273042 -0.9165782223937634 -0.4603683623234136
Ni 0.4906455716046359 3.9748958237538004 9.331989016863886 -1.4263300202463114 -0.9307324024069583 -0.9833407726312935
P 2.8206579988740477 6.2597035679164685 5.8286584219207995 0.09201155461230605 -0.2924964089373672 0.2773767796871094
P 6.350872599042124 7.971361695013661 12.299374167939929 0.040932476548303696 -0.5524390523084292 0.6386342573492744
P 7.627627184756424 4.959632259898059 8.717917304529843 -0.16695072712335762 -0.9781119201321864 -0.07332683371860921
P 0.672894913866205 5.546727550351128 10.674361276658102 -0.5632119745542172 0.4840366524746309 2.4330698885278355
P 8.146685333075983 4.573986796153256 0.9020697373688921 -1.43953623452394 -0.8971877336822935 0.3405924931136457
P 4.345468130908037 1.0843246246298202 10.678270501206116 -0.7695224344221199 0.8264487152955184 2.359604729459149
P 8.096392188890903 2.0209859163325516 11.24809773948906 1.4844672907086756 -0.19166391359932153 -0.7688794015214823
P 0.5704297948799423 8.875446115482948 8.779610043230232 0.9046593594689903 -0.6701400412670394 -1.6615134543948222
Ni 0.5404350450146176 6.4881390581713045 4.853777297970399 5.035210892956141 -1.6066250298870588 -1.6457883303500815
Ni 7.7280101564834265 2.1447965103508397 1.3133774581466118 -0.5642668981812927 0.4186409006776403 0.16112075070514187
Ni 5.575459888695747 1.405398570840416 0.8328829320349733 -0.2606612667046414 2.7112000014412017 0.1963194100934619
Ni 9.165828490242118 8.628582744025419 4.809655738071757 -1.7206192594180432 0.710534385923686 2.5018193872884074
Ni 5.145879546697383 6.939843947611615 5.595738875517746 0.36562809592603485 -0.1474756491178815 -0.2005419328152417
Ni 3.392245774453437 7.96932852858207 4.401883878551885 -0.7272475849133089 -1.9269482312287074 -1.4090172399994765
Ni 7.820195770824877 4.375790035735535 11.263233739405694 1.8050535159037233 -2.3228533808717287 -2.4282025331332053
Ni 2.4416388093631114 0.7080936456298426 0.4038099574779483 0.33117531356480384 -1.9923524676661302 0.6569831921701071
Ni 5.091501586317925 0.22756862202173028 5.211678357423024 0.41481535628396293 -0.2978851840531063 0.97244469454408
Ni 3.0874833680235594 4.968032933926768 3.9358276066042213 1.2162050717283246 2.7829353223029747 -1.0254538997512597
Ni 2.9527491252682694 3.6613908016680816 2.1081662445860503 0.4547669569762362 -3.518005745694812 -0.5560663646483713
Ni 4.474537232651666 6.693886259382705 13.162016187367474 0.608053813459256 0.18336799213911648 -0.7924124516464159
Ni 9.003110484055659 1.2085788185968185 3.433197443051917 -1.1421084497232266 0.6324378987305752 -0.2130302950902396
Ni 4.629741764706837 9.101127589389538 13.02392814416662 -0.9168589868589758 -0.2076129807294102 -1.2489994925505263
Ni 5.942954721205802 8.046191461361802 3.31231460869512 -0.5182955736575009 0.12254237621131155 -0.23633888790919297
Ni 2.1992761290518774 4.77927191408475 7.854991565968436 0.9131535129829307 0.32770072475264206 -1.111959179833356
Ni 4.311338659854104 5.27198207378401 1.4038348810212107 1.3802440245215262 0.1956925751427404 0.7832097021012253
Ni 1.6666512156342486 1.1015326059735577 11.30797818756565 -0.24916689291179667 -1.0399965734521253 0.8710984927944094
Ni 0.1844738111710415 5.379111461397654 6.947118986770471 -2.154882697124289 -0.1563456979140017 0.3958850950383634
Ni 2.593756625108503 7.07285924056565 11.254077097131056 0.7137783467822804 -1.6315523892563577 -0.18537268127397108
Ni 8.959378922445259 7.4616191456170275 0.2734738233808136 -0.38415983618163513 0.34250050876963595 0.12115218073200423
Ni 8.495502759412197 3.153746110362226 4.916876618174822 -0.3109754415781612 0.9329636057303223 -1.1794465240520526
Ni 8.28893304996256 7.574127182608789 2.7603006808525925 -0.6413691397819341 0.3748133619697287 -0.04253735914157836
Ni 9.066184851762968 2.818439999130494 13.01965387382748 -0.41835010891009894 0.13451497519215544 -0.17104803712118286
P 4.478363282209297 9.264862178791791 1.937182492688614 0.5489022427997643 -0.5369764378964558 0.1327350004735972
P 5.146323146646095 4.088032294006236 12.6888586195742 -0.9261599525449276 2.178613207972009 2.405536716104573
P 2.1379114694802253 2.692032497079129 13.545048108081124 0.06157869204374556 2.3618320761277714 -1.8283749642384832
P 7.406335502008951 0.77962321319289 5.214572847088362 0.2836073339778535 -0.11861064525707316 -0.38872354429291767
P 5.0676580890747225 6.1168366594348145 3.320322511935909 0.1803870551339216 -0.8878713413773741 -0.007955764511966943
P 1.6947366373869972 8.392679987967286 12.436894772873059 -1.6603631428404633 1.7083517549046 1.4310716486963548
P 2.8703042264672582 0.4904228474637207 5.224122260150921 0.014487909203529888 1.6070806293672386 1.739785805044165
P 5.0933406777719545 2.7635814721399323 2.6297057801187096 -3.02978385149424 -1.163653522883854 -0.14976110271794854
