# total energy = -381163.4999459392 ev
CRYSTAL
PRIMVEC
9.32065352729336 0.00000000000000 0.00000000000000

0.00000000000000 9.32065352729336 0.00000000000000

0.00000000000000 0.00000000000000 13.64171858329831

PRIMCOORD
 96 1
Ni 2.6511666059203036 6.695118424618947 11.068903927575585 1.547839327207418 -0.23140905470774342 -0.47597958649810934
Ni 1.6798520117367823 1.8773473331150883 1.630349090344913 0.48902073595278356 -0.5686439442030659 -0.46478191801007696
Ni 8.178397859647603 5.1504904500031445 10.655286891395857 0.1743436771533191 -1.9225932966941213 0.38137250324448513
Ni 6.559558843981536 2.349233365053399 2.872481788703791 -0.0916657412371131 -0.7880765432752234 1.275647691265674
Ni 8.67273734522697 2.5288609941818483 6.898166991194157 -0.12462831220606277 -1.2753383875553712 -0.014293533804536676
Ni 1.4371422015196373 1.283081124212449 6.502965701674453 -0.43315400669215076 0.23714698563278513 -0.893451663678629
Ni 3.2045803916976836 3.6752081354493846 13.59777797067196 -0.5872168221092469 -0.769532718834765 -2.5853393594899345
Ni 2.287810260240381 7.086017300605768 13.237991435180717 0.7666024325618475 -0.8131016045646512 0.41694474392214
Ni 6.689936141420762 7.890939593253327 8.575224671091341 0.6621829912034918 3.0580541591938433 1.7908538273645735
Ni 0.14742943253109408 1.2450901416300726 8.662095023364223 1.052549470416471 -0.9030958716366124 -0.49531016850592124
Ni 5.803336964482387 5.370812051151873 11.494402932498202 1.2028744160576896 0.21144623843257135 -0.15136727086280385
Ni 2.0523892008523377 0.0819005799684352 13.02665401168438 0.33185485613033167 -0.003541437494355191 -0.3897807819128384
Ni 1.3499008872480371 2.7423039532437765 3.9437930111098405 1.1912026361467163 -0.8273704557788396 0.7242090551973012
Ni 2.8185189347393833 3.8464658179735713 5.9906783662274155 3.736803025175816 -1.1832869808440654 -1.2794914904917964
Ni 5.440455972117406 8.771471024936272 5.99995521239136 -0.4924248765383261 0.8419067017218016 1.5780785857079338
Ni 8.35631048858097 5.83378753859834 8.370053791774717 -0.39827956341246895 -0.36215736376861496 -0.8740231226403722
Ni 2.181955601460192 5.00538652045397 7.954854108675831 -0.6805193276188345 0.9095431699238529 0.33566985900104773
Ni 5.587806179096011 6.068845092510252 9.04923394783639 0.7983853814003992 -1.7129864254631335 0.5120377656732472
Ni 4.007769042843691 8.003272106031247 9.239985776599793 -0.6253341978062585 -0.21969176627081521 0.4276492748238377
Ni 4.7949075291205 3.082889943072682 1.3809917902411757 0.7973206875813107 0.0548071776478669 1.7652718651304113
Ni 3.9182348478764903 6.372176431362278 1.192612067725864 -1.8433742658607932 -0.9695573456939559 -1.9079655194786174
Ni 8.42855487179883 7.643671983604685 1.1702033532203318 -1.647428437056666 -0.18334356665908422 -1.2598644602894882
Ni 1.2947319407551308 8.224851995366585 1.2703901227688366 0.5807553827546192 1.2076893209478299 1.0711213198813874
Ni 1.7294938108618405 8.10569676442127 5.189077954392507 -0.7191316406743937 0.3931676961072003 1.0026775252866926
P 3.6860666964671642 5.483125922623325 9.48332659504089 -1.6339360589971859 0.9514956030962387 0.1307493375021361
Ni 3.9538117812712232 1.4132999705466935 0.14219681780544488 0.40959550264592043 -0.8213335055561403 -1.7098962165735843
P 8.669624247046766 3.5962528819029393 8.92817730363131 0.11271921947330266 0.8558022287569713 -1.0561515859454325
Ni 0.7723074628506369 4.789632039389974 3.040739152951906 -2.9122083323699006 -0.891862207704322 1.5830161322188672
P 7.516184088668045 3.5017507787619397 12.27514558652574 -0.3952950268628483 1.983360805690481 0.8282708561059219
P 1.0358135145638068 3.8128182597983065 0.45744740801329625 -0.5515880171620436 -0.5453932012052414 -0.14587822272377457
P 5.444417249741918 6.25541660829814 4.901905832052518 1.8973355505685967 -1.8535769174254078 1.893370138162946
Ni 3.730022897119394 8.902938838803893 1.461710511379521 -1.8871215861500725 -0.6498159849977067 0.1812388616112556
Ni 8.005984416122383 8.520959827962146 6.778829075445453 1.0557888032893752 0.16348102340720233 -0.2123391825604859
Ni 4.295283233157372 1.2252278295881085 9.024446602625504 -0.005694479281615999 -0.024745839486112222 -0.7456865083447868
Ni 1.590112762398431 2.589967196784905 9.89616628874089 1.0795694506487408 0.5006616626258216 -0.5823684928780098
Ni 3.3339044553214503 1.0398493574141918 11.1697161129561 1.5191239615505967 0.6241018680610542 0.945369692704159
Ni 8.559836272601768 0.4063059157828641 2.2804310990749084 0.28413646700844614 0.5398532452236185 0.3983872926349268
Ni 8.891073647236825 0.256978798253298 10.739770224375475 -0.46769626344339454 0.556657461265151 1.972815940295099
Ni 3.5967748384840514 5.094342834920653 4.33405528648077 -0.7466331885287723 0.7277090979307597 -0.7829749603826
Ni 5.015732445543872 7.407756929595232 12.108593901819473 -1.3088437184016684 -0.5962712190020312 0.36917210452355126
Ni 5.071031881182056 4.349911581762698 6.159180863655589 2.1073964786178676 1.29739742423794 -0.0637679863855805
Ni 8.651206636256095 1.790944877634561 13.318095925270931 1.684582420399144 -0.15629736117456952 -0.17553615479952348
Ni 1.89772228108493 9.061250133985851 10.129985127837983 -0.8142334041762492 -0.6647078145078746 -0.9017568411102148
Ni 5.470039725482584 4.328641851082379 3.399039044252305 0.9452480795246302 0.27714666595417436 -0.29822122723628636
Ni 6.750855930959136 1.5170668030024337 11.568750055085685 -0.35697967622241744 -1.896167755512741 0.7027354587045574
Ni 7.615467686918161 5.039872937420308 2.3232259463341633 0.5342631527303509 -0.11463494843877677 -0.019589234985837232
Ni 7.249893025768513 1.2438691360563994 9.191121319954462 -1.6358993533711441 -0.07681967736321609 -0.9756621730401132
Ni 7.2514868574715505 7.06641596685436 10.794882314883653 -0.41556843239990365 2.2839263647892274 -0.07082360768078125
Ni 9.117761254544474 0.9957253850037477 4.8242163232152695 -0.2984112317599054 0.07466277892121335 -0.2944900423286283
Ni 7.076538196266643 3.2572327618173706 0.7483804139332623 0.16711090685030575 1.9977494703119854 -0.6707303665528707
Ni 9.365858402330955 6.526134981483891 5.482756824755253 -1.0741374809998923 -0.032179412946021994 0.5501983359033685
Ni 2.575771841909302 8.992473033771093 7.524198918384085 0.9413713701780432 -0.4093972705921852 0.6000283720516183
Ni 6.3132326203095435 3.5394901037069944 10.216692368679267 -0.028685283749834468 -0.7919190569497652 -1.4887556336713843
Ni 4.616845769735387 2.573469640560468 4.852017967682079 -0.894041474743828 -1.167899956865034 -0.658252288690518
Ni 8.644728782258364 2.673452287803145 10.767516876988202 1.7153924638014653 -0.7468440189879977 0.16409011774611096
Ni 2.696931013299957 4.244765292628305 1.9444085010694405 0.40560283654675955 0.0497251351392692 2.1775785960599077
P 5.731940760708834 -0.09921369335086018 12.798018387850796 -0.2070133994721983 3.23875437469281 -1.3909606396080818
Ni 7.547604010720349 6.4857579116735735 4.216109876325248 -1.4674023648065888 0.634456986043133 -0.6896387734215995
P 4.02490040348805 5.1875307259556385 12.533832860516856 -0.34759155013929816 2.317149645618732 0.0342766617946829
Ni 6.862834258914158 1.091616265476635 0.8804736436328937 -1.9613146245237192 -2.1445931422728224 -0.46961970571835254
P 3.4680472966672706 2.0764551275029013 3.1192199852487335 0.07020757136333715 0.36698512417456153 -0.7016249992491981
P 1.9641878592976205 5.881304228786014 5.668379498043904 1.689413009018568 0.38863381279258874 0.4703023336076739
P 5.6150784104591205 1.7091468248517012 7.3107335897543955 0.04058897716595591 -0.1802101632364251 -0.09857892341717861
Ni 7.110922086047404 9.069983586066245 4.5849542226294355 1.2614341187694533 0.23853281023671818 -0.8654667484299288
Ni 0.18885600789557652 7.954478486350496 3.4677788618541268 -0.4099282033949908 -0.34010115529952395 0.010302410367272578
Ni 0.9661695935982729 5.931775566048911 9.821122913356815 -0.03861436993808834 0.7633666992333692 -2.4684212714439355
Ni 3.3656412795837154 0.36790296032753844 5.050846142472868 -0.4170848690444301 2.0981127393230965 0.18196494114400272
Ni 0.31296889429613256 6.9678314175968055 11.892454477776905 -0.5641272872796349 2.38564306250444 -0.5212844810824957
Ni 0.9504270102858015 7.287958573576762 7.491022053197146 0.6389463892730545 -0.4688434896739602 0.03574527592040941
Ni 8.167343564911906 5.743125544589809 13.13773848899425 -0.989149923113903 -1.1535017791618327 -3.136745856768791e-05
Ni 5.670107547153514 8.991662136939722 10.44579122897859 0.30810403356763716 0.824521930586451 0.6442004385831421
Ni 0.7904762121999565 3.9876737144708736 6.1300556864295315 -3.7909787398872714 1.0868009354001735 -0.8760743487424459
Ni 1.71728375512511 2.2969165384501413 12.309645052406605 -0.6968849134610514 0.5560306263144296 0.32679775332239847
Ni 9.011682900086667 8.044432110713231 9.232987830151597 0.05430761230362906 -0.5506724473263097 -0.7768801603387717
Ni 3.772059043205389 3.6725051460114826 10.725214160219709 -0.9444968031809025 -0.1330363337640999 0.3420749911964431
Ni 0.614301885094758 5.9435755130433385 1.071337320235105 0.6497979872755777 -1.1131020351885477 -0.7622621533152809
Ni 5.241553232100745 6.734516825839679 2.82942875934995 1.5842749443266329 0.3492936204320694 0.48482083893882305
Ni 5.723841113048362 8.03550292491492 0.7929508456336221 0.9976445908484755 -1.3743507989655426 0.9334256329684053
Ni 6.012660194814824 5.426363144427379 0.5983561115417823 -0.6010971796357648 0.3012571858491328 -0.45058120102966276
Ni 8.808390132396722 2.747709932119581 2.3834401624227124 0.3867278540191275 0.576258266215214 -0.3535153718229008
Ni 7.715748595064331 4.848342834111855 6.086839545644093 -0.02828599142888677 -0.5949363022406915 -0.5755866940694861
Ni 6.436293204959964 6.647685620310381 6.902463812335097 -0.4289723645106354 -1.4116973579348011 -2.6135137650416214
Ni 6.839178441005897 3.4733787103172014 7.7626147036562605 -1.7572171131467351 0.5382553046088794 0.7903144314668067
Ni 0.897139903680869 4.791160626520373 11.67077672158261 1.1823482710798798 -2.4214700995053784 2.206045850261665
Ni 2.157423642147922 6.375047192558395 2.9413726008880063 1.3078304466458055 2.939547900725118 0.14610730801544514
Ni 3.90499019963077 6.789061288565897 7.233112121685757 -0.3488891859047991 -0.3775662421245175 -0.7787452385719684
Ni 3.9074042488184135 7.528235693299795 4.694593066622687 -1.3213894162771629 0.08150448443339511 -0.536918845185643
Ni 6.817097813494207 2.186932830287226 5.400906576314281 0.7060341840604872 -0.013136537381958023 0.15836992743288208
P -0.0269646498063825 9.015159503743002 12.756206869507743 0.03429594506839255 -0.3450613275182767 1.2054516898665626
Ni 5.010419673200408 9.385618187187342 3.3561081154558314 0.7656269560224557 0.7418648206058513 -0.021335785363298738
P 6.914312226726343 8.20707750964907 2.6064684812706362 0.409756710814133 0.36605309927859536 0.6692201005559313
Ni 4.267899153955454 3.7595600472184003 8.295174459887564 0.43365331492607256 -0.9553900530546383 0.02937845316211715
P 2.2518977833292193 2.813355292847667 7.644314176612518 -0.13686522059188685 -1.2117079551889196 2.6786243814980257
P 2.1927582385585667 9.07102749922847 3.1674571619314063 -0.2510836503185353 -0.6182027289677999 0.0034437355742263274
P 8.353299917586341 3.8646038091672184 4.28580506088357 0.07432493596582038 -0.3434711002130214 -0.6376448968528114
Ni 5.37750428017399 3.243410233071133 12.374661269041386 -1.0077724233110967 -0.6658709815780404 2.1037941059785896
