# total energy = -381164.56487746065 ev
CRYSTAL
PRIMVEC
9.27001973436492 0.00000000000000 0.00000000000000

0.00000000000000 9.27001973436492 0.00000000000000

0.00000000000000 0.00000000000000 13.56761090919328

PRIMCOORD
 96 1
Ni 9.00688994027607 6.734307593957374 1.1745819154670567 0.29532976462110433 0.24638855883571115 0.41278752722065687
Ni 7.29384596748502 7.1406774362425205 3.2802816637805488 -0.009405866694932189 1.768185953453413 -0.5027501697237342
Ni 4.350457204274657 2.171205413699439 5.660963560817942 0.0505813124919774 -0.3936145538366318 -0.35699356017948847
Ni 6.837000869337414 5.515485437704642 1.724009478789159 0.3746279854318 -0.6375690493095535 -1.9620836414792593
Ni 1.0415423044412222 5.693080470177184 8.536306673315211 -0.00822984410896002 -0.6303308796899015 -0.061597461096822945
Ni 1.838652736232064 3.888087174539536 9.955573532963419 -0.1141397539699131 -0.6244584800695246 0.4653457609333469
Ni 4.68758927134645 8.785484795919968 5.630001695881191 -0.4879529568099016 0.40703134146317 0.03364314197574206
Ni 4.264292373559954 6.69056237220991 12.403319385654983 3.6147213906510074 -2.716809634318495 0.9064727585286453
Ni 7.124047021363318 4.032319407039812 6.551867122322425 0.564855423694911 -2.1771798179595923 -1.5737506477565413
Ni 0.6021016677962373 8.815593819068043 5.410464460442681 1.5507125349901552 -0.4528741108288975 -0.658342534411479
Ni 1.974829321837119 2.1860003647290966 7.52892439051828 2.738175244478465 -1.37903637736667 -0.10287600813063572
Ni 4.696729510516402 2.113582972847089 11.642325876612668 1.6491649601317984 1.6729978008853381 -0.1819518285178802
Ni 6.907008056164465 3.2860086817919036 10.458130950984112 0.40873778263131544 2.748188405740093 -1.3412491313155674
Ni 6.536429758945427 1.3769686879356613 6.664179896877576 -0.16127810221861258 0.6450902973872632 0.8971969896536742
Ni 0.45658182959544824 6.561134360758733 6.27046085012512 -0.5692455823428068 -1.1300018962676797 -0.7025099729573127
Ni 2.4790442193340656 3.5659818089834534 1.23765605475333 -0.629667792184606 -0.26582995538977444 -0.480843856568946
Ni 8.345844853856978 8.259151632034072 7.354743506206279 -0.15397051281360577 -0.4119336638607937 0.5990950616040714
Ni 0.6828444641392318 3.3830194352539116 3.135529383189569 -0.07268945724492643 -1.346065064646972 0.2309999921947828
Ni 7.491853582769157 5.901201676672698 7.55908532577523 3.594447470893319 0.6788748500368759 1.264630514219564
Ni 4.912044252099016 8.412765124209795 3.136750244750099 0.5419396954390021 0.8524507957862352 3.2360518881599813
Ni -0.09162950717584517 2.3448884979673976 1.105765926138321 3.41958443090142 0.22263902182459722 0.8412878371908802
Ni 1.156768646107038 0.6120548876712645 2.6817739825220293 -2.7927739056599514 1.0385991788839661 0.8706151254000878
Ni 5.136888573668152 5.22350763533552 6.944039002829987 -1.5959487811201352 1.3055411363909968 0.164002186017995
Ni 4.959256461117841 6.155710060456686 2.9228158090624192 -0.6974266448971344 -0.6480414095957872 -0.41104071973287926
P 8.457817418698601 4.430513092176988 9.139712632846958 -0.4192286548603103 0.020526916308758195 -0.8248695437338568
Ni 1.7331599149804964 8.339077739664214 0.8194752806969517 0.5705355047988239 -0.40550590595757907 0.7233058266567414
P 9.056224983747146 4.539806621399834 5.16134937397013 -0.7221909963260078 -0.4461051675361801 -0.07847803890224549
Ni 3.094916501011604 0.6512216468162554 3.9697745858636844 0.889600665363655 -0.3910002561422363 -0.035075246436578306
P 1.3164632710368052 8.09389499543902 10.346578318023216 -0.14092113582881535 -0.3101138649088143 0.29319754876944987
P 5.250891272767605 6.923119349954907 10.128004237604745 0.2820585014334949 -0.6130926614347442 -0.4726466654701344
P 0.08577919790590983 4.550513493855507 1.2275563685711168 0.7732623610805264 0.20271271521431541 -0.3087892325601198
Ni 2.0602154709186817 0.7229808673178708 9.302876099051975 0.6328004242763166 0.21960871963870562 0.8312319956167749
Ni 2.7929363476644107 8.004745218463947 12.086163283479062 -3.208633386937713 3.6775658367810538 -0.3384391942160688
Ni 0.002992362275923195 5.382701679215411 10.873042189183247 0.5524655346709906 -1.539091148701143 0.9165440267217183
Ni 1.0524160372468538 7.823340208000686 3.398292719286784 -0.3267645860916179 -2.2469017079357623 -0.5020053211379097
Ni 2.6278929215165276 6.129309045085468 6.453095065166409 0.958456350684788 0.7289619965012542 -0.2034223396868303
Ni 5.993744280763593 1.0565319258791646 13.125021917291782 0.8087119601373878 -0.8101283808689402 1.8648026109378981
Ni 3.705699542015407 0.9556648443292257 13.151763142376527 -2.158099918510006 -1.6389612801259192 1.9575631279010868
Ni 4.354879003548558 0.7528599939837805 7.683771722281752 -0.34197728927631427 -0.03525110989281025 0.9904496157619328
Ni 5.431536141636612 8.756145184385591 11.431457963356449 0.1332592484081834 -0.20564840080387167 0.17428891265598373
Ni 4.360264884844442 4.990023655646309 0.9855495330068007 0.5964679083938695 -0.044667261000387586 -1.088669613177796
Ni 8.196959071596748 5.138279076584473 12.986496308760088 0.3953536480149255 -0.8499982204806845 0.7630034023566794
Ni 7.57866731484481 6.976394151688893 5.594888716238248 0.009933714173944182 -0.8596069472150422 -1.2497867643385123
Ni 3.6768512415114634 6.726863768345335 8.301926282745944 0.765621813816133 -1.1651000255223933 0.7415490891376454
Ni 8.074381604513313 8.693433502859506 11.737732916711185 0.06334092615049092 -0.39883774990878407 0.8036072919209708
Ni 5.65708498468335 4.431097103401844 12.16435311646769 1.130910267014562 -0.5546589427778834 1.1094466978241473
Ni 5.165894464502612 3.3056240429314743 8.012826821413606 0.13232928039474628 -2.647165905878428 -0.2964793048445152
Ni 9.16581515359214 5.4821782578490295 3.252197212878638 -0.7478578049644927 2.0622018843591 -0.495213752137373
Ni 1.9075567907454998 5.229106727078573 4.455806340224871 -0.9258668467845409 -0.3355276769962286 2.15852466475225
Ni 9.055483382191774 0.3224956333745962 9.312184125573829 -1.3202781854908552 -1.680493337931435 0.6837236934887451
Ni 2.5277767115414025 5.9703745617499555 10.92535939790886 -3.006770678428518 2.4659275584878046 -0.6440492577172585
Ni 2.9956531328251557 3.3127156078047126 3.5100085045898606 0.6990281850562994 -0.6697538615722143 1.0982698552717216
Ni 7.762065379488132 2.534516015675839 4.2871207234381705 0.8422520008763623 -0.16793751651665917 1.788230530809114
Ni 8.523106165629603 7.143096911316919 9.782586627155565 0.7445400534451694 0.8505854604427222 -0.7127157098457209
Ni 5.213662874687966 3.658153612296664 2.8564026087730863 0.5635127936240876 0.5408307786455395 0.11959254955436822
Ni 6.925844735670896 4.8081458741914975 3.9011495589354572 0.7095218854987716 0.17010907024668123 1.6410531296579414
P 6.4119055877791435 1.552589206267027 8.924299629058257 -0.5582680002853805 -0.17249608242161904 -0.33225312001001484
Ni 1.2738211816029557 0.7039884514848118 12.828392419166592 -0.824110296970329 0.8441852133433332 -0.6665199280159488
P 5.290668926193834 4.13712624685266 5.173926936349227 -0.2004681421545128 -1.1379129235846404 -1.0305050890219218
Ni 2.9378360215645203 3.873208793334899 6.198363273913866 0.010030130542492403 0.2659502830177226 -1.0348376549590048
P 5.903009330463916 3.110758964238223 0.4751200144758423 -0.7680743891216837 0.7316457139810045 0.6560506530535088
P 2.4235168028756395 0.028110406956349126 6.663949073393466 0.8756341758812338 1.2014307416326275 -0.5417471198122219
P 8.194205875822432 0.023332638935869527 3.1159371970986034 0.34240229262887484 -0.24855856990383643 0.6513907856839943
Ni 4.537646706869816 8.017908646071788 1.143984362294381 -0.9631146753924059 -1.1320227833524503 -3.502348241663213
Ni 1.1845230843168089 3.6569948598663964 12.81775599885868 -0.6938175873896374 0.8213473895132113 0.08523052713473064
Ni 1.5186238550310216 2.0243590357164796 5.133712665007274 -0.31674139752766095 0.07009624259645347 0.017197337714892964
Ni 7.254346414642057 2.007209499748518 2.167426026772878 -0.5571086898699567 1.611509868783186 0.08168728986816254
Ni 7.77318013279926 2.563837087171332 12.991041399292572 -0.7815803940279186 2.192996216166559 -1.8604721018833443
Ni 3.411200294358021 4.475491226510258 12.305469695433462 -0.7792028949346774 -2.300427447768045 1.1495060277388784
Ni 2.398052059468078 5.58370351077936 2.4231617611310057 0.37675994417313824 1.4020611203966176 -1.529246137586263
Ni 7.5427367194870705 -0.04383514093605333 5.226392465385914 -0.21554251998913201 0.11584619513805855 -1.0367323008785563
Ni 0.11768475082187159 2.4359200888892247 11.173211907733391 -0.2138954713040123 -0.7257807705597953 0.3489007558690249
Ni 9.166232304467036 1.0481240182451426 6.830260638201033 -0.665396355934467 2.084455810661294 1.155089435363927
Ni 0.22720539552104937 2.422830821436921 8.949711533354998 -1.312795761070881 1.185553665391055 -0.3011854520709329
Ni 6.784903360072581 8.566610366871572 9.185299807457577 -1.2047415511734156 1.0248851717319833 0.8884266996602119
Ni 5.727203411743707 1.1937931037589502 4.064096106685527 0.5530468610957572 0.09833723972001773 0.3168576113905511
Ni 3.7772177420115263 8.41383117644564 9.774337236854004 -0.8731093525768511 0.9878288903096342 0.16183885981808901
Ni 3.267932143879728 7.216617435512541 4.299819723071961 -0.9862036960013854 0.28450182076766484 -0.06034173431285092
Ni 6.463687916382945 9.299127303189572 1.7256780822887443 1.4091776768367408 -2.212281546758732 -1.0877188192287526
Ni 2.0398399681848556 6.016186997833017 13.517979895448038 0.9882906604374013 -0.9662146544739683 1.0115583727160902
Ni 4.175040626371018 4.810129658352115 10.138193842975545 1.1184555861909768 -0.46690642055224746 -0.639529258359718
Ni 5.344592629288769 6.507303357858219 5.139777111726324 -0.0434992088342154 0.6274748982983451 -0.7675195450594782
Ni 7.051861379967365 1.2900437156267028 11.051348232147001 0.08216860037995526 -2.0383551596484892 -0.8774822848335662
Ni 1.5037269337875006 7.954167992387625 8.026367538812742 -0.21786731146756674 0.43740069778364665 0.3277835142744355
Ni 0.4500659329295672 7.128793271317695 12.518522552272193 -0.45550074981846717 0.9492240334532427 -1.5899745658145714
Ni 3.8996932388810963 2.4589653572223877 9.709498085865947 -1.576299382320324 -1.0631892095185045 -1.5968867195533725
Ni 0.3930126712709646 3.5663711498000232 6.987618291229437 -1.1555308937767195 1.9724120199884612 -1.2889734618403026
Ni 6.088826870181637 5.130937221186298 9.008513120680389 1.1580408046827668 1.0859691835274976 2.129032311720088
P 6.1467459516561345 7.574866606873532 -0.4208755687082086 -0.1477895808138745 0.9058310111795884 1.881872164825675
Ni 4.76270423888612 1.6103785074693358 2.01133002339055 -1.6463665714510547 -0.6383846032323135 -1.5370977724201977
P 2.464805469470937 2.3640403581348615 11.514043639564541 -0.2989061691184529 -0.6483692252488511 0.5319550734224645
Ni 5.970309671613861 7.4667781801781645 7.302033248656318 -1.4373592814772793 1.4881709648125079 -0.189315467971803
P 3.1037230194816385 4.332195265973639 8.220560541096438 0.07963272133197898 0.7496596340599219 0.5613641227122009
P 2.58261814656111 1.4313095419054933 1.5617674525166911 1.5712895878105584 0.20822644594369302 -1.2647498134062478
P 8.348338489086913 0.6642803232043998 13.694060206743735 -0.15487425557479778 -1.8589713489681017 -0.570455800600824
Ni 6.885798251680846 6.366862563309779 11.615503075356834 0.037713455390373754 0.56714473394972 -1.6437342760345304
