# total energy = -340882.31324299093 ev
CRYSTAL
PRIMVEC
9.18797588722488 0.00000000000000 0.00000000000000

0.00000000000000 9.18797588722488 0.00000000000000

0.00000000000000 0.00000000000000 13.44753144579174

PRIMCOORD
 96 1
Ni 6.791751717094799 1.9384515719933841 11.293008137538896 -0.2778714599353408 -0.3267856691375404 1.2453670380042616
Ni 4.625401593165782 0.5450546136533116 5.856440587399704 -1.4701891835231067 -0.35756871595666806 1.9671114337111542
Ni 2.7965533845831456 2.0140318609880024 4.6052413366484 0.706411622004564 0.2943627727221446 0.2906518995294607
Ni 3.4097864539203457 5.114449981485324 5.113800391595716 0.05839335233722847 -0.5567412792282088 0.9200553823090863
Ni 3.983502039308378 2.909262283816914 2.383050370950153 0.7304506652316387 0.12379090390643195 0.9756868556304615
Ni 5.105565208879223 4.843735462285539 3.4505020499148444 1.4477010297229196 0.2616958786167428 -1.4714863050679754
Ni 5.492121727063222 3.4595025910161246 0.41474982195010524 0.7710964637774591 -1.431606181043586 1.4826616049585046
Ni 5.767209722747499 8.43026181884392 12.418553549940881 0.3317666672918996 -0.05103279820709922 1.1009476592142007
Ni 2.0906412032730897 5.446549367056741 12.31502068214632 0.39979317184351787 0.5810261199175026 -1.234154971338526
Ni 1.3265048192692703 7.886848177669874 12.494639177604927 -1.8985979622207885 0.07346850150279605 -1.8248440682670897
Ni 0.6828283108906446 0.88249680715694 5.113504538774706 0.5444434356974623 -1.4760723817767611 0.04036220586713049
Ni 8.620498857943552 2.6091370540564953 1.372817730125856 1.166424657871088 0.3380668984783145 2.122873234097228
Ni 1.4547965254729969 1.6129124011487064 2.691052452370563 -0.22585444343810135 0.19812329607142007 0.4369520402820023
Ni 2.1248112853021417 6.83084655415681 0.8869511378285413 -0.4730912092067207 0.24635616293587898 0.6577807483707382
Ni 7.920375101392383 4.260997284654288 3.954542458359905 -0.2533055976705186 -0.6572248758672682 0.5325736808430699
Ni 7.817423832466454 3.864416684864025 13.067759382160617 0.07918894892634104 0.5026812641590117 -1.7840447748625403
Ni 8.122087922275904 0.17113615619288344 6.744945411937337 0.4584775730586039 1.0395198909260224 0.4108275752808086
Ni 7.01691225223972 1.2540116901460587 0.5031675507433231 -1.3123375904875398 -1.1572998127516843 -1.4043620006156525
Ni 2.1935832842232115 6.180411370773998 9.958152367057954 -1.0014277120399915 1.5592395986245597 -1.158349079951805
Ni 0.32083033324320176 4.940797238718695 1.5958861631793497 -0.12492604595213969 0.8240375347508647 0.12050940494168277
Ni 6.214305813528817 2.2065015782089192 7.073885971426047 1.681345401519085 0.6425387346100031 -0.7257452893361694
Ni 3.520602630137716 4.822217222943769 0.5917800646236655 0.6640730091373531 -0.7729977945652301 1.1434762766050306
Ni 6.471412940557313 6.2248260458287 5.090697226427109 -0.386054996321819 -0.8108323489145003 0.03789266128071538
Ni 5.732433234315135 3.175052047983741 9.435352868406195 -1.4238234517743735 -0.8254794094037139 -0.9293828303575993
P -0.09220776881391812 6.002927242095534 12.930352285158012 0.18134607661308122 0.0256629519837429 0.4053860925502632
P 4.151540928856466 6.358171138726694 12.732539760004885 -0.5277821729916975 2.5398678574206963 -0.5181659900581721
P 2.6878136908983286 8.943630779126597 1.5948635414719463 -0.6473742083254335 0.08678398766477957 -0.23904137444202056
P 6.363656360283925 7.987539204547095 6.256315995314631 1.021643267755918 1.375215460958683 -1.448097750940706
P 4.953531773188248 1.3227653131155128 12.919110796757222 0.018827931339780477 0.6873643755651259 -0.8365174123854303
P 4.1957259045159745 6.301122996936324 8.481653842727034 -0.4326616404367645 -0.25288805051712576 0.08612784213801941
P 4.757304173861958 1.1928105832905818 3.77820498906225 0.12113135479639785 1.0725053447131077 0.17521656667657567
P 0.19709494424254245 6.315474615148042 3.4612464688244375 0.5409619049067651 -0.8390813164578647 1.1367351012264553
Ni 0.8771043841553668 8.236129078001799 2.7516067257291734 1.6741961920688135 0.11100069412029916 1.2455819822285452
Ni 1.6368838300311472 7.147546892274424 5.021187433048675 0.07449977098078782 -1.318392281322052 -0.10172878190006997
Ni 6.0993734241495705 5.806534259204704 9.561625057527376 0.33348364998300634 -0.29639805798461855 -0.6104179428160584
Ni 9.033259483131276 2.731897598823952 10.593131537536957 -0.22992192863925565 -0.8969735607889585 0.2186952066855008
Ni 2.3568903662303042 5.4288257617235764 7.36335682443979 -0.8361291758080761 1.989240918620342 -0.37052553322765214
Ni 0.5998820216909466 0.5333868031750396 8.905708327777656 0.3502459570430097 -0.6358811200841694 1.2141828990919734
Ni 1.7260255713180164 1.510861553851937 11.892149608379738 -0.12343120657416808 -1.5865794240900934 -2.2422809213343
Ni 4.372640378694357 7.4792603828619155 1.380361977061606 0.9684561422099771 -0.8543634394279157 -0.28448819392091
Ni 5.496486015571907 8.464946427518207 8.125375380019921 0.0898752249955936 -0.49207752050123643 0.3835705393370684
Ni 6.638725980016588 0.8191071244640553 4.916861642941906 1.7358579307446689 0.1802970665232766 -0.9984619445434482
Ni 0.8727943047039475 7.962318210954799 7.244292602339795 0.014036423488408086 -0.7608079373672575 0.4478895131301125
Ni 5.165342179484497 4.584579416651914 7.320217440427204 -1.2637455405114495 0.8704873415729718 0.47914590004123286
Ni 9.311829721646696 7.604373049436159 10.19195143705733 0.07380814423040191 0.24993796674986635 -0.5247037911766899
Ni 4.9445459328482615 0.5744892129510456 10.244853964163239 0.5922351012594446 -0.005146577197945976 0.5406662280432172
Ni 8.34886554116299 7.8578325500689745 4.909182332761781 -0.10428805798681393 0.0030125615740786826 -0.5536430999188594
Ni 7.557992147558595 7.251885545547326 7.915136117586799 1.3401435569562148 -0.7733160971365972 0.7849415971906676
Ni 2.8473812667516634 5.523526228374139 2.8003810953046577 -1.1745303176973578 -0.2557687144990305 -0.6952172959506413
Ni 3.8608333742989993 4.732285315737433 10.104488338950539 0.9475852122982389 -1.0848029311335383 0.1979399764160204
Ni 1.2389250338697197 4.290407995214922 4.161365631387702 -0.25374988429678874 -0.31162593067796657 -1.2394648135872137
Ni 0.7237129656400066 0.6229787552764889 0.6338536434425515 -0.07413647410409814 -0.5406675135947979 -0.4731135778042239
Ni 1.0897858105581901 3.941246538568498 9.03854256922074 -0.7972947194393817 0.6147525656356702 -1.828789683178399
Ni 5.046468148483722 3.191526088607051 4.947696489752741 0.48968716589218897 -1.2255422899688506 0.8653934719898322
Ni 4.332498112390263 7.075118078981867 6.206439068642215 -0.648471040934038 0.30413862116198587 0.4869836509180968
Ni 8.895641981482676 7.722980629138508 0.9009591257450493 -1.6494886620198044 -1.5371484231524752 -1.0751625798302966
P 0.2878326369272193 6.070422112379325 8.494052097282024 0.42837124059152676 -0.1665288090945906 -0.4453438638901233
P 8.610061317425938 2.0898050974745837 8.12417818677217 0.36495806644220374 1.444580481816067 -0.2529415294628805
P 2.0518587573885423 3.5104039769911046 10.861920257007435 -0.7698903592844999 1.0468840446005778 1.1801348083683287
P 4.1792978037717035 6.761275201340466 3.7886802002806745 0.2942025929951966 0.8494060954226403 0.617679252364162
P 7.237111280448452 4.0107903274574195 10.548916241557283 0.553674210267111 1.6238920444976226 1.1154247697844533
P 6.776821256407192 8.220334947588263 10.337588203990943 -0.8097524855867603 0.17932544663862665 -1.338317045270437
P 2.6841936284300716 8.656377903472848 6.2488526025659885 -0.6146291526839286 -0.09238436457069252 0.06578707369813831
P 6.839078980480561 4.387350327962578 2.0313300630412687 0.011589504609812298 0.09282993674854335 -1.2803417543072337
Ni 2.841583654016968 1.705334249798945 0.43292180050268925 1.387338212364146 -0.16282744898360346 1.5410937809534684
Ni 2.0796707601586264 1.2868495156829862 7.252764834832129 0.6782475008655222 0.38250738817987673 -0.8221359468527776
Ni 7.214894754945292 0.7129189316610524 8.886155396461167 -0.5656509230130129 0.022678158323806104 1.7433596384383525
Ni 3.3882406506511527 2.2464784609484747 9.775601988519094 -0.5101842574042762 -1.421080598921914 1.0652082968310623
Ni 6.552340631472046 2.299502269335047 2.709932823857925 -0.28599511748373974 0.20863499423602133 0.7791746127999033
Ni 4.490512920332086 7.375748647411712 10.478921323056202 -0.16819668371531676 -0.8013948576506843 1.23419456632721
Ni 7.245362082723817 6.544319528591873 11.524897027367839 0.8414984105397895 -0.652913650086424 0.033943189714664125
Ni 7.6012491376615205 4.293770794360562 8.107368785031877 1.4711980844035952 -0.09539589770350668 0.5230315456805895
Ni 3.3884060342156923 8.777898071506256 12.453328200778085 0.7306874638327931 0.31307937529504143 -0.017125603936693087
Ni 0.12392006731439525 5.234307125897528 10.92281081028061 -0.9023255691294911 -0.8151101503542478 -0.3500613518360294
Ni 9.08944395519572 2.9459866231205236 6.1495287464889605 -0.8426320099236003 0.02084393332854475 0.04406562286064669
Ni 3.782138361505551 3.194291669325187 12.220377180945766 -0.2785702857745783 -0.6914308323250157 -0.9482192463378122
Ni 1.2492615066534478 3.4204445058573447 13.115364122415773 -0.8328772445296817 0.40808292265613594 0.7286866313526805
Ni 3.2858039083704575 8.38001277915129 8.672366818973508 -2.0100120897294222 0.572733283781091 -1.0485807155767102
Ni 5.710088077150667 8.23177397746892 3.409527353002567 0.19249617969262978 0.505613093093826 0.12820523092404373
Ni 2.918321627963364 8.837445342716336 4.026580782680632 1.3905065827897989 0.29741852882933295 -0.8865379672779312
Ni 3.0883910601649665 3.4072413846215968 7.958329710656651 1.3998900808872277 -0.38310825498866924 -1.786575254593878
Ni 5.454221326856219 4.8508010156817045 12.091146463614486 1.264460564300603 0.4386931913428251 -1.900420360141508
Ni 8.147648870973088 0.29226399765930106 2.4640184889584407 -0.7949143921326632 0.25660200903360325 0.8189359518582412
Ni 4.810989516506689 0.7031769209120865 1.671515148445749 0.1703427835240421 -0.6684210016934037 -0.5389279051958719
Ni 6.941102263849907 5.968564212574519 0.3108393283498456 -0.3276449318140422 0.9143894422725607 1.8301865635259256
Ni 8.114223014984464 8.937281887843437 11.836973976058989 0.9808411461378914 0.8934123258002614 0.9794653488362873
Ni 9.223257634859907 5.402878918042466 5.946834649789171 -0.7471764626267519 0.6689187672654286 0.898728595806852
Ni 7.325683367235239 6.456666239385861 2.8978489802685172 0.060821245052430736 0.06388471446910288 -1.3321456263524025
P 8.461032349824102 1.9451220424298166 3.9848930988456726 -0.36659431649404606 0.5983828660283953 -0.686882807943017
P 2.1004447734599676 3.5408529288180155 1.7667907823818776 -1.7677704631825493 0.1404215704845775 -0.0430351247136033
P 4.656080244387888 1.3649289340973147 8.129167257635782 -1.1349098750922584 -0.003843027895174026 0.7026930355023963
P 8.76890304319046 1.8399289074067937 12.68981659129639 -0.3764246723209066 -0.13986595509142363 -0.832195902191941
P 6.708104385340969 8.216567877507082 1.2232779110691079 -0.5625661134401021 -0.300727795708224 0.1553663647198679
P 2.083254070723652 3.468727318727114 5.970327385132028 0.02947975462667181 0.41948705072801945 1.5860253513588365
P 6.813683415347918 4.27902409318911 6.123077482936007 1.2094381853181364 -0.3215020521410979 -1.9498716727941001
P 2.1937394798119434 8.905004528830782 10.451784636507988 -0.7884262133051583 -0.35023978639542264 1.1062734423024883
