# total energy = -340875.8042828275 ev
CRYSTAL
PRIMVEC
9.20185150140233 0.00000000000000 0.00000000000000
0.00000000000000 9.20185150140233 0.00000000000000
0.00000000000000 0.00000000000000 13.46783980970511
PRIMCOORD
 96 1
Ni 7.440672223503574 4.083174312859581 12.513171623285706 0.39512507694388727 1.7186487659552334 -2.0112511043428456
Ni 2.594305560420072 2.5915358031597076 6.060810442684443 -1.095359623603462 -0.25940296881750813 0.1268255769676977
Ni 3.8125938735206173 4.36666494966131 8.269751669859268 0.06841808356308217 -0.4244137986056755 -0.5644743862064086
Ni 8.834504255062525 4.335489077242319 2.1295614563889873 -0.5245353839196257 0.602887181656652 1.2695845157907297
Ni 5.848126211753332 3.299102961892247 2.637407032205949 0.7922247611156421 -0.8053142473097487 0.12572900146940927
Ni 4.6932938656543675 7.062724582457178 0.3307798711430602 -0.44156177113987183 0.11294830476497322 -0.7927572365803444
Ni 9.508549069278423 3.884984838196 10.46670656544821 -0.641622907663953 0.4733292933594558 1.3829100013894633
Ni 0.33009157266108247 5.7967430737404495 4.401047667280423 0.7458073501933673 -0.48745724812040564 -0.015791972726934094
Ni 7.1138224630777955 7.565062850233181 1.1675005348708716 -0.6153189796621016 0.5378871226361834 0.10792796873224639
Ni 1.4124565787183474 6.755299930259406 10.813099217799445 -2.9918575087621115 -1.0392751219050682 0.5188401333070614
Ni 6.624633640900002 5.144433032444757 1.0429967253694945 0.5308034763165246 1.8212784624030183 0.8628102846436883
Ni 4.961122951435693 5.06883062164357 4.075421753085969 1.0093963320677648 0.49691273710635064 0.40528299131349554
Ni 4.710565740663354 0.7283044509649588 5.956192754164377 0.5288103571458957 0.9603265711243073 1.0001516735410452
Ni 0.4785974912585912 2.6943848958477403 0.940184440086915 1.75848261012272 -2.1655586887808966 -0.926332987787682
Ni 0.04345206232282004 8.98268166756636 7.1462645102443805 1.6997367595420791 1.3702357483559044 0.11725284567759806
Ni 3.489581285113351 8.286110721213012 4.846159621427827 -0.9860597142243536 0.1956342111009792 -0.4897015640698921
Ni 2.5650160675305664 0.10758252502933403 6.896220762778115 -0.5241052383607425 0.5999939192692569 0.4460380617436706
Ni 0.7548343086305995 0.33085992724992125 4.7223367489273365 0.31478890178698044 0.1306647482081298 0.9609667758114675
Ni 8.450014097696794 3.7034599163514246 7.114601859888269 -1.8144753234382558 -0.4439618959409322 0.858730715257676
Ni 5.011291445068614 7.770733430055157 10.952666457982607 0.8899814457418415 1.4897707051994602 2.4683312828332906
Ni 1.610351594138302 0.8202659131198895 9.227153694032127 -2.3734557764096285 -1.3400157731290987 -0.4188728141827883
Ni 3.5234532999817993 6.415843633465855 10.125673991516118 0.9645832895181323 -0.8038561747069833 -1.729466425396028
Ni 2.2433653531250743 7.983323802102363 1.1127550403698263 -1.473141067062579 -0.6186184763489798 -0.69177921680337
Ni 6.193572913784416 7.530132622457949 8.950968407027753 0.10881782753636744 -0.8733862603873216 0.038283983181863095
P 4.011519496293265 7.7105533221389235 7.394396112997344 -0.0538008478705396 -0.0015447187793005655 -0.8386285451911621
P 8.459059517586956 1.9921732146086637 12.308568458221878 0.3369808645029874 -0.1875840871029931 0.5603876177315446
P 1.9782692171986596 1.1465414780205956 0.255923730487439 -1.7081779483308968 -0.6400550489562009 0.9677161787201591
P 1.053703999615875 7.72247892150581 3.361276190813779 0.23054773514871263 0.01761745597144708 0.5383455503298407
P 7.727033837930663 3.144438244177256 9.154265829383123 -0.13833897692393593 -0.08761034022081685 -0.3472557640664342
P 5.084574989326241 6.487093568572183 2.3024614829507053 0.3363964527544271 -0.9917526508440727 -0.15383398723574152
P 2.721539559220952 8.279163323433691 11.186360355946492 0.9880734022202725 -2.0311714974158565e-05 -1.9887904613464844
P 6.849066795651824 0.89057173827634 2.256281071698656 -1.1283113959391342 0.6478336644603552 -1.990628542996488
Ni 4.009384666776971 8.487198779056046 2.3448985810681497 0.9218045037897092 -1.3604311035606569 0.35854959181269863
Ni 5.382061642051607 1.2638374773490697 0.4664400052373485 -0.14688506672173413 0.30176112206874484 1.1181388262815066
Ni 0.4174410669127081 4.654112382549273 13.12155478672823 0.8311440638886589 0.9758892014492548 -0.4765660551291986
Ni 3.4709015268457737 5.8610916203242756 5.8771764565073905 0.31025424714142047 1.2530124703646615 0.9653710755267502
Ni 6.116783464157358 7.637536631570834 6.539147521549452 -0.8493988963337887 -0.30738592445468993 0.40417741695414267
Ni 6.00945306985538 2.551277703445102 7.5969251807638765 0.5438785643329278 -0.12840423430872727 0.1733142074475402
Ni 6.515702124460802 4.782634640541019 8.380376326949321 -0.9358733231779495 0.7953576503176688 -0.5440302594194437
Ni 2.7519240724226948 4.558367119113737 11.19888591602227 -0.2832651201470863 -2.022398379208917 0.23538192331256239
Ni 7.826855521520158 1.4759953623821986 5.760531948255441 0.0372578559101939 0.36645496270270433 0.09128650352082343
Ni 5.11227256192989 0.9412757796586069 3.5041975058188775 0.6222589013150445 0.13409151450149162 0.709630643162494
Ni 8.700138821455058 5.4247582323774965 8.822943049009625 1.1748396214076604 1.6544979423089377 0.22375025261090498
Ni 3.6127480656116346 4.36746551072992 2.1678908480578367 1.1159073658478265 0.25614872354626855 -1.9511693085596011
Ni 8.249156086137845 8.800475808720899 3.053159559393485 -0.4696245908143589 -1.6194026412677012 0.5088280004866979
Ni 0.34117336225795086 3.3945813716382456 5.159825889405349 -0.22867751470919329 -0.6534471539923908 -1.2340017335901137
Ni 8.511574483317528 0.3411752026282235 13.983253875981823 -0.06539960845173252 -0.14177885584342034 -0.2920634351650067
Ni 2.57784344833106 3.247784236838909 13.45631077784539 2.2285602293140974 1.742805565707095 1.1672777499000024
Ni 5.003571091774774 5.04099502126947 12.30005674571079 -0.4509388414793975 -0.3517557088193168 -0.18318724358687807
Ni 8.202603920090716 7.725497128752986 5.255420242478527 -0.05425181936502915 0.1365741717140293 -0.1982834757983682
Ni 3.6958223797198535 9.196284243263536 9.113215450266134 1.631418949002287 -0.8895631272575002 0.5940225321771705
Ni 3.327251425212699 1.4410467309042396 1.9238807545305117 -0.199754661027256 1.3073061987112196 -0.27172086695291264
Ni 7.4463129583893 2.6829285909003837 0.7703467896589153 -1.2740029565733992 -1.412701373719283 1.1417122427260724
Ni 3.51841068543469 0.027255883738208204 12.8161977905318 1.3275176406620879 -0.14307237784386329 0.8310581890430719
Ni 3.9161883161690803 3.003447477588186 4.026102590333885 -1.4738581477342616 -0.8438987924511661 0.6933357626572123
Ni 5.585523777546381 7.444058504805282 4.070452753349766 0.53542940512431 0.6836272771201968 0.9030791594660641
P 5.836642301251885 0.41344378268047394 10.063142810576553 1.1907238967380847 0.08379353757788795 -0.8241583765994451
P 3.950879295808866 2.063294323795906 7.658055839925942 -0.5957253738008902 -0.4986304911284058 1.3838777646193716
P 3.9795798702111185 2.521224456892439 11.802958932286206 0.3176577386943433 0.5394408402765484 1.747899435290235
P 7.5785067550750185 3.8327275243036016 4.126936477573346 0.39518318387533236 1.1244850802145085 -0.06394719227592213
P 8.588446749606856 5.781891285640022 11.187020128689245 -0.3686439999342232 0.16507690713941248 0.8727023469464197
P 5.554706777330561 5.550354301635702 10.153404690784674 -0.13241386968875257 2.110855126590429 0.3979270651690566
P 5.420322940020368 3.5999850977706846 0.48521914349964945 -1.3517819125260913 -1.1948644012690197 -0.5959560017544575
P 2.270225557254659 4.481476449121682 4.761110590017036 -0.2091353309112076 0.307320104213761 0.13702899986326078
Ni 1.5472176919344378 2.2995978668064345 11.742879124549836 -1.4342083945531234 -0.7790427152077294 -0.5183685929872816
Ni 1.0087713594086938 0.543827575203024 2.307862049515849 1.2099907153874967 0.6181376800578193 -0.5148870621965842
Ni 8.441603605550704 2.0631010849172755 3.0378467585397533 0.30397792721440553 0.8538175942267746 0.7872954421348248
Ni 9.243811805555177 6.577078473054269 1.801350742146571 0.9360687270182072 0.8462649786904973 -0.46090135200874816
Ni 1.711277499891397 3.219359717977557 3.069791905732719 -0.7470916162224295 -0.44461212793042143 -0.48979566644559513
Ni 1.251037702102666 4.9475962299315865 6.868800165900503 0.886507371150312 0.8543714098477155 0.025487088527510943
Ni 7.449561211920558 6.0703417203265895 3.295850107435307 -0.9872398505753835 -0.5069822055272107 0.16105055958883877
Ni 5.853205633705894 2.939034518044817 5.2140201930097305 1.0254569850750532 0.3298283126186062 0.28472139297763865
Ni 1.2884156223405465 7.302975719702578 6.03343033395283 0.725006611397932 -0.14092422115260891 -0.6842101462068603
Ni 7.192617916302062 0.3508113813759114 8.110266102215025 -0.6940374167099272 0.8684050051226463 0.8513200246159016
Ni 2.607427400464193 6.0136307103743345 13.01095681500713 -0.2976113615664294 0.45983125887302095 0.6530067240208625
Ni 2.842120619486138 6.349571899947091 3.307688289214241 -0.2806449089154199 0.3662978682995498 0.2069259819647146
Ni 8.844101786034486 8.301615840760237 9.756035622250815 0.6547964689314336 -0.8386056623730266 -1.752926456191181
Ni 8.7437003858091 1.5409788367100943 10.220285586863689 -0.26385123439684877 -0.07196954835976638 -0.18928384340291915
Ni 0.8973654651378926 9.1552807935885 11.88625777156769 0.4796048419555224 0.25068024423252955 0.40683979427765415
Ni 7.690373662099123 8.926403144628184 11.562719757447578 -1.894406035626628 0.6848071563609109 1.0133020948800742
Ni 3.102376581595436 2.241681414325583 10.01886074126076 0.36679640520252316 0.42267598997896233 -2.8226776351979193
Ni 5.11241058970034 3.513552107914847 10.182750314967496 0.3928797325531363 0.08146977454071776 -0.7616893115309462
Ni 1.2625584200095656 3.14591054039539 8.514422456314481 1.1657903667211986 -0.41737000438501665 -0.013452268850163929
Ni 7.368980599531805 5.528647134269587 5.910549731031947 0.1854035345119065 -0.4166184709309729 -0.3053015311218355
Ni 6.1757581295449935 2.298668479818738 11.83428479488242 0.1954974284127988 -1.8430670190330192 0.0690991687905068
Ni 6.897809002323427 6.638537638310006 12.38555022654243 -0.911234698693663 -0.6691265124008605 -0.9597493584645987
Ni 9.055146247052651 7.15358366281878 12.884493931350498 1.2280753408033493 0.18245062253116967 0.22298920607516437
Ni 2.0011082122824653 7.314137565406307 8.393750297720798 -0.4111525627203951 -0.26966089910009045 -0.14186884445406533
P 8.22458714299773 7.2864123872485695 7.679281750465755 -1.5957960575923549 -1.1074422657996088 0.16753642442349856
P 5.951573424779981 8.642516828217833 12.954836563912401 0.341736891130734 -0.24420389247956653 -0.2765658537500398
P 1.9336494399378317 5.122606241010918 9.218695352258946 -0.3785751430050061 0.5622848347542574 -0.7359106599049455
P 5.357354671141044 4.810672681645111 6.414974058512019 -0.2354767970192138 -0.5337874986455129 -0.006217184554305422
P 0.47156175570618264 1.9324439974092344 7.000663616122279 0.5829570183916283 -1.4183750270652926 -1.1566053577878208
P 2.644290017025726 1.212233494903468 4.079314136212661 0.7324044465238999 -0.6073457316486379 -0.15156576002685512
P 6.517045594759849 9.140815483245332 4.998588289261526 0.38749789941593266 0.7111049137151754 -0.1631030712424933
P 1.781220772104132 5.160343033451969 1.4243720560487343 -0.9521802878680891 -0.16019926733213702 -0.5643100927144024
