# total energy = -381172.06007191865 ev
CRYSTAL
PRIMVEC
9.18393852190962 0.00000000000000 0.00000000000000

0.00000000000000 9.18393852190962 0.00000000000000

0.00000000000000 0.00000000000000 13.44162235354864

PRIMCOORD
 96 1
Ni 3.6289599116575637 7.85603301605751 8.501382879185778 -0.8588543853197339 -0.09852544447142386 1.4344176823504522
Ni 0.7804263153521982 6.76338309139866 4.811912750517777 -0.30895506871402273 -0.1961443179681783 -0.5845145926867353
Ni 1.339670324271782 0.30971731243137235 12.36535151701114 -0.9797471417427641 -0.3870736673943205 -0.3143947516723553
Ni 4.022344742568831 3.183511332171893 13.156041802271039 2.3496923554414435 1.5062530191251993 0.7870984956326703
Ni 5.14266587457548 0.35792472513941587 9.277380699289681 -0.4169102911397788 1.8844031587776449 -0.43291309432593833
Ni 6.489756821328849 2.3279723372526693 7.972615770891376 0.8662437358052695 -0.6220974360365158 0.04181153671914735
Ni 4.38908696726836 5.826997883972739 12.016461032385509 1.1249622769612433 -0.4288528082136356 0.031745667842713064
Ni 4.622000837015306 3.744567332199914 8.273319047474137 -0.8751958027922346 -0.33498594556014566 -1.0378998388240965
Ni 7.710394115917647 7.95323582341533 3.150904676158741 1.3379272660311863 -0.048114081898407456 2.7780288861402935
Ni 6.007425543964399 4.405149676080608 1.2214133374102014 0.04164621478587666 -0.8424062670660395 -0.35223187712478693
Ni 0.4410255946006057 0.36958465373177113 8.267605719199638 0.3759348771686816 0.5046831250803888 -1.5554634194115793
Ni 7.94710095235382 3.8480611375773965 4.54528464174867 1.0636545791906973 -1.5074686366998553 -1.2542082904449756
Ni 7.692687482075445 8.400080361585657 5.736750073403664 -0.710580408670273 -0.9827964700920494 -0.6432948960497373
Ni 5.1730830795990155 1.9691099319704686 6.116878807173938 -0.5522513617776554 0.7602628634970648 -1.4027630315596484
Ni 3.1719854890847747 8.45537685658768 3.9157862568422086 -0.7253835351213765 -0.4072786815872857 0.2935814144714299
Ni 6.0696191769412655 7.4090323509290315 8.68050550148606 0.29457231762978947 -0.7125095073721859 -1.424411720177676
Ni 7.178295074657504 5.168592133567461 10.723417564968946 -0.6422937084787326 -0.328642262730305 -1.5567032053559513
Ni 4.9744436691358365 5.522761546166381 9.748845540366737 -0.4130276682559209 -0.4710638943640468 -0.20445592315766725
Ni 2.1493079934942574 5.386729045922236 2.711188711218871 0.04846580881087137 1.5101132734115539 0.9223614047344437
Ni 3.8589900246480506 3.884769340620594 5.442177075913056 0.9590757294363418 1.6321018340019249 -0.3321425625740796
Ni 7.993250244395869 2.6085416649908963 10.121272623130752 -1.1783643467314675 0.6084682752888553 -0.6491199873719465
Ni 7.597477589418744 2.6068518202673667 2.1341664337351083 -0.47573584591841944 0.47614182310758646 0.932460955062291
Ni 5.507920301203206 7.807964280824061 13.347584783289266 -0.4174497085830166 0.594173455932738 -1.2651061683044018
Ni 1.413123466113037 4.021573291716785 4.693720969621072 -0.3693243138306994 0.046133561133268934 1.6853308685293942
P 3.5038746663615026 1.8922587328047245 9.32655058877504 0.1077896433821692 0.5460701726676079 -0.12520809596893276
Ni 0.9233807502057144 1.727783574360734 9.983886410320041 1.7473726162524874 -2.208682259443248 0.3617827540380156
P 0.41270691957341016 3.613980907613667 8.02748521274316 0.33620233446575004 1.574403707959508 1.6226378603755474
Ni 7.52227949922167 0.33933735157446016 9.191045246613127 -0.2689559026132658 0.27652677298198824 0.4058925998730364
P 0.7941682428512067 8.614690641473933 3.5839402440774393 -0.0360599789473508 0.8920200734384249 -0.013516546429196075
P 5.496541401135525 7.6010042218852405 3.2075209031540877 0.6474824517685236 0.43326199302492474 0.982831951315675
P 2.8376166483550405 6.000280439644256 4.845610458450252 -0.5521032662355653 -0.7919614801519264 -0.10820719053556202
Ni 2.499014011877767 6.659659687553307 10.602119775998885 0.10216689787875309 0.006678183351123983 -1.63634723954184
Ni 1.674608569201836 5.357514936870344 6.704049336937595 0.08956283596149736 1.370646867751394 0.02728660363009494
Ni 6.979977102049343 5.9126932161208705 4.447322322659133 0.06555953106836451 0.8814073309195852 -0.11692451580390187
Ni 6.899645190110676 5.814590382768996 12.864882474800735 -0.3597058169043289 0.43812137799975515 1.1308326196990912
Ni 4.9140960078406515 5.48479514351925 3.1228789687765484 -0.8691969048963223 -0.743895477882635 -0.3147364512824902
Ni 0.6036051880938542 3.563625371640223 2.7182190163050772 -0.6420836493504556 -1.1963322440637978 -0.9823416419428179
Ni 9.072537538224632 7.467157499055227 1.239297221269601 -0.5680240512308797 -0.5330102541598563 2.1959324159767473
Ni 8.74814245493921 5.696962495709382 2.8704850466215657 0.14954641560398116 0.046614614534745524 0.8221799127168357
Ni 0.7175227639126748 6.948770078296332 12.705707367389076 -0.9863021692524627 1.1492499458640144 -3.7603725849656398
Ni 2.505672367446023 3.1138970767134393 7.1750439603524505 -0.9386226037883125 0.3616156323325321 1.4268372989000329
Ni 2.254243677249969 1.1391757581882063 2.740196181649679 -0.9508471708789624 0.5103950878635016 -0.134438099207633
Ni 7.079439158331013 4.694508033168933 8.430451646915616 -0.9697026130225688 -0.331311582032352 -0.10103458404652277
Ni 2.1865304971054864 5.1269613393731115 12.24006238827561 -0.8207745477288768 -0.9023759627514523 0.972482746870867
Ni 5.84929648717236 3.248377491314777 3.6416447678104946 -0.9292090237838966 1.4746569894864732 0.3575769434867842
Ni 0.8820208822034524 3.884796892436739 10.25367287561318 0.793276342308608 1.5964496320159538 -0.7014334520636824
Ni 6.811268147857814 1.9762458523518958 13.28274250238704 0.5151709119855902 -0.8548486065944503 -0.27703739406981964
Ni 0.5514523553139173 8.049125327536927 10.089618341562328 -0.24230410435369237 -0.2778560333163731 0.42186814936568634
Ni 0.01283822792946867 2.5211473041805212 6.316729579153604 0.5242258230990068 0.4136889559890037 0.5708347812067975
Ni 3.8459029119794104 5.5410835039024775 0.8576981389110819 -0.7064427323528156 -1.2992324205641497 -0.8887933389710112
Ni 8.40542541391769 5.119678475972246 6.414718531665414 1.3827521356553607 0.2799046883152857 0.4254211568242673
Ni 0.15632624962231692 1.5732087018513363 4.331132640402262 0.7181142551534728 -0.6720567986737781 -1.6787951242934056
Ni 3.945521095219232 1.224834354581478 12.145742419280378 0.3316445398917385 -1.3084292565720692 -0.6415773991379983
Ni 2.228767431255015 8.505677288928835 1.0267165918373016 -1.870265176714366 0.4401543492693839 -0.10668664012597755
Ni 1.7852474788994603 2.674197642863256 12.150729298002533 -0.6654133252153315 -0.9178748297179999 -1.5708044206440237
Ni 7.815559398141229 8.725292815416699 13.33859278889357 0.07540068552850239 1.4814308178751971 0.19527939886472173
P 6.5106502819051 3.750178718754679 12.191592314920323 -1.523497922248576 0.585173823537289 -0.2736736198039093
Ni 2.0383476459416143 3.608029715326454 0.6726500393519881 -0.33805789961725 2.605878617093867 3.153138182083886
P 7.803170264814916 1.007533180649753 6.7810428871534185 -0.49464528122841267 -0.20592813682781955 0.901939389434666
Ni 6.526740542533492 0.30637803231465816 1.9053899283791964 -1.7881780803046234 -0.06411328554014119 -0.5460506322835822
P 2.6690913729378076 2.033663837197048 5.307115317991069 -0.19004103328391786 -0.40808472242834876 -1.0606975534449021
P 1.601081955850862 6.246511020527714 0.9070021139016767 1.8765502383921295 -0.9533573388953258 0.5708327243242685
P -0.008727496960708259 5.621911348531746 11.038489113671067 1.271623143487313 1.9995101617568336 0.9840995051741889
Ni 6.970269678827763 1.263085459328768 4.187011845331962 0.8966573151001204 0.08534391278414334 0.5720097753515052
Ni 4.83713460141033 6.632576252283258 5.1895278402618 -0.05974498126911646 0.09000403726397403 0.1914494835956703
Ni 2.5544574498992296 5.116271234709042 8.832194780451255 0.6668186902032903 -0.4250648019261132 0.48058314670839164
Ni 5.041348662673413 7.683990292112495 10.561526766879311 -1.1238595308153678 -0.018816618485870823 2.807747496250648
Ni 7.640807412275338 7.634011297626359 11.489858578446192 0.3625222033072015 -1.964297618411443 -2.2982875186069065
Ni 3.1630035970216652 3.498777580374769 3.1971843801305404 1.3242006604737129 -1.8428371624104003 -0.5888782689720696
Ni 6.589273981242807 6.754281808132259 1.6378213842856906 0.4534983746764577 -1.4055215681413924 -1.059107069029331
Ni 4.348429670577784 0.5759404095031548 1.0484788530159759 -1.6979814674138693 -1.1581595896488184 -0.8634769716934098
Ni 0.7904276246126541 8.82956725558494 6.0093596814577435 -0.18749924069867063 0.8550702356869532 -0.384335442527551
Ni -0.010387953080350532 5.720758080919522 8.804880828319464 1.5955492316888713 -0.38339390454988814 0.43574182202398504
Ni 8.483167455138773 4.649800619505114 0.8924593469467346 0.3248018059382922 0.07734032575337647 0.05950689711638139
Ni 6.418351697821003 0.31953218773591713 11.39725967956612 -0.21703453115362625 1.4347969200667419 0.4799277725125799
Ni 8.687923368786032 0.48178299622317455 1.9602997795613268 2.6381567604012828 0.3673998431144769 1.1425115986989163
Ni 5.427156744144942 8.872153179405634 4.871606515376465 0.2820885833404819 0.21509437670811987 -2.8175567690315866
Ni 4.40281695564704 6.040248940931221 7.361184030224739 0.24993976652207922 -1.045624461161864 -0.004433353181005268
Ni 3.15239614780603 7.901796582673535 12.287229260727264 0.9894882802899282 0.11142132659748553 1.8524068083767065
Ni 6.205504734165974 4.312906195628799 6.216602605708981 -1.082122813198214 -0.4589807379472676 -0.32946398730065196
Ni 4.6255733891753765 1.3310374218798366 3.357797692344943 -0.6402954471017812 -0.006196101508382877 0.3830987419069725
Ni 3.433498143989718 3.5930139755276973 10.835439575837027 0.1118175335946397 0.35062648031088006 -1.593560997614249
Ni 2.8899375472134587 9.248777322162328 10.463563529395904 -0.3108355735661873 0.0874290774479462 -1.5643018436388156
Ni 2.9671469199890814 7.986821487295483 6.280745988875006 0.5247444146066382 -1.8558220047058427 -0.9674750092436307
Ni 8.19368052290844 7.583481266817334 8.071774757195456 0.6262016880128765 0.3026566372998207 -1.656022349373264
Ni 2.716590703970937 0.8041144484793736 7.362985000606718 0.6353532726051574 0.2544155429052457 0.27206025257020244
Ni 0.16535314298512882 2.2368584812627854 0.7322969661232307 0.4464391538368311 -0.29097200187304084 -1.5841836701644072
Ni 5.12061523772116 9.04899910329851 6.8492731230475465 -0.11365150147958492 -0.8907540622418079 4.223588186929861
P 5.413959424211724 2.2828791981628265 1.4182655533994735 0.14914892305524638 1.6515424592250398 1.9004581553579787
Ni 5.64904070349537 2.97952686937668 10.196908787204523 0.07115913664332907 -0.2571830783480539 1.118005643137752
P 8.651013119091107 1.1386706415588903 11.548155466226355 -0.7421581834765542 -0.5663857442965085 0.44798952904308653
Ni 8.662832848217102 3.6080480832038835 12.282941279741308 0.29475306618202785 0.016075565405623927 -0.5531116528954216
P 1.4749864772961696 7.606826839030446 7.887624846842673 -0.35749878195068113 -0.5192756781825831 0.36441042146884983
P 6.687193135820385 6.507794076964786 6.578357033292483 -0.2709333380546108 0.13841919534256808 0.9876777094437507
P 2.381670826918313 1.526802259525272 0.4678665738885842 0.21624880202753724 -0.8736197165543664 0.5505572619046841
Ni 3.9301104460557377 7.458359285766414 1.9027017895173641 0.3819175771146777 0.07598381172548205 -0.39376110671682507
