# total energy = -381172.4358522861 ev
CRYSTAL
PRIMVEC
9.25529031332500 0.00000000000000 0.00000000000000
0.00000000000000 9.25529031332500 0.00000000000000
0.00000000000000 0.00000000000000 13.54605291263058
PRIMCOORD
 96 1
Ni 8.348410701353847 5.216235349999192 -0.13318270222935508 0.33748737182576066 1.758451242664152 0.2584105229972517
Ni 2.505499643535307 0.11970792504704539 2.5450595309660002 0.3994959523180733 -0.04251396210281066 1.0094318132913906
Ni 0.93389581482504 3.9150803598384627 12.789424784895987 0.6810839418730529 -1.0349250724664885 0.7011544873706828
Ni 2.4791683425643125 2.185868192205501 6.425462169019534 -0.32227929662675464 0.010512469495549638 -1.9648375500753132
Ni 6.694601383988265 7.427870270465941 4.018125060186676 0.6666304854518842 0.37258550108047445 0.32894256757954315
Ni 0.6797103724323507 0.7165038535852828 5.407232148764721 0.3824058296050059 -0.4845740130353397 0.06917990142977118
Ni 6.072377470814628 1.41386591572304 4.057164800301176 -1.013379485085229 0.626292705064786 -0.2969721853205337
Ni 2.3547309641618437 8.504353088018272 10.007742650455596 0.9723513634993256 1.1885184044463337 0.24746045174365122
Ni 4.578129358630045 8.531147153505453 11.558806213350422 -0.9317323044263824 -2.665133546100442 0.8986828301705813
Ni 3.415998084421973 4.779737347751724 12.458061327551828 0.7747415167292142 -1.4087524163738643 0.6280659949151247
Ni 9.035653029051645 3.70160708852177 1.4225927289692792 -0.9165468549351957 -0.9624559587624844 0.015256926159070497
Ni 8.41273496910373 0.7479570322214262 12.810150156517901 -1.4999188493770554 0.047614773664485736 0.14645903492790907
Ni 8.669587786167716 6.330359433298109 2.2054866311046983 -0.3321312497201699 -0.6851023190038266 0.5583240503342966
Ni 5.875387871564487 6.330479752072317 2.213600744131507 -0.7353059364414111 -0.40797827875747156 0.2961005813488578
Ni 2.244120989503019 5.693447374380723 5.469773847598254 0.21933361160044806 -0.11703995833584357 0.18698013497040702
Ni 3.6165139492854523 4.937105049126003 3.55433505783261 -0.3394912896296669 0.6307108887371395 -2.338698575434101
Ni 0.20482605356723732 8.586179109770315 3.446088884322464 -0.7313713772736953 0.4976758405246203 -0.35820429265813797
Ni 8.678556162491404 3.932137859905086 11.088311678685852 -1.039719922751971 1.0094115015764165 -0.006561712377917733
Ni 1.1946636196959621 8.797625472506112 12.427365231664165 1.3661618353968472 -0.39481525901295234 -0.9297206733129924
Ni 8.69609493765486 0.8411143059168048 1.5015662702435508 1.115324496761163 0.5188434757411711 0.6902411828922886
Ni 1.2167374871180436 2.2145133157574266 2.649838672720879 -0.6479087406726648 -0.9692079327743373 0.9902439275090301
Ni 5.212662807934234 2.878543375323324 11.746323948483264 0.7308427584637349 -0.04920063009436687 0.057110886080379064
Ni 9.136359843064085 6.518121508095496 4.672535170990095 -0.002255885913712244 -0.4717658055270778 0.7303704468130067
Ni 6.480174817768228 1.2518057821546338 7.763920606830033 0.4943904849051292 0.5195032208123569 0.2555830808507856
P 4.028198518175016 5.314933766011384 1.1813110123459256 0.1728210698612056 -1.0552812675253376 -0.3892308229466393
Ni 2.2490170380842693 -0.06461395833701393 7.229149006396232 0.8197797879157752 1.1236466434736132 0.5772147165912124
P 1.0534834210978772 2.7958473562808503 4.727531957151727 0.18842046696135936 0.15301611932013648 0.14271422317349616
Ni 2.530016907602852 4.1625298019335455 7.5099591424631775 -0.7861181339972719 1.847124476931845 0.40189684845008206
P 5.206665379804462 6.1097133119805305 11.015148608676814 -0.7959549175820356 0.8233808750034722 0.3267602152162437
P 7.005255203704058 5.909521382278381 8.41835755797539 0.020359537492958484 1.2023403979310907 -1.400182415316666
P 7.456709755114664 2.7837136706664483 12.818386439376983 -0.628198406727931 0.31776932457154305 0.5417023826172155
Ni 4.598009722245405 7.238914263216793 9.154517797150199 0.48254309864823997 0.7583247659340875 0.13638416719041027
Ni 0.7016796550737742 1.7001598113067924 11.549852645491251 1.4159779875880258 1.000435009109419 -0.08392826338353933
Ni 4.751823392135373 5.309926653946249 7.751836899783379 0.4548276350108425 0.5467741407131681 -0.5886622963065217
Ni 1.7290548276974587 1.0612948861311 0.6521194264482972 -0.5881640165138645 1.2033726958503468 -1.5263269070569392
Ni 7.896400832523817 8.668449385457897 5.652091035098194 -1.2364404249385932 0.5952476628335233 0.1683208679980069
Ni 7.160068444948988 5.698241614768412 6.162762785058051 0.36119834228945535 0.9790989666358041 0.09692981784952984
Ni 3.688492342133053 1.2856523788684922 11.027936643317103 -0.8724928020387748 0.2267982954086094 -1.0403483003645888
Ni 2.9885980325627255 6.984097610024025 12.799353860355277 1.114396585630255 1.005659233622836 0.5471713761515867
Ni 4.155949290513378 3.986707051653762 5.533332702838362 -0.44900408635052996 -1.6975986301531536 0.6683947764411585
Ni 5.464795426933122 7.238756923281289 13.564339701243325 -0.9224547357791985 -0.562757917735934 -0.9353017669451956
Ni 3.005072449338954 6.0705911997821485 10.40415413925295 -0.7132507564135846 0.13761058339834364 -0.025762453676084665
Ni 2.981767628303817 0.26566015133604237 4.984541188622185 -0.8767358935858449 -0.17546544946258813 -1.6733821808079503
Ni 9.482785359881072 8.081219724998261 7.233239844719317 -1.6674285343276767 0.321650147683188 -0.17491960426144712
Ni 6.389139782144079 4.465622049454857 9.790057296512575 -1.2566145858936228 -1.0315623266418428 1.5322216752748192
Ni 1.073872825681041 6.2041265285728375 12.034638273944685 -1.4842466900574374 -0.5412151585681517 -1.0836374500705273
Ni 4.9839275628737205 0.36326459203197026 2.011642905035592 0.7657724804613844 -0.24914118188018386 0.46632329435526787
Ni 9.386160128901395 5.7630471576151265 7.775136167644321 -1.1279303584506315 0.18573237860623495 0.24003150626943182
Ni 3.548228417277017 7.335271090777082 1.678409879046041 0.8591192089453462 -1.2611870357556536 -0.8327959976697852
Ni 1.2450031437666966 4.556536766304798 3.0776635424059857 -0.020314286077319853 -0.12127662212501049 1.5144134434488048
Ni 5.843799565689618 0.7248576786314761 13.133033916867465 0.3330547899757038 0.09362492184601297 -0.22061144987160716
Ni 6.09919930217278 4.349218263053381 1.1149727934216018 0.01708652316864154 -0.20186245139887812 -1.3079610586863992
Ni 7.483587118214759 6.390204140531307 10.436014550663339 0.6556927554934578 0.44510552262707215 0.39218244937579555
Ni -0.4293658755240066 1.730850354020261 7.1914096345722145 -0.1494829093558974 -0.7495063963115092 0.10786034871910456
Ni 6.979766134152523 8.157631401910926 8.33514416820382 0.03347756293215525 -0.8363158378975856 -0.5808703110659287
Ni 4.939252276481106 0.6095126974430342 5.904995545310081 0.6499867062476161 -0.40253808157850673 1.426309451421021
P 8.910086505229682 7.5557598721591575 13.036003304171608 -0.7272290729705476 -0.7897565020808076 1.2124615455254926
Ni 2.085420526322125 7.0079670037689095 8.083877844379234 2.142478667032981 -1.7005975648804779 0.06843993793995311
P 7.245957539153147 9.323409260506546 2.849208732642281 -0.16718469751103465 1.1995530649939405 2.2730673105875367
Ni 3.58820201618518 -0.16644529012378656 13.76468619429388 0.23426220788582236 0.7085044999778508 -1.1669183096780549
P 5.82056878697707 2.6600074601995543 6.082584204983631 1.1883363703425147 -0.3542046845804416 -1.4897380521893118
P 5.676602745991545 2.502047420244558 9.43399979905569 -0.050816054210602805 -1.9075430872292178 0.941336917395682
P 0.974702389862339 5.117314807019231 9.634996013486969 0.15407284271942495 1.8395736611677802 0.6278909027898413
Ni 2.2725810072484705 1.872326721908705 8.684089900575957 1.7848433595044357 0.270425802290573 1.5221051556661076
Ni 4.516461359203073 2.395694879134646 0.7717968090372743 -0.8707387954621456 0.17683636166818578 -0.5340132415030738
Ni 6.672342410759708 2.160249548589433 1.6314596422918541 0.98403368493326 -0.28532354533801185 0.12968258680051858
Ni 1.7938973917054684 6.851025045749522 3.1726616933467526 0.7167456569407205 -0.15951432544997043 1.3231760758639406
Ni 1.3861555764938105 7.775387911541127 1.1432079076121864 -2.0473416794178165 1.7486591962743951 -1.348617912975813
Ni 0.43613612039581073 7.298536843482222 9.696169780410656 -0.7490921915922261 -1.4379899730827428 0.13195775598794046
Ni 8.888068169549543 9.238732609334795 10.477195039429716 -1.2183303456014438 -0.36416668088915993 0.21448579658984349
Ni 4.348644435053311 0.34977315532707787 8.47354407758866 -0.1585445053375334 0.08838835603742197 0.2713447145604166
Ni 6.454491387119894 4.913263421252089 12.287272529679118 -0.8361073214312051 -0.06617273917233119 -0.3132462398902089
Ni 6.067277805846255 0.16074495681340495 10.307490036053913 1.3817481198708785 2.197307699057719 -1.6487900932908828
Ni 7.232898324506372 8.131827652488383 1.261889420962331 0.45431649970237886 -1.1450893867284215 -2.1739633679048236
Ni 8.216004517982652 2.121997433681482 9.785872054228188 -1.6664304320804657 -0.6937851914898051 -0.9567895045053264
Ni 3.808015161373624 3.9460207953906714 9.58014823749955 1.0809097667267191 -0.2424131191277309 0.8393425405390512
Ni 0.2666189994135802 4.253611114009313 6.166894346658561 1.824229317501226 -0.3398219334962083 -0.4540251937142052
Ni 3.815641520600373 7.6637968761079875 6.575985583199418 -0.1723472155485806 -0.8721264198382915 0.17708961532957243
Ni 1.412218474045417 5.50935039455153 0.9261528389402127 0.4159024187005547 0.6691252268492799 -0.3498872881520103
Ni 3.537557067533763 2.346586308676967 3.4155020008606214 0.3550824591997046 -0.08197036832622012 0.10782666726769172
Ni 7.765938260120604 3.4148874495831265 5.284979018878651 -2.1636064501505317 -0.4625113768083454 0.5095306829806773
Ni 4.472295113778262 2.9063647780364383 7.6646955647984205 0.1400878412942426 -1.1890940744441458 0.22103851010669673
Ni 5.912918073827188 3.904001777320965 3.4711087106545873 -1.336887254802446 -0.921297996466936 -0.03418821584593467
Ni 7.5906060402279785 3.9114707966122104 7.825731137727991 -0.2904289848853772 -1.2572596756767895 -0.8081252343959824
Ni 4.218218883811392 7.9831599240184055 3.611662326097756 0.9121584960595129 -0.1790444250630981 2.1456321250602985
Ni 7.149665498625123 8.094343726677302 11.938637775061858 -0.4900568905267818 0.07641318595341678 0.9619337677104272
Ni 4.960807847645059 5.9894223036430905 5.131204221208042 0.4321885574550879 1.0227436999089483 -0.33074542511623684
Ni 2.3421715351925507 3.4084272569371667 1.0828217658950496 1.1689024299876192 0.2160461990984279 0.01900045236190276
P 0.7980938654340712 0.44077116978993164 8.751535977752031 -1.6045560631731721 -0.5007359675071827 0.27702428144369706
Ni 0.5208868138901508 3.3163186076354663 8.577333828807932 0.008060922631263538 0.9702394593626451 -0.08732931864528831
P 1.6945881265319105 7.760477638829608 5.552540206847187 -0.25168400290669557 0.389520072052284 -0.5332113144270687
Ni 1.8404607573241236 3.531596660565285 10.670957318943973 0.9553679415674515 -0.1913137293487544 -0.12305299729914292
P 5.824548561816272 7.766262195281935 6.1606905255545685 2.1012641404678845 0.5885046876827348 -0.23423958217800306
P 2.7346606319507116 2.4733467649506897 12.525926669379565 -0.08320269807142446 0.13477337105986467 1.0344633023387215
P 7.471545985503594 5.103959423082097 3.9560026260048082 1.1793663056334205 2.2055444851452144 -0.5484361017966232
Ni 8.37841635258336 1.7410959604086234 3.9858851818730154 0.8723362218562524 -0.9280846803714661 -1.4694273656564178
