# total energy = -340874.12770878576 ev
CRYSTAL
PRIMVEC
9.21840914251710 0.00000000000000 0.00000000000000
0.00000000000000 9.21840914251710 0.00000000000000
0.00000000000000 0.00000000000000 13.49207359114716
PRIMCOORD
 96 1
Ni 7.651777528199004 3.895275731037501 1.4109872452195196 0.2631284972982113 3.2794297409249844 2.0815265528296414
Ni 5.834921235677382 6.8745826569919135 7.0704812297308575 1.1526191194465634 0.17224154320865176 0.3497998706445266
Ni 5.487995619396705 2.8500556089041025 3.0394948422337924 -0.5466831236612585 0.017151572078622074 -2.6474268728492985
Ni 5.563900001722663 4.66301251428413 0.744888955751501 0.07802706740775595 0.8440445740004109 -1.7996572845888168
Ni 2.1924695986004985 6.770801804887756 0.9064581721895137 1.1553126071183264 -0.2862982505464553 -0.10791022812043351
Ni 0.8613801506235759 9.29814855879006 0.4449228383786038 -0.3500392403488423 0.18641989159156283 -0.8880050387417611
Ni 0.4198718110564287 0.9450252312540158 2.8256452610295417 0.9054803127083889 0.603742844788728 0.39788669884942446
Ni 6.708946278362717 4.644068683135254 6.809125497946258 0.45665414669661997 -0.02532588035929832 -0.9467388051375437
Ni 4.714985906020073 6.319855657860648 9.400831498344422 1.6959983755455694 0.3910303380492233 0.06654297802755636
Ni 1.9483753382642055 4.4173879980010184 0.29526749414341685 0.16835969165574233 -0.45120109400184877 0.6257026368892709
Ni 5.224247710394036 3.572364071030703 5.0880364943084935 -0.4654928280341725 1.395173135027533 2.086756690880329
Ni 9.280357028805959 2.8667962402259315 8.46457666171573 -0.7557976286368597 0.24312737158593611 -0.14340430726198528
Ni 1.2437293483912533 8.065573485673815 11.315262809817197 -0.9524631092158307 -0.2224428466533911 0.18333456779801977
Ni 2.8073375001236203 3.4571431729626743 5.884554073287437 -0.28522301520440557 1.645771361069217 0.2585305935148838
Ni 5.945007479755181 4.285970354760933 8.972039954431715 0.12159801002017122 -0.014097358633330562 -0.38309205703875315
Ni 4.3624739336925735 0.3780285293202427 0.6318961472156784 1.3193088795990504 -0.752811292315026 1.000268658734884
Ni 6.419792433279121 7.5712547228046345 3.804886462149875 1.5556356833233855 0.16600764648379798 0.3710855194961803
Ni 4.20857259012543 0.26029100550834894 9.289468504576055 -1.0817746858301756 -0.005224481623732938 1.0751209279590839
Ni 4.5035063778515285 8.050814812355396 5.450069239779817 -0.049947535562720434 -0.07693897654989974 -1.6586410179430335
Ni 7.927666082273727 8.84635431810568 1.5343857941937125 -1.5065893194186957 -0.5362151342503991 0.5815243997101598
Ni 2.926761992840743 5.716685917762306 12.142367070913886 0.10789891526652384 0.2744719473354886 -0.39999320366946595
Ni 6.57280880955172 8.479009925185217 12.935309750759236 0.2742662590825857 1.5574894487026725 0.019821919821933605
Ni 3.8101621578026736 1.3890483528831647 5.018781350623746 0.4320690011580881 0.4681585477917937 -0.8321735335944377
Ni 2.5049828928963813 6.334623549588385 9.867010144928903 -0.9625804001554906 0.45255375137500126 0.46867328264468316
P 6.183782717914879 1.2262235890960145 1.5097901562918559 0.40182151512745634 0.20003516838215227 0.018560793721322872
P 5.991929183184756 7.294518075072638 1.1139175520543971 1.0411515129921747 -0.7939615413010906 1.4002500353298077
P 8.441020860384965 -0.15166219194375646 12.09298589587822 1.2986032716205826 0.6329775732841292 -0.7620063285507328
P 4.00052231022325 4.293971934049121 7.476430477194027 0.6064610150508394 1.0719196474129669 1.2824616288637138
P 7.173664728911197 2.255578828792812 9.241571493440615 0.11204944709978766 -0.11278735370707674 -0.3527162729603732
P 3.8966308372072747 7.728723590777916 10.911431030974414 0.42289299108577494 0.5340623495734544 -0.10966423469706274
P 8.218765011723459 7.766841713308622 7.570982779729747 -0.6382156817546171 -1.0524944488088197 -0.312090786129527
P 7.55749163769258 3.6724575594075852 12.80334361216472 0.04439086741054935 0.4448962348297435 -0.9982359445755712
Ni 4.386331177008043 2.17771092528208 7.099029721548353 0.992063240105956 -0.7773478440038096 1.5464846129517367
Ni 0.3901710180741596 2.4129831679008675 12.166126599090585 0.3662359047133628 -0.22508645492382526 0.7442842286806214
Ni 2.8039359070852097 9.15790889783247 6.733907887114506 -1.5008287627858345 0.19050486029421385 0.4459812403638061
Ni 3.7351611795898982 5.628797603322705 5.11344243038942 -0.6571816813341586 0.3172008536625827 0.2615896920561817
Ni 0.4886549721840865 8.676486689599434 5.62919030755966 0.5319003089251291 -0.295167270901311 0.1057345606253534
Ni 6.799554023551184 8.89829083620435 5.8132625829843 0.2479656735148439 0.926086933215147 0.21231090042571177
Ni 6.765667150897525 0.2210657520185283 8.295371836839463 -2.4410737326689183 -0.8450159367747447 1.4789142221009304
Ni 8.251352088663252 3.7279616019123933 10.645867095336062 -1.110093587379527 -0.4892989293148347 -0.8227841219597379
Ni 2.5691891137975587 8.883559818113886 4.014620945434487 -0.44898814551092997 -1.096793527836511 0.3872708710067911
Ni 2.654155192483295 1.510408711557106 13.227129559817651 -0.7077856195339552 1.0957679147854742 -1.0597809551679038
Ni 3.608675385335044 4.322060427241639 10.225184064259635 -0.9867531407469522 -0.674090027053723 -1.4804717963960374
Ni 5.213711068543347 0.26872585003449073 3.2514417437547696 -0.5511663562435928 1.021717315526963 -0.07347827169480893
Ni 7.240212425779194 6.024092213295913 12.611526951071871 0.7788462829262071 -0.6511393317948205 0.24451576729303054
Ni 5.1063073815771425 2.343522453688323 10.255069225428265 0.5456109736430023 0.8754362009378148 -2.099965219150803
Ni 3.9909536013509714 3.0558289417046893 1.0276996133832508 -0.6942019673122496 0.13450906165488447 -0.0543009274354097
Ni 0.8618263216345761 5.529460024509914 5.207144795586002 0.9681465813893585 -0.7040868305261293 -0.14685061393937288
Ni 1.96401897887717 6.000843384995443 2.9910981933133067 1.9281224540424664 -0.6901406527586824 1.6607763191184817
Ni 9.067457865602412 0.9732888742235793 10.152138310663247 0.7281171320024556 0.6207527490831631 -0.5051829475349429
Ni 1.736822062821115 4.793665029550805 8.022549325703968 0.5935013695663779 0.41011203727102274 -1.0116285638323932
Ni 3.247415142564585 3.791135360969934 3.387711035819016 -0.31486114978581264 0.3841402957976094 0.09604201592793782
Ni 5.811598660102368 2.362447848018562 13.133036334065979 -1.073917394569286 0.06729194037843894 0.4110157800322147
Ni 0.7205975253571445 7.9156452765228105 2.4485284323908676 -0.6027740531175554 -0.5495473325829309 1.2825629303282684
Ni 7.788117802015001 4.234218204848628 4.571492146573163 -0.16935316591726318 0.670479169774013 0.5266586009102157
Ni 8.516252298830695 1.6603461391174297 5.323324408223122 0.4736146858103585 0.06580147187584152 -1.0973350021622779
P 2.185140963192539 7.262954241567163 5.569690084615417 0.6458431163928877 -0.24417843855826982 -0.35696270694155297
P 1.541235072317126 9.729477930788065 8.49818513840798 -0.008855136397784751 0.0093673001475129 1.2945715247533705
P 1.1818092930009862 4.077606648941936 10.00260557127199 1.0314453414480045 -0.9441381342899029 -0.21141589941526817
P 3.8314659017370056 3.102667679450401 11.907955827725418 -0.1569627626727103 -1.0407339658387817 1.7601504847434462
P 5.896472554694922 5.7092005693959385 4.900172687131283 0.660053860675631 0.23166693635482039 0.5326150756039666
P 1.0853939499420606 2.5801866761141565 0.8867021991797057 0.12248118395607291 -1.338097215950147 0.8661102955511987
P -0.021102782611195366 5.532649594134007 3.145056691018224 -1.9841393357277184 -0.3653671289551643 -0.2534930310909763
P 1.7956723879084255 2.2175528903552872 4.538139941659959 -1.0291611733995178 -1.0540201414247268 -2.259203408121251
Ni 4.460640774521955 7.248527430984199 2.7604913876504544 -1.9409054647397477 -0.518671468939681 -1.0737101636544863
Ni 4.655988086383672 0.7216751574064406 11.567820491748519 -0.8284186945376959 -1.9707922249968512 2.1549937687808565
Ni 8.750252400963573 0.6352304458660669 7.5030910387831575 0.9437882071496521 -0.0010767780039465326 0.6286311233899754
Ni 2.840579084125006 1.5430971909993998 2.5162984903344565 -0.2814478644326895 0.3151614546350508 -0.2622358102806129
Ni 2.303763454298979 1.377230352137248 10.802307188829435 0.16974860158346894 -0.3581549274774412 -0.12774011836216712
Ni 3.403150949586049 6.915005381852167 7.425025861313017 -0.4966188600150157 -1.0983161351286246 0.5001155603143644
Ni 2.9725221766962266 8.161795242137059 12.792429015531985 0.4618778569894046 1.7071999006883436 -0.15848665551640448
Ni 2.500806953475242 2.542787589510269 8.735065071611858 0.6159190751399457 0.04196631712945676 0.008293864577676039
Ni 8.083872028170418 6.7821220115304905 5.540276906003876 -0.7749502903059106 -0.4448237297205952 0.4157558658203614
Ni 8.895829520916394 6.344284442553846 1.0087013936193976 -1.7070878005905117 -0.3578397102298676 1.66581182465986
Ni 1.0358634366754378 7.287650360130588 8.461729095077342 0.022464756761419378 0.9882659778470528 -1.4839091042123607
Ni 4.946616876958176 6.764763746784344 12.787868668442279 -0.40264683924222916 -0.36871496238147466 -0.4903916481583812
Ni 0.2607408638830765 3.3219644187207695 3.280678850748334 1.7932367257744537 0.4015541203986826 -0.7687917269036825
Ni 7.5906226007821465 1.9495829498848882 3.1564976588230267 -0.9178000106160065 -0.826777302279531 -0.19490324647222565
Ni 6.904745292281024 2.166575086825709 6.878177836626007 -0.6258952125160511 0.8146640639557647 0.4348573625365027
Ni 7.247430440275335 1.7848591937781915 11.461206822460882 -0.2602655739281195 -1.688671502866853 0.013686239237840946
Ni 8.548811720542535 8.048842072761303 9.815294868653869 -1.2963486712584513 -1.6197391986715137 0.21569781462007367
Ni 5.743751167520506 4.423638079518749 11.421701329327787 0.18455944134405633 -0.028893543105898624 1.2275107265491312
Ni 6.33042917334861 5.434805397630762 2.711772094403832 0.23811063509763508 0.5480784613468883 0.7397678288675066
Ni 1.2823729202530962 1.7498108015504419 6.624001402018412 0.7736310572738546 1.1292192524653843 -0.293231744441495
Ni 8.489629532719768 5.245403959779277 8.402256527361054 -0.3361264869224921 0.8720487725228206 0.3521904823638902
Ni 0.14466449743032014 5.580078310076083 11.043950274128022 0.2328445016026893 2.759538797755906 -0.4762711495965991
Ni 8.211519341999363 2.005206831710833 0.7889898259297111 0.6850172154891879 -3.557596877723873 -1.6813888531625107
Ni 6.199205116704207 8.259731622733485 10.604136278193558 -0.31922096941640504 -0.7455342990376386 -0.13192844541190182
P 6.056292117044342 1.647938160175149 4.815617749501137 0.9202518145906087 -0.6459310481210037 0.5801858834043944
P 2.7105810759199223 8.665479908873518 1.8382946252319985 0.4151010058451819 0.38793164451924156 -0.3035691218117611
P 9.216030968583645 4.03013184095327 6.53967600278029 -1.0447783111114843 -0.3021658137063312 0.2532253792518865
P 7.066952422643856 5.94343113176177 10.37402818847482 -0.17137842387740806 0.6845402758527694 -0.7830058136205355
P 4.747646730234412 8.924139255932548 7.436898250673911 2.3137537325633057 -0.9676770979521078 -1.6368102952211876
P 8.300255750096238 -0.43707151916230336 4.007253592707391 -0.16915339120163125 -0.008491839521095054 -0.7513853585017769
P 3.7370417350908083 5.2815032506693 1.6567592560517228 -0.6508747652795243 -0.7367629806029118 0.4982396834478903
P 0.8718780751551279 6.18230777242397 12.877887357275315 0.25884092566645095 0.30897178088457106 -1.4220311357606412
