# total energy = -381172.5584319513 ev
CRYSTAL
PRIMVEC
9.24513569861517 0.00000000000000 0.00000000000000

0.00000000000000 9.24513569861517 0.00000000000000

0.00000000000000 0.00000000000000 13.53119060755620

PRIMCOORD
 96 1
Ni 8.827412459725732 3.8338559593212143 2.981516416641065 -0.27554821111880284 3.0314360423856823 -0.3680935267473919
Ni 3.676707147569415 7.392197638196766 2.6364851894837122 -0.26797965474292557 -2.1239042464649036 -0.8466876680502128
Ni 1.964221469866298 5.712883506355836 1.6366247190709609 2.023631737395386 -0.7877466707396305 -0.5096193860397417
Ni 8.382009570929023 4.7514541393417815 9.21601231203084 0.21481309802227522 -0.2900456334040295 -0.5183714212007587
Ni 8.109758823284183 6.8322752570380425 7.766145799899199 -0.4593604898841895 1.1625006402263334 1.2667683864981731
Ni 4.171950561378122 4.341376912958512 2.0354968413335586 1.8848546444927667 1.1593726361203132 1.2247131091993357
Ni 8.875283770894741 1.2471687672266007 6.124771854766531 0.7221359747183563 0.7841499545273076 -0.1918832286989792
Ni 5.902797078011647 8.213905273712706 8.884661111744244 0.09574351085091252 0.3700316243103692 -1.3728564738082034
Ni 1.1411178189029807 3.598271418724712 7.096108308889259 -0.7719402998349931 1.1298900532801637 -0.47116031073259496
Ni 4.893320742255735 5.059150736160431 8.455573113411026 -1.2489113037120942 -0.7886514419420868 -0.9071548721973345
Ni 1.3800768339252634 1.386585409256083 7.80688818715117 -1.2894228906728955 -0.8456707967499242 1.176922214968302
Ni 3.1018908532601936 1.037017594151524 13.234640623204642 -0.35051695131620925 0.861739934397645 -0.27867775788672006
Ni 6.881015610935882 4.9080020172917305 1.2224158416715785 0.5855553752464238 0.34769645114827863 1.780025112180186
Ni 6.28353024459375 6.478491660185111 6.411605879011989 1.8823568177715775 -1.9123124835934033 0.4751560621555494
Ni 0.7232811503674997 5.209837198258477 11.275865462610199 1.5686783754399565 -0.2898096061338235 -0.43524534200354076
Ni 8.439181488323607 8.31432593456975 2.814244181611926 0.7851858519909897 1.5352373221726914 -1.8969030910168683
Ni 7.940240020349662 6.237591166726078 3.551585333915661 -0.6266619154787465 -1.0141729275208018 -0.0011143161101013067
Ni 7.559922884861146 8.631424834103518 6.042677825838866 -1.1756752299350786 -0.6320563470214405 -0.4154028533563169
Ni 2.1936764856839184 8.569796761439822 9.082621649263613 -1.4371175977801183 -0.38175662605678123 0.6392605780793637
Ni 7.43506733110729 8.096233190174825 0.2607220637847099 0.8930402871728232 0.07039449056316263 -0.23350476089450753
Ni 8.910988483860116 6.327296715639346 5.731243420772702 -0.6647111569419842 -0.15546869462568708 -0.9234806059405515
Ni 6.7661632936989955 1.0011094882070606 9.54456316080081 -0.2992095592914847 0.5803398924837553 -0.6710604961987798
Ni 9.25641447829961 8.934008871038724 12.394353963562544 0.49763136043993006 0.13512021287632212 -0.5501638831210073
Ni 3.0282903302365396 2.8583462510730158 8.118443703491245 2.5188395759954876 0.8294255385356554 0.28179316358725015
P 9.174160508529296 5.960005975947882 1.7325873756318109 -1.855434796569753 -0.19729102997811185 0.09355935871540016
Ni 4.070244826698657 7.585115878861832 10.315083255075061 1.4870533062682971 -1.8147830844866615 -0.9623526004154006
P 2.4622199340281075 5.507807912622549 12.953854766546431 -0.2845676410085938 0.5822952164379133 -0.5122519385665822
Ni 8.13118904717174 1.3174595317723667 0.33780060675077084 -0.4052444247660763 0.20908005219323994 1.349188440767302
P 0.5681394575138833 0.13863357905999293 1.1519512685800462 -0.7167184032472108 0.029645590780574747 -0.6323599943047884
P 2.6223549245183366 5.228946893157345 7.306260406477877 -0.20164827850554304 -1.854677092468122 2.2932682110154436
P 4.131216494748022 2.4724820343366436 10.086162608084319 0.6835779119395002 1.0732586779393645 0.010275156673762949
Ni 2.675819542612269 9.064559428207048 6.801574935871775 0.4272224716990642 0.10203602872784363 -0.9919591104279238
Ni 7.591125216880345 1.5857163809187498 11.64107234877955 0.3206942115278219 1.0004959442543413 -0.429947326829395
Ni -0.012021449577648249 4.0553878940898125 0.3860463459040104 -0.49823454124156774 1.1178590902575585 -0.3573373166721523
Ni 4.01757529025025 0.6468469933397316 8.754747544405884 1.1685113651967876 0.5635613874738359 -0.9316975945337052
Ni 1.337382798587588 3.4103455511827163 9.590921043302695 -1.5979606693438415 -0.3004184919979213 0.017635967914208336
Ni 6.380465489400058 3.584015419917718 9.769843997979414 0.30894864095611957 -0.6219192585874386 1.3809446501329765
Ni 1.7511118534590304 6.886886271923198 6.425407017156658 -0.6789630388753081 0.6416159656854176 0.1729876773460569
Ni 0.7878778360123402 2.1643694064244055 3.888471596774077 0.23277713869986363 -1.7264420367474076 2.0749159894916587
Ni 8.432145940274241 2.529589235783335 7.988584682451822 -1.2010404481727444 0.5396840666356061 0.9172827046599556
Ni 0.11709518708810404 1.0720936379088086 9.976938729286923 -0.09065426925346322 0.43628843855607435 -0.14223239844107116
Ni 6.462608517545413 6.145324715303384 9.557445332485417 0.8112401258758802 0.1711791633824084 0.9931166210711349
Ni 4.855471157874521 4.826459922948227 11.035889482692475 -0.4447129151743438 0.5772064890610963 -1.2954917225747946
Ni 3.823057641158719 7.126492446424398 8.0058370296462 -0.3819407170431293 0.2781771641012177 0.038526438209972355
Ni 2.2722786269660573 1.563611262146038 10.902093882994155 -0.3864923409695537 -0.8602795478020345 -0.7335537296369947
Ni 4.286127983729853 9.013036288549866 1.2991634087898507 1.141085407775351 0.4639655927563687 -0.47312180533434006
Ni 3.1282857148645817 3.677280345965027 5.50964399651559 0.755970149658982 -0.8512259222401984 0.2347147220422087
Ni 4.482466924497765 4.902944928220767 13.254639700130252 0.6113355695343213 0.5466684683732392 0.9307023204999713
Ni 5.5478393489612525 2.7090003336098687 7.839917357927996 -0.7178306624747831 -0.18997675570488573 0.12954734677423496
Ni 4.329432198004793 0.3023945116592385 3.753389998739795 1.08468260350559 -0.13732930471249896 -0.24471708467055922
Ni 5.873906029845723 0.4793704408179629 12.946101795989009 -0.029875961623825963 -0.07024022437348548 0.9364608202503034
Ni 8.19423162555364 8.269394576462107 9.90048793101541 -1.2859860970772048 -0.3196824824338559 -0.32898884743644635
Ni 0.8391208480665053 6.260537592821382 8.739444071756585 0.3159142736406753 0.9445849920193345 0.012030191691656702
Ni 2.682069254151521 5.40665688606787 9.592802428359258 1.7586301914441775 -0.4913653249255603 0.5022552323651865
Ni 4.319761786362695 7.623094895138829 12.857810752793947 1.6024017358343308 -1.1531839908110977 0.6298192301608057
Ni 6.8195724409804495 1.4959091355159388 4.7326560055063345 -0.03885322542177179 -1.4209705557066108 1.4795983926521485
P 8.219387639012671 3.8837612002811044 11.258870130180304 0.7253300561756219 -0.7167459140510366 -0.4433900825978622
Ni 1.1022235342200875 6.773818265821038 3.522547288096669 -0.10503804877896103 -0.1330648730091902 0.8139099593985596
P 2.461313910757624 0.9813156532876227 4.850160752093239 -0.0026999154296663175 -0.16823807847621347 -0.32368260473218446
Ni 4.799066586719224 2.456192105738769 12.383271819742866 -0.4334576539754986 1.030210954820271 -1.0210657979858933
P 6.216068491484392 6.358683950366806 13.225479618523805 -0.022777402905831738 0.038464988844417625 -0.7090703997836498
P 6.79150420986629 4.52530888200205 7.419476334746646 1.5796333317895634 0.4889016938764161 1.0969017712796014
P 3.111931070318816 5.659178514741164 4.0448512132595065 -0.16872581674590942 -0.9103700367005225 -1.1944833637805172
Ni 4.431803582434001 1.539333536551249 5.812958399148431 0.0865818989563025 -0.03508115997384926 0.9250152974175231
Ni 7.988758490997587 6.252965826918056 11.587881386693846 -0.8732152820270962 -0.023294708861882462 0.6300213188692827
Ni 2.980012233109354 7.823094909530327 4.699193237878635 -0.6225954587188569 0.04986937402661734 0.42997766584669816
Ni 1.0072944837984215 2.325299478560161 1.5167513687912215 -0.4347756014559738 -1.7403493908571188 0.510875627044346
Ni 5.947451082056899 3.651005671121009 5.657457995040786 -0.4113708493787883 0.9383505810738484 -0.5785372920573778
Ni 6.252337157709966 0.586918176564963 1.9772450921227258 0.10793002561477541 -0.7555533738365374 -0.14025881965446813
Ni 1.1002358301062718 4.542282950620494 4.882689761044216 0.14780192210904866 1.282468313731933 -0.6583042249743759
Ni 6.654851863325323 4.014810994761735 12.63736049886868 0.40539971939701797 0.23287818305410213 -0.8424376345246072
Ni 0.5795350114240649 8.839357174679451 4.646800130979082 0.3603264812074633 -0.041306829168586925 1.395913612737983
Ni 2.3572876470894717 8.265844444463477 0.5088254422440855 -1.7781718610215314 -1.248780691671501 0.35165646423729113
Ni 3.5022606874597133 1.7930570328282456 2.054088808649294 0.6021562170278985 1.1673170877783703 -0.44515103115302684
Ni 4.821347363064785 7.99996359511826 6.0354111494041724 0.26340874754279153 3.4172742947110053 -0.013972403019692065
Ni 8.472353034185794 3.587907621926631 5.647445513388404 -1.4124514624920061 0.05802825568832586 -0.2354228038528268
Ni 0.830930582604044 2.1764435532739084 12.662433306108996 -0.039548965937215755 -0.03897381016003611 -0.7160668857061411
Ni 5.159146120788473 2.674432772300304 3.6921881268186434 -0.38654916234941816 0.6670272066696705 -1.6563254824359794
Ni 2.0932465796914608 -0.05450007326019875 2.715290723744939 -0.6998383396624205 0.6126961973272739 0.3982708216617205
Ni 2.5911988181762045 8.324190494055523 11.71916046053272 -3.6996279587874152 0.603656969943141 -0.4394218419787336
Ni 7.820136466198137 1.928054500130268 2.784881631539934 0.7372828576621238 -0.544754796290294 -0.4549734165600874
Ni 6.297786243400744 7.815948419856005 11.415222935773036 -0.6165129999702027 0.9490263156201397 -0.12189780064877714
Ni 2.634392090826187 3.6130913707919037 0.5140757546451826 -0.31458424197534207 -1.0608119675355794 -0.5248014930968188
Ni 2.6822541568597833 3.7608748603702375 11.615687980475814 0.36779039368467625 0.09209177303093817 -0.1368161125215063
Ni 0.6554126112999648 6.632571086979764 13.299400947746294 -0.8452730470908733 0.4195001633541421 -0.20804158362639655
Ni 4.150936368584155 5.781778255454225 6.003734541938283 -0.44157282688346533 -0.6407407621693159 -0.6326394732184202
Ni 4.293745975310244 0.4884759746863208 11.111976022628712 2.043600467207829 0.03471760598684344 0.28113624672954163
Ni 2.3425416561055843 3.581306595241681 3.0651118555598167 -0.08554343038945914 0.9765864846265954 0.16571068406866946
P 6.611510668508732 8.498026775227961 3.8221821268350986 -1.208177830548474 0.004714117646217688 0.8546655440493668
Ni 6.027800553932113 7.156973657881374 1.8916194214672581 -0.30279779086337527 0.4356526047442884 0.10360645853875705
P 0.8025720542379144 7.7208714472677284 10.561729600193333 0.6976493024309017 -0.8798934653782201 0.9682219147119839
Ni 5.76073632725402 2.8486758394309177 0.9382259261542666 -0.2679071496337774 -1.1801705467022707 0.8920804943627152
P 6.638506463914971 4.448962553760706 3.5994991727075707 -0.4990084432931148 -0.7634515456376916 -0.0782252994614911
P 0.3575278766952343 8.633088958477876 7.159190641353434 0.08838424227236391 -0.5626740997728761 -0.09103222141817226
P 6.105663084381204 0.8311681825841606 7.221853244669855 0.5633572418828299 -2.176760728144303 -0.22518107152016054
Ni 5.439680509763447 6.3551245732327635 4.098110589347268 0.1962888139658426 0.07802655318712369 -0.3408413758996582
