# total energy = -340886.8079784247 ev
CRYSTAL
PRIMVEC
9.16512602008783 0.00000000000000 0.00000000000000
0.00000000000000 9.16512602008783 0.00000000000000
0.00000000000000 0.00000000000000 13.41408835553587
PRIMCOORD
 96 1
Ni 6.350424109726728 2.6286406045499477 11.864063056379722 -0.14107694468038928 -0.682451768754857 0.4711312572668725
Ni 4.721854551924536 0.9818966020168617 6.3160768837693455 0.02633735234294819 -0.30946311869869286 0.14100623934345394
Ni 2.934508352408786 2.015722807586541 5.01386462936829 -0.31938192047430153 -0.27198903301263483 0.7050594788520439
Ni 3.4545559282637033 4.514878512914074 5.118869477215913 1.0210120619298222 0.9994219944638724 -0.6529108218729466
Ni 4.0373754516536104 3.2732972326293814 2.947947176568598 -0.35173256889086524 -1.1973794543813894 0.4342433831015876
Ni 5.3714236875056125 5.219539220495854 2.7503846384069006 0.7073320769363045 -0.4671650735302729 0.4662060520511132
Ni 5.322124475096398 2.9973811163290693 0.9712513082423123 -0.18558556861572553 -0.3812891995020595 -1.5592349706388695
Ni 5.778217802170596 7.958362969047208 12.29501827603693 -0.261224338296963 1.097027755334504 1.167112942187364
Ni 2.4033526439195554 5.70881946858395 11.90710890336287 0.13569151199875984 -1.0821379827068653 -1.2463070333200277
Ni 1.1334969501226069 7.937998059217636 11.685790358775316 0.17426577272753213 1.1236607845410003 -0.05780379838234561
Ni 0.6723417239940108 0.14916700716976342 4.902956523905353 0.8442541189080557 1.0457933826395602 0.4132755226006689
Ni 8.694899984634054 2.679827832901957 1.5988388057787228 1.0963425563420217 -0.31057794902942637 0.3694970919631378
Ni 1.6677229758003642 1.5049411740528194 3.0460176901331173 -0.19579439082792732 0.045068610203864316 -1.6828453831033794
Ni 2.1038729888380407 6.961206432347071 0.4042443766296164 0.22359701486249234 0.5990279558115619 1.2498528416897572
Ni 7.960095177849094 4.530825832042542 3.8698433651334874 -0.970657263626354 -2.593252443689424 -1.3779958519172977
Ni 8.09089985520628 4.103391853769908 12.962905748826094 -0.13213541921638533 0.6412259293358504 0.02357007401045618
Ni 8.21994482838377 0.25454304261778987 6.977404875926182 0.02912134284598856 -0.05304057266574736 -0.014958935302677463
Ni 7.254829571955544 0.875358428600163 0.4834741408077033 -1.6118564534893272 -0.15811667377149544 0.286983449538938
Ni 1.9687148766613025 7.3843511316817025 9.419680893182917 -0.6061964485355431 -2.024687175243094 -0.7571230323165026
Ni 0.49961667711860647 5.2152957671875315 1.557174143274115 -0.5302954263318546 -0.18304480447174284 -0.3329874270728781
Ni 6.749455362724004 2.2749308993057045 6.892050974597726 0.16535561472209587 0.12980034332530546 1.6821964366654707
Ni 3.6131859279622853 4.908062415564244 0.6395699831850081 0.08584399234901345 -1.2409519396557014 0.6658015617926857
Ni 6.577242646388417 6.09212336547522 4.763168190105798 -1.8575397587278977 0.9473255308789492 0.8493073650612469
Ni 5.064474454786337 3.3277380806886354 9.67703029736228 0.7453275823434713 0.7659727693976486 -0.06410660067192185
P 0.32918107870199026 6.287386373539599 12.524761404384765 -1.1521956587558995 -2.4069559650496033 1.548892708172597
P 4.288802351453193 6.462293636900341 12.838664218151607 -0.6797770501361712 1.035637525152481 -0.4594219392497442
P 2.343953462728978 8.720149906587462 1.7226770709120292 1.5688149010178207 1.5786604263533328 -0.4981988029076259
P 6.530683806634038 8.090734882939431 5.984199425017012 0.5107663551599912 0.13490038355603218 -0.5133757677583805
P 5.056748253622373 0.9313967581100451 13.026220271816488 0.5938117017179451 1.4165096917217799 0.4603138549363943
P 4.383707230519453 6.19319637429634 8.156288446195967 -0.12827130827528876 0.889280563020075 0.8103464104170172
P 4.691435498943278 1.2756205580106301 3.937343601138808 0.8939185760127185 0.9418282552098036 0.33423004123072764
P 0.3916991522485545 5.767412118692168 3.892943148542334 0.9541870338854728 1.6299220527417866 -0.8066838739637655
Ni 0.873330186230548 7.623680065245897 2.6896455158044947 0.05021518740181029 -0.23374258793692645 0.5149690803874292
Ni 1.7703265606527807 6.857906297923526 4.980329433568826 1.8639657168588994 0.32750557802270047 0.8372797444727514
Ni 6.458224320984801 6.218785405909377 9.37314771578116 -1.9013981506737447 -1.647700202660814 0.16589837459944332
Ni 8.509067891157716 2.7577130731052475 10.74968822500978 0.4069233551303959 0.0760246922657465 -1.1376337017813247
Ni 2.437391921645493 5.697005621252574 7.165269794335103 1.1144282101991387 0.41482872602040166 1.112230945437504
Ni 0.4356615118252928 -0.007763778180302086 9.826409935453759 -0.3069028141706843 2.2045618095169712 -1.3518724153573685
Ni 1.4650178854760327 1.5106968731405657 11.827630764271921 0.7493235908767417 0.4015924298357858 -2.0360594216357772
Ni 4.328111576592275 7.191562707620016 2.0251381414604923 -0.4848072120920683 -0.1902158682988853 -1.1960638208937595
Ni 5.647724739095231 8.258135908158671 7.958283232451566 1.2935140300231334 -0.47818019369385384 1.1472221168007082
Ni 6.81956857613365 0.85677796879031 4.7515513929820425 0.7990453835819012 -0.4253473661635384 1.4722617497814192
Ni 0.9427706793964986 7.873915498673813 7.2966876186173995 0.20751193637517165 0.18517984853687464 -1.0426466094804625
Ni 5.572854825324853 4.6386535386784224 7.202882554663449 0.26547848558762666 0.6517186013370582 0.5935764457786875
Ni 8.314574753671954 7.516457256921786 8.869891567153406 -0.2806824470215747 2.4296040414664217 0.6648967905902291
Ni 4.989430403623177 0.6536054570432476 10.81006532513772 -0.16132078253108992 -0.35658809721095364 -1.282057965667392
Ni 8.583552869638787 7.49017167573762 5.147348273036539 -1.1151154660741505 -0.5731397751908904 0.049567269405166245
Ni 7.519765867384646 6.292573834819319 7.157341960400548 -1.0977618052870515 0.4642759249079359 -1.6378256238595794
Ni 2.5972592133454215 5.401192016545419 2.9148005821088168 0.04340150691408654 1.2766707332135496 0.2329933684757278
Ni 2.9163064123000852 4.864014820316302 9.56370809772783 1.297085549424476 1.0877854108006297 -0.22010442832820157
Ni 1.1660698076988008 3.717952482535574 4.051470498830433 -0.20512620975181448 -0.5996614756305026 -0.15355476543242585
Ni 0.7644420745238841 0.18488808550493918 0.2140111896788595 0.45413343715729537 0.48495633607542293 1.6125339391723261
Ni 1.1002000475974771 3.6557396076826754 8.613334029854906 -0.10158120057861215 0.43023863281756874 -0.11527515312593695
Ni 5.576750003847611 3.391939787869625 5.156241194732145 -0.7523790898736139 -0.8520576741128745 -1.553539462915989
Ni 4.14138130077422 7.707128536892278 6.141010147217317 -0.1963561768686683 -1.2043083202907388 0.3003444442268763
Ni 8.403989722302606 7.742964179301654 0.551304321346716 -0.4030163067665059 -1.3933677063876777 -0.9696257370380461
P 0.36759395452454025 5.99294753772283 8.362168336144494 1.5723838493160016 -1.9445836849222833 0.01593621161428223
P 8.75367593726099 2.0232198806021082 8.387735371455285 -0.39326874046143884 0.04425254206047218 -0.2020354866416327
P 1.9977316653743664 3.4764972397542513 10.942502311424088 -0.27393792920888954 0.7255115760588086 0.1752445917010337
P 4.044414268372383 6.503445052352539 4.275512918846137 -0.26369748242780394 -0.841043582390558 -0.6051831767796803
P 6.944461747262179 4.468521305930285 10.82420344840644 0.7902498967774584 -0.7470260530918167 -0.7844399749639006
P 6.8537819912523705 8.077106340672747 10.309303923789718 -1.0702939388840857 1.288226556371949 0.831612004664013
P 2.4901738819103496 9.103554619864026 6.308739283945062 -0.5263901777401773 0.6386872220743969 -0.6270534944902104
P 7.07594464393862 4.089754146377287 1.730712136820034 -0.46812769455385833 0.6447671097198896 -0.46803950571542613
Ni 2.7636795700895194 1.9285899553139263 0.7017315333326659 0.7156879051001674 -0.7914056076484564 0.7180738888338407
Ni 1.5223549133310321 1.7139060453913717 7.395039501548151 1.0885564846386995 -1.5722336968913826 -0.4476216041807065
Ni 7.124666453413873 0.9122517265425406 9.254339271761475 -0.7003178504020003 -0.09836372208257897 0.2941262312313064
Ni 2.94547900815406 2.062547435993061 9.587867369694864 -0.11464471863078964 -0.5948887368322077 0.007724365227451214
Ni 6.561286162134013 2.1152194147466865 2.8484679831477306 0.10318479762030616 0.6670686014305673 -0.27094876467357853
Ni 3.954495217815254 7.332384867625143 10.581636475849093 1.0821040441451362 -0.22627456169465546 0.2841848037478783
Ni 7.352392337543215 6.346345628685253 11.799434254330121 1.5033309603823979 -0.3332532791397551 -0.3527504686324183
Ni 7.85806899593064 4.28912313086095 8.37061949876999 0.09397844853068976 -1.1310470497027425 0.8461112267214524
Ni 3.0726726258924995 9.21168477565579 12.699264485691733 1.5257499515075466 -1.5933403969630107 -0.12691942223308464
Ni 0.41204848136403643 5.0941969581964655 10.43216335347307 -0.41941943071487764 0.6856808172151159 0.7595594096721371
Ni 9.00660591771406 2.7619290310357623 6.052450284836483 -0.6138071710032655 -0.2667570951897341 -0.7468041668889976
Ni 3.915873377121365 2.602620812017924 11.934393483274048 -0.6227885485662694 0.6366367673032712 0.37958121567201725
Ni 1.3629642081797708 3.5421195414553055 13.127348271393224 -0.1834536098743873 0.9457299042570552 -0.14690049334070182
Ni 3.451100675785869 9.027722367870377 8.331664964004627 -0.419895856130664 0.7006801188374256 0.3014901277955453
Ni 5.302034519044903 8.219550727968526 4.011402401263859 1.762205824610578 0.3002328583496765 -0.09464307869788217
Ni 2.975586446853496 8.731505497622043 3.9269879253438327 -0.15446493595152105 0.36330356155791627 0.09161637605641641
Ni 3.785087030016052 3.2902527156107992 7.503250310448152 -1.0155965473412056 -0.5049428064996788 -0.2551789034338315
Ni 4.921929251105262 4.908126571445796 11.424242410404718 -0.33620259157606613 0.3003608992871085 0.5576815316542911
Ni 8.276053729363358 0.11649058367049411 2.7143941053692098 -0.4175538382610486 -0.35940396939319397 -0.4598708538617048
Ni 4.556222396010925 0.41242883409037634 1.9247341868326926 0.04076278373965883 0.6871304051774489 -1.1526008646141181
Ni 6.173198069504203 5.681855668080529 0.37918783883345547 -0.05218928040904561 0.5127844140312845 0.6472063152890015
Ni 8.091688056036766 0.2745294327462101 11.608028847772161 -0.5954014148025681 -0.774999141265975 0.10497222853803213
Ni 0.34034786814229245 5.174006874846296 6.334588605134678 -1.1390714626691159 -0.12244236029833751 -1.3041943925551152
Ni 7.863228961832552 6.73964867797259 2.684092365999932 -1.3933857041098066 -0.5285182798267737 0.14333103082188864
P 8.798135963176046 1.8393124635723106 3.8784686651517646 -0.38019442377598395 0.714491570799221 0.38902770579689777
P 2.1212683978643816 3.5807138867713864 1.887295563897129 -0.7584281242811712 -0.5411105146694875 -0.11994324802556762
P 5.0753076336425735 1.6288811720840142 8.466127443122831 0.04487397769455498 -1.2949304507546857 -0.7054266323834754
P 8.82149786918666 1.916244530678267 12.777563073074733 -1.1301877870262407 1.586442898512229 1.2510352920336325
P 6.4876810357427885 8.064091861843767 1.4919688548031447 -0.4783835679539116 -0.11811673633979013 0.6973209725572055
P 1.9227792654705649 3.683079178349469 6.231970356080764 -0.3352258294850936 -1.1282381194990376 1.110453798932423
P 7.323430539585766 4.328404860622223 5.922896647169549 0.4062697807067971 -0.13919541138696026 1.4460264702339742
P 2.526119505830955 9.205635792538096 10.460372694591182 1.3361532048498987 0.0709328795651359 -0.24435070247007598
