# total energy = -340890.491725502 ev
CRYSTAL
PRIMVEC
9.11119966333510 0.00000000000000 0.00000000000000

0.00000000000000 9.11119966333510 0.00000000000000

0.00000000000000 0.00000000000000 13.33516168146632

PRIMCOORD
 96 1
Ni 6.837918857483442 2.0966692527129918 11.200615430015734 0.2147843016668688 -0.39230046301089855 0.30388922415534114
Ni 4.920858682550439 0.5655822709750796 5.769350990167882 -0.8766250790395935 -0.7139426402742866 -1.1315671838722705
Ni 2.6594771634088645 1.9691580142647114 4.313298381643043 0.842215234101156 -1.2240579921138404 0.7978415930817873
Ni 3.477517108592174 4.292158576323451 4.888110297816272 0.17688752662109536 0.2822096822993785 0.039474403945538465
Ni 3.91381601279613 2.7623152733313896 2.2997150692325676 -1.5484273385004041 -0.8487345232769125 -0.11885515716771144
Ni 5.155772741922502 4.5454043692973665 2.666019004724039 0.5326289595610376 1.204084634315707 -0.3959856251719696
Ni 5.385165414334961 4.572346186524345 11.657904715865788 0.39869068280795855 1.1454593684733305 -0.4881756143436689
Ni 5.824024565627445 8.301122846576915 12.355560202930523 -0.0413245697803998 -0.21736697479238049 -0.4346105366330193
Ni 1.9369590348666246 6.653571955909731 0.1724850308101639 0.34167981264055347 -0.8455008468309632 0.14797598579306773
Ni 2.6679688014391463 1.7016714163108262 0.38093469981446126 0.6522420779406961 -0.3079312554351987 -0.26585515220075506
Ni 8.027404188094367 -0.27573587807471905 6.9992399354196735 -0.36080547772641086 0.1355963811817923 -0.4927372655724224
Ni 8.447740270593329 2.581986410782739 1.1911007463005931 1.1317775001108636 -0.23110026521807298 -0.6594475945501997
Ni 6.97988956970217 0.9735499000125526 4.460758591622764 0.9184589843562442 -0.002977080350452937 1.3136100294420603
Ni 1.1491227163682773 7.6208442393956055 2.207902421950004 -1.229014307677851 -0.5025550229937926 1.5075010325996876
Ni 7.417618932243845 3.9349904406742153 3.4614750194506314 1.4164880944552252 0.7971880186581883 0.7265389888820585
Ni 7.513231860880947 4.045509291862328 12.569030142916244 1.6570736734559137 -0.17669417966336667 0.19009014135429844
Ni 8.22316742277102 7.22347749109658 8.972949905006196 -0.05343832232479829 0.15302717506373 -0.2364720710529476
Ni 7.216607646595687 0.8434565475966949 0.11847019508191908 -0.9254477569692514 -0.37034092802067187 0.7735940333883322
Ni 2.119155693333953 6.8262200771927946 8.970190122646354 -0.1310784387067807 0.26872476043906623 0.9824596555779208
Ni -0.0743063883647697 4.90769299912366 1.3661870245975012 0.793424437850698 0.5333303565034363 0.20078155962987357
Ni 6.669234108027816 2.278027680816816 6.695904411506617 -0.14698045464901785 -0.5914992515346845 1.1321289699130115
Ni 3.6566068479947753 4.586723659498364 0.3091129355815133 -0.39396036721182476 -0.7219559974970663 0.7007809060813479
Ni 5.957840754201214 5.868696777282459 4.6256476153236505 -0.1049316051080838 0.10588239905712732 0.4400052252860293
Ni 5.559407995548602 3.1435825319313717 9.392341156106294 -0.29653201245932154 -1.4613335329046897 -1.0561724118810392
P 0.247919385685823 5.687976133150865 12.533504664542988 0.2799527679444017 -0.37914412813459863 -0.6144072664811097
P 4.413146195855763 6.318489368098913 12.611208619239832 -0.9088296887965961 0.1715198345512788 -0.9985516760437771
P 2.585758447418508 8.579943776837313 1.024133457970192 0.8744195867478425 1.478749414388292 0.6735575515890206
P 6.431158462393406 7.964008461254559 5.721851573275961 0.3258415600567163 -0.6362174203776655 -1.1832450718625362
P 4.835113183083717 1.3227001800108775 11.867173481714422 0.8841653532806967 -0.9656952916353885 1.5538839907396014
P 4.248096815041858 6.231650524679794 8.168452846913242 -1.2309130673624606 1.1340786374402145 -0.2714598999820422
P 4.759107555992931 1.2274881441563201 3.5966934216433493 -0.30907771033481607 -0.4662968119927066 -0.01820752414696219
P 0.2974442222495582 5.881652903118362 3.4306299643135962 0.5564026649418675 -0.5928729919537596 0.021245796752653732
Ni 0.43087136260026593 0.39783597507859564 4.974535492773401 0.2659541396724645 -0.6834701827170423 -1.0305639672843157
Ni 2.1543978133995445 6.376473042374358 4.775027555059789 -2.332638485282951 0.8804938179663804 -0.31360079501615024
Ni 6.1736030720071255 5.6254277478741646 9.133439130418648 -0.1435853129245398 1.1755479603285948 0.2756878220204607
Ni 9.156664489327436 2.128203114540037 9.795303092081712 -0.5516360967911595 0.9121764937816419 0.8912451429456135
Ni 2.2798043647394612 5.3303251039226565 7.076409973819762 2.3008676206292566 -0.10886976382022541 -1.4909048188039031
Ni 0.6322771631912467 9.041161811956314 9.180498476369726 0.8992561861755481 -0.16146964940412836 -0.649368613047643
Ni 1.8203356799442956 1.2295199416678577 11.400322903000658 -0.7595067020573307 0.7480817480498406 0.8979366960331762
Ni 4.255732000309429 6.6517770495878805 1.5400514910276057 -0.31735049186656955 1.4622629866974945 0.36473900845286217
Ni 5.612826958822791 8.038620074806039 7.783039992493755 1.0414651875778516 -0.35325363352108197 0.47109166227818866
Ni 5.50107809568823 3.1747792793730945 4.727781429516841 -0.3125124470479779 -0.9024194143948782 -0.09435768624697943
Ni 0.8457334363775613 7.478982861572117 6.723975106364445 0.9090595454192151 0.5797025160100725 0.35428438877844143
Ni 5.3155376269664885 4.862656339484514 6.914987761567933 -0.30494311934115226 -1.1558178288895191 -0.3560000859179675
Ni 0.9108557355421976 7.458683108855949 11.252689580228473 0.6721030785306813 -0.1657273962392178 -0.1531513593464201
Ni 4.962405752741519 0.15673358893596687 10.007478330603801 -1.3462363001175137 1.2896257507123208 -0.5021914690067867
Ni 8.576590855383296 7.301551360497318 4.796364162290813 -0.8515953897644752 0.6785573187964572 -0.33524639831038394
Ni 7.396107389980437 6.121897014258359 6.635669359809193 0.476268835603754 1.1779390862685906 1.5504176294575556
Ni 2.4579009833853016 5.116476138033439 2.560551402595999 -0.6542850765126539 0.5378089611000803 -0.36880160855801003
Ni 2.4512953636729042 5.243723151693223 11.52255329015886 -0.18491913867632023 0.4128037251705729 -0.6633983516678317
Ni 0.8054838010099925 3.5740776019880207 3.7451267077407038 0.755098545687306 0.9305524251856684 -0.9373437370758889
Ni 1.3239210807577206 1.152885641804443 2.421585564006441 0.09568591814009972 0.2600681132053328 0.05508100013454385
Ni 1.2995759554176847 3.651367908222874 8.310565693845781 -0.5763179158085558 -0.08248073230373536 -0.521946797256843
Ni 3.8925231393232016 2.859167325114542 6.996772622567097 -0.42543838321544797 -0.09143768438670705 -0.025151302454647008
Ni 4.108895907502535 6.878946589297132 5.932399551548901 0.4400077963891906 1.0351605855160624 0.7287123423842934
Ni 0.6484540980869181 0.14403622116879833 13.473446993698785 0.08056834577237093 -0.3596469386419354 0.1684586791274518
P 0.45772115671125113 5.776928774877952 8.006071225343184 -1.60013710816987 -0.8649525277976716 0.2442080062446246
P 8.679301408511376 1.680414987636311 7.673812198289431 0.08722004676093366 0.08249024538543213 0.9406910562815669
P 2.0209642952091142 3.368966276518375 10.39143794868656 -1.300131021119019 1.4180631522518288 0.9156107162741715
P 3.9405209388334224 6.1665327811149595 3.7324448290128607 2.0506802568727456 0.6317002492336025 -0.4317632969922112
P 7.1599906522607375 4.148538736976523 10.373542641545704 0.5592465621485659 -0.1245565784278629 -0.10684913384577081
P 6.493889071662174 7.834319646101087 10.17600818966617 0.26570242867297467 -0.1830113801306461 -0.4188648437629883
P 2.397767066003476 8.671739112840632 5.4166364088847425 -0.41049693141426724 0.03614739645483452 1.9516426486515939
P 6.906799526484441 4.179726373218643 1.3448513284864374 -0.9976006249844174 -0.46001560696968513 0.1746817772190282
Ni 5.265681142737193 2.644717020051507 0.3243605281176475 0.5764948077060523 0.4915404170508438 -1.1559114170445899
Ni 1.7270005512080193 1.3761009208858594 6.891224841882548 -0.3128389771494612 -0.5216896869407145 -0.09751294404650947
Ni 7.17509702120302 0.6549576723637587 9.195660423629588 0.10209105033549513 0.22283519699580331 -0.8731772297003091
Ni 2.5776403685719615 1.869290155412864 9.136759251554091 1.910815844443219 -2.3635346606411747 -0.6665831771537166
Ni 6.3859942459598145 2.0656365068641285 2.428972924644802 -0.18074238159081132 -0.2571481113450604 -0.9198576644759835
Ni 4.0982358039666655 6.970714591701639 10.364900668721967 0.6364179664242459 -0.3038105483986058 0.0832464068251663
Ni 8.425253829972368 7.233472477061408 13.865234043360745 0.2335289292642236 0.4793428465433874 -0.40418538737394266
Ni 7.971926093709833 3.9444934218604644 8.25617183221404 -0.45921985054126724 0.12299669013991077 -0.6222748421546445
Ni 3.3436553640203885 8.264541380169637 12.324596702198644 -0.1521828247855637 0.962507123715394 -0.4129873019362888
Ni 0.04933167913214506 5.114991012498099 10.195970827997016 1.1801947150719867 -0.8575235823234522 -0.0799782775968558
Ni 8.870427042589945 2.483430564673768 5.619770604040471 -0.5052873343232911 1.2231586202280225 0.2024077823793869
Ni 3.7533040093846717 3.079284796330835 11.631995197553863 -1.4551163483503844 -0.6447863929935992 0.05326811529552117
Ni 1.21605358865417 3.4659823298943877 12.812543352473906 -0.6609910277779196 0.3732218491128927 -0.4136907557612165
Ni 3.2993293779503006 8.63553120561709 7.804856759943873 -0.5260608194252165 0.5075077390133775 -0.23439410547799633
Ni 5.829418395792604 8.284868466484614 3.488198167887131 -0.9106343461055026 -0.5156203408181829 -0.39239070873185966
Ni 3.120758976925088 8.388071024391273 3.4632079696151807 1.0980515686133283 0.334062919525244 -0.8177288189240176
Ni 3.639213567952062 4.400918965988125 9.113623182401415 -0.5911467532912722 0.2063711379025091 0.40662716404621585
Ni 7.615796634815373 6.456970490869574 11.309456909356877 -0.6624354735339301 -0.5837558601438397 1.3238993271832102
Ni 8.197227837500407 -0.10399249891226436 2.4686585767569262 -0.39356390310435446 -0.14734837951139784 -0.01039188475728533
Ni 4.711774874053751 0.4036562093851881 1.1857716056526189 0.04347606890576384 -0.906302294389052 0.5062586970976249
Ni 6.2990005121474395 5.9722728943728525 0.29830249725218966 0.09062264468457942 0.515648365842641 0.00494705959263019
Ni 8.254446171009173 -0.10779460250672433 11.431207136295988 -0.5563373589215709 -0.9889429493094194 -1.1327092678965136
Ni 0.22275880798129089 5.037955819852139 5.664522994251994 -0.08433963988934508 -0.5053639531974975 0.19123685336423193
Ni 7.369156461553855 6.375662145609663 2.812972632005816 0.09062778689090198 0.3013381755987133 -1.5644175432810736
P 8.54053783855301 1.9821505848990268 3.2628736460975487 -0.4969950124075118 -1.9098092575555752 1.2388868295965567
P 1.7770848154273977 3.3233100553062043 1.6800432506924963 0.246710203841188 -1.162128087378263 -1.1759976462715038
P 5.03999672856328 1.1514734058659304 7.770359024885873 -0.14699870948146296 0.46197941556427535 2.554440870138865
P 8.826064611721444 1.7202673747011756 12.259880762536318 0.37836122722198706 1.6203488072310546 0.3083925113423334
P 6.477780470763528 8.01525895902316 1.2694342848900246 -0.11919531411594957 0.1899585008724406 0.33313089462927786
P 1.815798302541849 3.306946340818665 5.87156498291758 0.31278215576959684 0.7763183742980306 0.46179712435014014
P 7.170295419012078 4.184883312194114 5.793420957279897 0.22316146998697053 0.009252628946519547 -0.25491973623517383
P 2.653864664453227 8.852878872153976 10.162073520992871 -0.17885107810536938 -1.444010725355526 -1.1640253044009758
