# total energy = -340894.86655070743 ev
CRYSTAL
PRIMVEC
9.04521026475572 0.00000000000000 0.00000000000000

0.00000000000000 9.04521026475572 0.00000000000000

0.00000000000000 0.00000000000000 13.23857952634106

PRIMCOORD
 96 1
Ni 6.234094511513423 2.1141912389357476 11.262893062425306 0.42494935939417144 -0.16832960974875524 0.35042773403651256
Ni 4.821549268896106 0.3656770422627354 5.911753975586318 -1.26875764901406 -0.8494940271507564 0.15732091734307743
Ni 2.883694401777505 1.6766834693320787 4.733454349189724 0.526985388122015 -1.2708916646379274 0.20062086568229318
Ni 3.3336845613841315 4.276331136861118 4.893097785680452 0.34502404652243807 -0.009552676685441614 0.03623455685200211
Ni 4.969357047909391 4.652774692761912 2.296748001771034 0.5277060683381234 0.4089396142294764 1.0740423501829246
Ni 7.404517568913947 6.2074563676303 2.6016457544505274 -0.17260432586470917 -0.9104435702509351 -0.1821418330414992
Ni 5.04461319633302 4.349081762074009 11.455912419837707 0.1790577947995368 0.39090718220779774 -0.059541092788426495
Ni 5.766918452627361 7.884637323520467 12.312341861234845 -0.7548625184171 0.5290939498245856 0.347669197454769
Ni 1.7404702912892223 6.589616496344041 0.5009237379447826 -0.13966180950041754 -0.1894136841125641 -0.14687632497098577
Ni 2.7271127689215615 1.5746263632426785 0.41442348878732954 1.0338210407690325 -0.1597637224566152 0.1548439165574946
Ni 0.5458386334510775 -0.005854060007184242 4.861471208401219 0.08842512281262836 -0.2619285634528392 -0.45512948252197744
Ni 8.595681293181705 2.3584480937472487 1.4453088028120362 0.3633855797487613 0.37238392659262964 0.46326933802029246
Ni 6.802206070430648 0.41386811288429937 4.586122348230176 0.29808727276158337 0.9895731266942505 -0.10003365358583417
Ni 1.1494110342288788 7.523543489239253 2.818851099275183 -0.897502436709235 -0.056290961282244985 -1.0379263211866576
Ni 7.5888679969213975 3.844087679563044 3.8156893377853005 0.8379153211742215 -0.5778865458472564 -0.17045334095997744
Ni 7.508175677199379 3.707152243146539 12.615664842827734 0.9756642299226423 0.14591781771245838 0.26059776045655764
Ni 8.033720477164488 8.752642824863825 6.632289988775893 -0.20516040542385958 0.24159807942560327 0.35192848695175516
Ni 7.070866902218945 0.6560454738829885 0.4657270162205006 -1.0786765065208261 0.13765686325524681 -0.7626262215229189
Ni 1.8773605016549921 6.509683974274377 9.22445636299229 -0.7691395971614045 0.32355096425032664 -0.32695150529144335
Ni -0.05308272026909988 5.040226269411691 1.3020742820491107 0.7365068987280478 -1.3195672754667598 0.21780457655043134
Ni 6.494623699379504 1.8419937299799451 6.953299069769349 0.019369919886179546 -0.072426690501843 0.25582347899636587
Ni 3.1397733462512267 4.321692865748678 0.3652157365452348 0.740776472637679 0.4481988168404152 0.3260408205517159
Ni 5.903528261478573 5.418822585327487 4.65359871140631 -0.20285875387387642 0.30679534205854264 0.6636585473077538
Ni 5.338654887793999 3.1671260617359693 8.957143267515905 -0.8757861280780659 -0.9455334719755328 -0.017073153432202854
P 0.25264900078595304 5.490686779945965 12.427689999114351 -0.528554789491664 1.0224217977931553 -0.4365730596760288
P 4.150421811613892 5.977291950227935 12.597289498413957 -0.9126768304568281 1.2888094254586127 -0.06253642797132455
P 2.522700064807908 8.541817066755899 1.2897049571729915 -0.961649660811105 -0.16601253157980442 1.372841561409868
P 6.271749721355679 7.660424654394875 6.0148558034477055 -0.4265974365205556 -0.41602557454198025 -1.2982212056908158
P 4.9570465168992275 1.1533185650124134 12.78989729876467 -0.542913115095865 -0.095428550713655 -0.4697132938734233
P 3.758221499636901 6.015182335534014 8.133121005033694 1.3769478702687576 1.2408298122555406 1.030832904674986
P 4.838834665487159 1.0873970734605611 3.5954393752251406 -0.6221848535439995 -0.46628549913879697 0.6950152072421644
P 0.38686544703224884 5.551135919358839 3.58214743891402 -1.163469689007822 -0.3443182787046651 0.4866136691731877
Ni 1.573776113488854 1.0666111805425924 2.745747710866557 -0.5886702667263216 0.5375230544285452 -0.36794645964656636
Ni 1.9181815350487228 6.555696958292526 4.855977147757888 -0.10604489277692059 -0.3179662710736975 0.20112840144633104
Ni 5.832794718128478 5.740624026729827 9.303636323577718 -0.042931766366519616 -0.496307499422184 -0.5598955085864744
Ni 8.63562494119117 2.191238338968497 10.136449625801868 0.23218398520055497 0.5825952641768354 -0.24181739452526096
Ni 2.161814270360076 5.1675737830723 7.010979470356204 -0.20218666750751632 -0.5058493774743482 -0.3502233313351904
Ni 0.7953525644000559 0.057102411658458155 9.342703490723933 -1.0864530651424513 0.34253984664800363 -0.5690915732634457
Ni 1.4887963641571234 1.0329268179549007 11.593606749385552 -0.6456405134637784 0.3848874583762791 -0.5555503442439013
Ni 3.953254320828042 6.763004129653243 1.6763352287414166 0.454450711287398 0.1725297638730319 -0.8816963229149138
Ni 5.553659532989872 7.870626293002654 8.082602601841288 -0.3586737760953887 0.03822613336073416 0.20388153871143594
Ni 5.370340258939188 2.9038742656156193 4.80784125291822 -0.2683835750495636 -0.6375963030030631 -0.32131796115474986
Ni 0.9839560502186592 7.4201476920480856 6.901470015626633 -0.3804042257939449 -0.044201891328194846 0.36883040491341645
Ni 4.899039584226062 4.649247060804554 6.8360975683307075 0.32128145148985954 0.12131750266527494 0.41478347460476306
Ni 8.281930088810258 7.501581719002164 8.698726136219166 -0.7059765913496744 -0.5212975937086184 1.1880849164533407
Ni 4.6115737605420035 0.41931513843486545 10.503780132479488 -0.6440729118663423 -0.9034234301793602 0.3776318052551303
Ni 8.027180790228156 7.051627740236126 4.755350993913754 0.32992884275221246 0.0968547416372203 0.3477149630910399
Ni 7.17936419793306 5.953385459809227 7.1675258268925734 -0.8002931399460733 -0.07743262835686665 -0.8116563874776924
Ni 2.3881887447108174 5.152504462967281 2.8015485167848513 -1.3010118810620754 -0.6365910016670004 -1.5736940834869928
Ni 2.252148784098872 5.4532034290965035 11.419585046845041 -0.5663600332648956 -0.30433222523003073 1.616248926130068
Ni 1.0811016071981998 3.2214154130386885 4.062496037337261 -0.18812710409065664 0.6074730012551215 -0.8772449720117795
Ni 3.4725375823518156 2.8652059922368918 2.6272753574022523 0.2531207353532221 -0.6666371703201035 0.08919671087133026
Ni 1.069107658543184 3.2501972717266674 8.230424853190808 -0.44589562262853527 0.500206577366274 0.2242048236498203
Ni 3.9095207297669545 2.5110226985080395 6.9449322503833075 -0.24979989851010528 -0.16917935934356024 0.08585144854818118
Ni 4.0037899099197265 6.91790335342183 6.114979043607661 0.6190337095095275 0.46263478976008715 -0.40849661315478686
Ni 0.7843698702394825 7.541163558605746 11.507528911541966 -0.08711154620752738 -0.5259967989565005 -0.5250467763384054
P 0.10630021416939112 5.508514889145842 7.970617473094464 0.8635384210589644 0.34884187760663143 0.7562614556471556
P 8.474023216703602 1.2783233692449323 7.999649884103516 -0.05370803104641718 1.2530044999448613 0.4369551256057958
P 1.7676963738319054 3.23570684507106 10.419609024934905 -0.49577502395748163 -0.47976733567531565 -0.030493283492850708
P 3.9086162087522474 6.163596143627153 3.861905839031759 1.1025502278146302 0.03925868839030658 0.09097282893514655
P 6.855165775841748 4.003817045550168 10.249069728301018 0.8435095274325473 0.34622886546381665 1.0804343697521972
P 6.512442763369233 7.6482407563267705 10.24996972671065 -0.7411845067093752 -0.3323996728902082 -0.8849243429339081
P 2.4672257909759225 8.645466129831183 5.719953007980726 0.9226611953630497 0.04904842078721875 0.5078602372567899
P 7.00733334614592 3.9962914307078052 1.6298944062833107 -0.38244028238736716 1.2674286457899915 -0.26531573475751724
Ni 5.295626823124383 3.2076847840354348 0.43833992893719953 -0.4615202165396696 -0.5621688780016835 -1.520320552961859
Ni 1.4810717546915249 1.1172824477864833 7.130298455490275 0.3660559274920728 -0.7130478963741591 -0.5563499573270612
Ni 6.732838353812761 0.7227493761125624 9.308786666235461 0.029680043562935986 -0.13740926602081496 -1.2166804687028465
Ni 2.7919759708862064 1.6758784456289895 9.222828225165816 0.43326662101061514 -0.12241459238419562 0.11061194332231274
Ni 6.17978706979041 2.0856897817623277 2.236089013482748 0.5856415072023268 -0.6853992814189551 1.7789488483968718
Ni 4.049965707720523 6.804548779858739 10.52500110000553 0.3460563444416943 0.8333896653897259 -0.15184626738175136
Ni 8.210273934025164 7.491460128847591 0.09759962652892368 0.27080401156559814 -1.1124392047935678 0.28168492014416
Ni 7.610856902788926 3.706301993392714 8.262700876558602 0.9478325524223546 0.07612213707555922 -0.634376767624501
Ni 3.0204037079403334 8.288171283811739 12.431595720855857 1.56125122973795 -0.2929152416423407 -0.008584399234901344
Ni 9.216707331459295 4.795119164846366 10.210453012620128 -0.7514421798816414 -0.2192881030744933 -0.3008326967172045
Ni 8.787032713842988 2.294878356833635 5.8855147254706806 -0.8063971959612822 0.1353708954345475 0.057947008828429236
Ni 3.5034088845837683 2.513157368102748 11.54367085772662 0.3912180285799972 0.34700045352251857 -0.0446556910361618
Ni 1.1522693206353531 3.3491880515762107 12.627473364674733 -1.416096515443761 0.09420136317477325 -1.0875609534946495
Ni 3.012715279315323 8.46189358989638 8.046792614869036 0.8114630405199638 -0.40622067263641654 -0.012667568165339474
Ni 5.639570938966751 7.585946394043894 3.597120879791481 -0.3501328285039131 0.5324623520761863 -0.26422661545839654
Ni 3.2452224061457784 8.369560084715081 3.5248116608337674 0.7388404319572308 0.5952944569110586 0.9034298579372635
Ni 3.339392088986933 4.4844252415046295 9.65866896253938 0.9864086129233399 -0.8019023934147222 -1.4212160960585136
Ni 7.2429158444263795 5.890665972649438 11.544994171971135 0.9206107405919242 0.45303506188679393 -1.7175969276519518
Ni 0.6170741859643339 9.331943308732978 0.634159683411136 -0.48328589035153546 -0.3445203674131421 -1.0117990279719866
Ni 4.573520561453277 0.13643975890044582 1.495681578121074 1.187893369267825 0.24343898928908397 -0.26140277285635627
Ni 6.044950122128025 5.741628045056151 0.24076178561067257 0.44707395920735266 -0.12294809629016244 2.0102110931141057
Ni 7.9048262325687295 8.940728924662016 11.205928137961083 0.7726064726640823 0.10521674044867041 0.5989017146463427
Ni -0.0834393500436843 4.8507652976711455 5.804058085491235 0.12208934783429296 -0.17725879391758506 -0.28755706265422093
Ni 8.09343695455545 8.716226808811717 2.5151979675119267 0.2792891662184738 0.2169309156962264 0.5056012660192841
P 8.494374939534511 1.4986556432174307 3.6971645221021436 0.4093679600161466 1.2107725878588438 -0.4026257561963066
P 1.6603930458572043 3.1728154989184767 1.45168929404978 -0.25431681254385236 -0.19429106680952346 2.105020265076207
P 4.742394634899089 0.988026394784841 8.274138544789572 0.381392300738827 0.20322513607435969 -0.15547409394232578
P 8.41872080186441 1.7028331718672607 12.276280417420503 0.5423623847987175 -0.0072577100036778225 1.2825127938166234
P 6.482819700137577 7.749655652495729 1.3918244752124063 -1.209051748512995 -0.24346161499690328 -0.0516326365746272
P 1.977825650758508 3.057706154586853 6.158481077288983 -1.2737980396514448 0.8085947178332332 -0.10539080413268946
P 6.8548220578561585 3.863742921212629 6.093730940451177 0.5396933226069865 0.40975054016654594 -0.43146556324613433
P 2.467822774845629 8.468297598680506 10.322703166024262 1.3824652005425608 -0.22056722689723304 0.3239731393894098
