# total energy = -340864.0545384332 ev
CRYSTAL
PRIMVEC
9.29952782483365 0.00000000000000 0.00000000000000

0.00000000000000 9.29952782483365 0.00000000000000

0.00000000000000 0.00000000000000 13.61079898232409

PRIMCOORD
 96 1
Ni 3.3593335783669933 4.4971959198443345 6.459685532784656 0.029640962794884432 0.8044457286618661 0.7135839713832872
Ni 8.496783398568741 5.128931452598804 1.425989615977308 2.8483626986688493 -2.674882140846774 -0.11134265084075017
Ni 2.1474562939291504 1.8238141221850375 10.370421601655838 -0.17995022470681915 -1.875591988243918 -2.2225991266346563
Ni 6.6197108798094115 3.1967034335632167 5.880191958199454 0.39743289914145746 0.868626377104833 -0.3945108403986561
Ni 4.60589810206136 0.3979537696462459 3.035031140138373 -0.7415053803839036 0.0749826241544773 -1.8369015136522557
Ni 0.5390127294153224 6.271155272685076 8.936428811924062 0.24182099406968677 -1.4961915211241394 0.07791496730992387
Ni 6.95868797314441 6.4393744337872905 1.7639865390662923 -3.703266583981267 3.1934813617876228 0.053139817247772995
Ni 4.949562157483569 5.315117301701986 2.6711601404318484 -1.6109879348414449 0.25633358586356497 -0.4995334625586494
Ni 0.43228762684063887 0.3410611175487764 6.67069368189414 0.11582999718814245 -0.17119536133232452 -1.3188514803466576
Ni 2.7622387872292933 5.952990522903991 4.034186372465397 0.28080714552489705 0.5738843666663987 -0.06650004060476289
Ni 1.7495945896096177 7.91115492539439 7.675224971329528 0.789797382621072 0.8252050726964046 -0.2251869850574315
Ni 5.8769575823781635 1.8741152688709726 12.768303953819572 -0.7351688966429145 0.6053515840367446 -1.031170490520063
Ni 0.503158399400972 5.7695480345462995 12.761008474142162 1.8449459812232871 -0.3630364239394587 0.2820502739033788
Ni 8.071925164608006 6.504545525666571 3.847296549096341 1.580112328308511 1.3482849551164262 1.703797559875014
Ni 3.0317391072437863 6.786460715495396 12.959522707449732 -1.225503209200799 0.39316975298972934 -1.338488794961611
Ni 0.9171306059424892 3.568024285111136 9.686084219000401 0.5161888117271433 1.2063562039587032 -1.4188216276844081
Ni 7.407529689690287 0.9346025590564723 7.040716319340126 -0.5010876944196467 -0.7403255011431894 -0.04304335224371942
Ni 8.718242357189347 5.050908413091503 10.778473728703867 0.6016237415631962 -0.3689260499510162 -0.12143011698373925
Ni 3.7233636000014774 7.067325058665781 6.697574897388753 0.129987262525131 -1.8493435960703504 2.5744458525058826
Ni 7.383202124570967 5.468782701561181 12.630290589454386 0.5865213387041189 0.6171179805440533 0.6592578471368968
Ni 5.412343866427711 4.214936647481329 12.71784936492245 -1.8472813142246831 -0.4170625004469269 1.545557730262093
Ni -0.18666942455662255 2.9420358606302663 2.0996288216781314 -0.20940503963282647 -1.2781100367632376 3.1850350307924824
Ni 6.236942309354044 8.217258187423274 9.135649809355893 -1.1747480901351188 1.6408816370770836 0.6832336412262039
Ni 8.498094632009805 7.999174957448813 10.619308588014563 -0.7592765883243956 -0.04018351419742112 1.146622021322864
P 4.72188181466387 6.418022717612229 8.752070320063215 0.11496147854026008 -0.044428148406388 -1.448751582474621
P 8.4917244553635 7.021004109942793 0.2839685256003644 0.23814663054189308 0.8779970196864557 7.430488136116236e-05
P 0.7918510852003482 3.5951603076716014 14.033414526106242 1.5038436383527585 0.8699852051255726 -2.221297891324729
P 3.894995687861639 2.7720032915776445 11.012660951230748 1.1408334396655448 0.32466245214695055 1.201517387809163
P 6.383865551448901 7.563436275785628 11.47623126014512 1.3374552114907738 0.2432908937469939 -2.28083538456873
P 3.0470647293067223 2.350874168325183 3.639990542064074 -1.600581137685824 0.22903489804861202 -0.5948239450325433
P 0.7981310564255305 0.5366162410623985 11.627637804665062 -0.533783641990771 -0.9952663204242859 0.6221334314807736
P 6.609221012280897 3.360347226913632 1.8892195621686791 0.40325181981607966 -0.6874996155914095 0.14432836173815142
Ni 8.534455786297475 8.030811951537471 8.105244443302963 -0.16098139691380017 0.48891737760569987 -0.450081892795741
Ni 8.398282798513755 9.184957766456682 13.31775912317086 0.250855079247497 -0.5291955083994563 -0.18258946210187907
Ni 3.7541822356304637 8.542983453428368 9.43647558927269 -0.5747888807585392 -0.7303874160938711 -1.1000477731077505
Ni 8.150868857382436 2.3348510816659362 0.09196675171674702 -1.6170197428578217 0.09401444397494776 1.127940899973593
Ni 3.713506100373618 4.436163117903164 9.681551629077175 -0.19989941413523635 -0.6846616319219822 -1.2910624831588475
Ni 9.171454851872104 1.2058604898536687 8.83178866351595 0.16502188553176098 -0.8799369170216459 1.5880511235396135
Ni 2.0221079566801734 1.7451215166652776 1.32328841914694 -0.9021674462850721 -0.42438988734627553 0.8247091068965925
Ni 6.035198349989157 6.402008930480933 5.120573036876616 -1.32629816643269 -0.23893904453620138 -0.39169419688546736
Ni 1.7146283645145695 8.460571036728284 0.43316271242081017 -0.5570657524471632 2.2572092605093577 -0.2275102338739695
Ni 1.2074507091332574 6.347151015099101 6.034742673119568 -0.022484554255761277 -0.8130987763511739 -0.14119084455043426
Ni 3.9977926698299 2.6851642995729743 0.6884291749537924 1.957515562492603 1.026747678862019 0.2483906768674045
Ni 6.19182099973671 4.575172461711882 10.682435643650257 -1.0618794895681454 0.34289465888426107 -1.7142825185667379
Ni 7.878876263877126 3.0221791925103525 9.791255370454504 -0.8521381496418229 -0.26143491164587235 -0.6046882394211327
Ni 3.34197135968283 -0.4791525979487492 11.886705914224336 -0.2567182228964934 0.6094460658210924 -0.06225643483706052
Ni 5.092012326634087 8.98556658766335 6.9639245373335115 0.14203416638733604 -0.7338509491624394 0.4449664259460466
Ni 3.9474450255042113 7.900655758337924 4.776410526756245 -0.3932209179426389 1.5735853258232706 -0.18284811507990445
Ni 5.482015929835184 2.251313422083804 7.9293522416885365 0.8277175547056131 -0.8974088485541641 1.6791406805582823
Ni 8.648272708887447 4.577692633786552 5.345083170617883 -0.18762368209167685 0.039469261739215895 0.6673534796608378
Ni 5.513187947526301 6.759371190574686 13.155341007604362 0.0014012512229008127 -3.2696477218375564 -0.02761364795221051
Ni 7.09496325573559 1.4830515194834824 3.373653921458447 0.6920705227915435 2.7923381036741137 1.2966965415161733
Ni 6.888904315401527 4.72806600075116 3.7216004095020034 -0.6321872161723499 -3.179819033809182 -0.5005073964361445
Ni 6.6039667789886884 6.559924214613649 7.399157324676173 -0.9380173661041459 -0.3099845384198016 -0.09356398670109048
Ni 7.559902455164321 8.832003482611613 2.5276209965582908 -1.3527494186456832 -1.12457198350136 -1.009014266137998
Ni 2.488098002767345 4.123931466954696 2.3721449786070723 0.3265306157039408 -0.46485056646448336 -0.8123156183282462
P 7.483664925023574 7.847685647130107 6.073696535799923 1.1467310360969025 1.8219194384211266 -0.9379222352871782
P 5.395446624141087 1.5126891150627158 5.983647346746633 -0.7236164159186247 -0.7738907386931446 -1.5993881458189874
P 0.021966414972609878 0.6466017581366362 1.618365230884548 0.2993139460798329 -0.5403612952082887 0.234915268088789
P 1.7324369605403718 4.474691062203372 7.735411516227175 -1.1090923998085223 -0.017136659680286617 1.425109774685965
P 7.366053795029672 3.3181087709610497 11.867623282869273 0.41978709846694157 -0.5308273875759245 0.6702459707172843
P 1.976400776801939 6.47929730728012 10.789988404212561 -0.3143459007122909 -0.05304288665859252 0.8215623337374948
P 0.6073345013643382 4.999240235796798 3.2102026283366136 -1.1174307444708884 2.0190081225804453 -1.4467013848138117
P 1.8165511908554546 8.368905589717142 5.30502638392256 -0.2376393518881714 -0.09339455100276173 -0.6683603236587973
Ni 5.912165595199932 4.451395744686592 8.237268911667828 0.27007844625348326 0.5222522443124039 0.15461714525866918
Ni 4.228030382836071 6.356729528888436 10.806144474121504 0.47469660602062763 1.6230993733929981 1.1403809255091586
Ni 8.50848220473086 9.270318133517172 4.570833301970034 1.4970494982490605 -0.2606489254094672 1.1202725847950579
Ni 3.2670357634551976 2.6483102703039116 7.9754788302773525 -1.2111256003228885 -0.47908702177883944 0.6606650118970687
Ni 1.557577936481279 4.119058514308471 4.760826377816277 1.2800093106684793 -1.7372697234905305 0.7651651858946886
Ni 8.743732363302518 3.0186081737772414 7.500366877223231 -2.8974196040965 1.2146269286079276 0.5352802811409555
Ni 1.4351310519529548 1.0334565411735896 3.5416387344563005 -1.7970951802885953 -0.35543752854627814 1.108592063133336
Ni 7.519421609994441 0.9321288846215566 11.145788343610578 1.2832455582175901 0.2212951062021931 3.2686313647578995
Ni 0.15968219444336998 2.625489228712622 11.993699773156798 1.6729319806444092 0.8563843265126864 -1.9627372159028584
Ni 7.192217719045168 6.320665959495192 9.602759518608343 0.7350483119046503 -1.410923455883254 0.24627028809029203
Ni 2.4413771743424726 8.28306164720321 2.9078656751278076 -0.12084390546296607 -0.4986214922673413 0.07461675617462633
Ni 4.22916492524607 7.768648959076168 1.1098065956025402 -0.5616834537248326 1.0659438894455062 1.7752390036454524
Ni 1.2236318877676677 2.6017475338542027 6.524119172097437 2.42472151656314 -0.5553392566743597 -1.506016220524045
Ni 5.023419008468907 0.8993750172260063 10.462185623663256 -0.12090689749041757 0.6816295299638777 0.1739227875658166
Ni 6.1668982648285375 8.891790147807376 4.672859353071172 0.19595148523108188 0.2844596546758198 0.4608900391548385
Ni 1.9428759785392664 6.430186500171889 1.3690151280338712 -0.06540140822394543 -2.105178645030942 1.1211573013928562
Ni 6.545565743457598 1.103723774369915 1.2201268956830071 -1.4950584359609607 0.5789463545703384 -0.09096254452250141
Ni 5.032662739252014 2.5224039613778855 3.8040546740778662 1.8971977394391522 1.784467464222256 0.8540849889555484
Ni 5.705186001598739 8.86132489424052 13.076221553751662 0.2224672721334233 2.7173043145667264 -0.23967489426096142
Ni 1.2766205980313872 8.541551326123944 9.893049863309669 1.1745372596758932 0.21678127749223955 0.29561747106485214
Ni 0.06330374666675839 7.6277332120375325 2.359051243252331 2.0039144614721165 -0.25100034657610965 -1.2743796231865279
Ni 3.073689277829893 0.9401078796033522 5.783622870099852 0.3004794271428438 0.14695088696266306 -0.054128920633919685
Ni 2.95572476577386 4.656069055355983 12.156716778323329 -0.37939121114839824 -1.7950794354101474 -0.45060074141368844
Ni 2.4665602960332675 1.8027041937366972 12.609751652022226 0.10429808528914296 0.25206761149835943 0.6128021267775188
P 9.014627612509633 2.4593996595111434 4.629618408005493 -0.21828897238601763 -0.7596797373000852 0.49004274945939474
P 4.568923178928937 4.507285907670965 4.846437832131438 1.9870500816166103 0.6016764491780024 -1.9476936913061749
P 5.100446998485472 7.59993692299256 3.0986343316051475 1.3524817668065932 -1.019422348845199 -0.7134585015490165
P 4.146622315154674 5.417979380365902 0.5179130304477281 -1.0076680365227484 -1.8413868031171192 1.1774415778068819
P 6.925339865912803 0.9308083516525415 9.2968561964304 -0.848289979540326 1.2859537011773723 -4.0130269222054045
P 3.7936494322537047 0.5278374866768333 0.3305461412947947 -0.09553653704642902 -0.1888110175315587 -0.06509750383028144
P 8.22695759507597 5.063165190930672 7.494351012591851 -0.8510104637952828 0.8569435414502661 0.7154235956951872
P 1.926880790463872 0.8610172542872975 8.145083621044238 1.2229292778260359 -0.11866463842346016 0.5626183068342763
