# total energy = -340862.56524987024 ev
CRYSTAL
PRIMVEC
9.28233384243718 0.00000000000000 0.00000000000000

0.00000000000000 9.28233384243718 0.00000000000000

0.00000000000000 0.00000000000000 13.58563385109095

PRIMCOORD
 96 1
Ni 3.516528666464576 1.377071367103048 0.9104345171945798 -0.12128433543449435 -1.202079173849904 2.6947320856931656
Ni 4.236921320046552 4.767972926227258 11.553739601061634 1.334178083401399 -0.6985949541736227 -2.2131518651788267
Ni 1.6403740512183735 0.29228677179600365 0.06584794863025137 -0.7680949579469739 0.8291244623554689 -0.015038896610993453
Ni 0.07690413656826747 8.316404974391912 1.6322055973644116 0.5119220660309893 -0.43104415943799956 -0.7134710999545067
Ni 5.128211023520908 7.95616687709826 7.738838664679853 -0.20085946405566055 -0.324485560249454 -0.6126494032497384
Ni 5.403914905759977 2.698569400997379 3.001283946724679 -0.11499875953609873 -0.30416844595865683 -0.11421945816791296
Ni 3.7360651461237304 2.6509603102962753 10.179959749568376 0.25155467641768287 0.5777970714572437 -1.341059898122897
Ni 0.7974434510262575 1.4913833093888913 4.198898095589751 -0.33904931699624186 -0.15539490396495817 1.3384036914469724
Ni 3.2520285612729305 4.934061727146511 13.504500975229677 -2.150758133432954 -0.4428807470616114 2.2445519767566635
Ni 8.95528945377884 1.9047070743993697 0.7176348721728711 0.32331699386264956 -0.7937280851340459 1.04936773025438
Ni 0.6959912541600491 3.7612574003960635 8.189134893946827 0.4415923672674911 -0.021974447388562152 0.529868623207081
Ni 2.199681081866648 4.91598902299462 5.740446850442679 -0.10648969362382306 0.6128458355312606 2.6085731332068947
Ni 8.50464142405611 5.22351274592844 4.490079341415292 0.9633684432744247 1.491430095179754 -1.0933096830529687
Ni 6.717300179803895 9.009711777580863 2.959059537933443 -0.06280022315567248 -0.7889383770548865 2.737206452807292
Ni 8.4743253214572 3.78896516716206 12.859780692504128 0.04152614426824461 -0.3586848318389823 -0.5837702583215431
Ni 0.7810508493147839 6.031716278440507 8.136151331903173 0.5550631201948376 1.0180138985334468 -0.11033683528405513
Ni 6.520895276285733 3.4207442626929465 7.203918181719225 -1.7115455792515493 -0.05820437625487395 0.3513605302634271
Ni 2.9010913625720876 7.124646121766702 11.305869725329943 0.26718004165976567 0.8355815308347222 2.926269438448657
Ni 2.3416358145810134 8.597455480971753 3.04306001878734 -0.14357142896746886 0.4360403271010103 -2.0819345869013373
Ni 2.5104164923385035 2.4032890765105765 7.301286151658452 -1.0818777870669432 0.3585717032998857 -0.8982907369384853
Ni 1.9173496132051608 3.2151220015873023 1.1544392290799204 -0.08113861645354413 -1.188530745741508 -0.8832032464777435
Ni 6.090956133549582 7.849401472293407 12.238985625470153 -0.47448680400266674 -1.2206834192146527 -0.35667962848349544
Ni 3.6951671828503705 4.176948160557405 2.2220255160908042 0.355031294246795 0.4758628584145869 0.8888853844641853
Ni 9.070687429133905 3.3630081456797147 10.442475291766867 -0.2446191256401142 1.1689134857312127 -0.37609017179962323
P 7.015123863786136 1.7399270825635358 12.678018670752586 0.10786960469048519 0.305822436622312 -0.33412693999396004
P 4.043226858034477 5.549164867017701 3.912717243049584 -0.24020428440187017 -1.1086697104488068 0.6248207485049497
P 7.331558627287914 4.045825911533465 3.2479443343459495 -0.2374822574850168 -0.4707234803054926 0.8364945295672949
P 0.9993639173626288 0.8983869759933782 2.172886696758868 0.7294343081519825 1.142575104947 -0.3371207325149613
P 6.174747761890168 6.37961815394789 6.4732555538826775 -0.8689876170989937 -0.44112391227150477 0.2564526279399325
P 0.7059354184938554 3.0825795554728437 5.964229069639109 1.1173505260522563 1.2975756016870168 -1.453070521564949
P 7.7570886614097105 3.9589618306637195 8.870807219794239 -0.4639792196031235 0.590124482674345 -0.017291182980279898
P 7.523842174543396 6.910029279087774 9.934249872941022 -1.4681387287519814 0.5030263062032563 -0.6482866928373738
Ni 6.081627387955 4.523272039297545 5.0187908712135165 -1.2826858290593781 -0.619156865350953 0.22865386056010945
Ni 7.921088937195848 1.8242942156074684 3.1481722399201586 0.4376405817085947 -0.4749177208924982 -1.3687841035110426
Ni 8.138063492691714 5.671868039171706 0.5837854734417784 0.07533949327326381 1.8804269477387163 0.09621042318500204
Ni 5.641236337219349 5.229583392315361 1.1494926733313109 -0.6273743681647388 0.5947347277528466 -0.9498570390515513
Ni 5.518412494724319 1.9327118758509645 5.259284076175046 0.7340514952090197 -1.0554540456577757 0.32268655936750235
Ni 1.6091389975608938 6.283267527806838 3.9596821397762954 0.2190525900249195 0.590200587327919 -1.0551830513845764
Ni 3.1353496238362233 1.4928035064794096 3.638653549215056 0.15484700188128817 0.11185687147300735 -0.32613877958216086
Ni 9.278277545031639 1.623322403798228 11.976959262269508 -3.8932245706330755 -0.030606412031947288 2.1543180828700703
Ni 7.644289739553636 9.050071365486575 13.459138209338414 1.815381637302609 -0.380558491983622 -0.3921917053471762
Ni 8.901721104697915 1.9555092879706584 7.338185285476941 -1.4704259821242611 -0.7271167157623993 0.6669351611764965
Ni 1.7736219547111292 5.116394612434439 11.109435118343221 -0.22772106433319494 -2.496942261701764 1.065935919025706
Ni 3.2795878106961274 0.45567998294344897 9.06944359638796 -0.28585987745745606 -0.8786079137975772 1.5647394453968664
Ni 0.9035739441906441 8.983860477599857 11.523184942480855 0.3446011000524065 -2.266051798501652 -0.8016059452202259
Ni 7.788509361745691 2.84135954376499 5.154429903925341 0.9349127590368931 -0.600247944261592 1.1333145055806806
Ni 2.168603827885893 8.44666396636083 5.108836936152738 0.32533839516805263 0.7945665218749413 2.1144227893370298
Ni 3.9539864996799423 8.62109758547862 13.237284859131591 1.186251719899344 0.63403481090405 -1.2604581280094291
Ni 4.768678383605555 3.0691387359495064 0.35620585143664896 2.225769553942838 1.3624885003103178 -0.15341309764823902
Ni 9.019300428525343 8.07462802264856 4.187879965220827 0.03001043031916122 -0.47008790360402264 -0.21666326385713652
Ni 3.796548833978749 3.2110934686638712 4.9820421112046125 0.019796208790320746 1.9518681343988384 1.257227022666641
Ni 7.130985955837447 1.8124592398531485 9.477800384515193 1.85771227975002 -1.2505092443268333 -0.6735616653540787
Ni 5.995004647767303 5.580437050010881 8.655936969399159 1.1769530682062377 -1.1388901998962448 -0.8663843751481919
Ni 8.141470109242174 7.135580711130301 6.591858719142028 -1.8438010689855664 0.8006615790290856 0.16851987138269045
Ni 9.259109525476603 4.0284215354241715 1.9651889057876035 0.08674953488241834 1.262810687402006 1.122142805234577
Ni 5.880488494135111 3.2694979137196993 10.36548575772649 0.16080501923693596 2.3425351755713724 1.420145488702154
P 4.311866884156653 4.008074659460666 7.336242492986447 0.10233401958423666 -1.2653699634887496 -0.9118875017863134
P 1.468242450913974 3.119263339144273 12.536714629646358 -0.10731141819417003 1.2431448335419624 0.4491699225044329
P 0.7886827842678833 6.9385817382409405 6.133003249762852 3.0774405341402544 -0.5682870750842793 -1.4723723072173547
P 8.736254220151633 7.452869449353175 12.496568535420922 -0.27743822905266413 -0.18443217173757268 0.7453406949695938
P 7.773824709476408 7.199870155894552 2.4121295713407056 -0.6649279009384806 -1.690193595938334 1.0786587659090134
P 2.380194629705284 4.233394033155068 9.4067747500216 0.9079886809525395 -1.3750871629109351 -1.4943696374240523
P 2.798373055358515 7.115512305184544 9.346128621322896 -0.10823315867749102 0.37179951484406937 -2.686333320106509
P 5.807547914152799 0.1334251960707222 9.037271955237452 -1.2205196399432785 0.9196645746285709 1.4522683373786278
Ni 8.345105950887877 4.696044120642767 6.651974826573619 0.49326074217606014 0.16101919213027108 1.1933970726948737
Ni 1.9618584043753289 3.8524284842069894 3.839911256909185 -1.802869106657895 -0.9962911621443745 -1.83884578186282
Ni 6.2331800539477715 6.689740930380698 4.293644734428571 2.7471622784684238 0.1402063691499779 -0.32183963798617476
Ni 5.391123849611386 0.8006226503955554 11.116295691347155 -0.2610415328621956 0.08608439049459367 0.22669365150994508
Ni 3.4789630610702758 2.0640754655569538 12.413003396028104 -1.0521941439595814 -0.12400893345450899 -1.763007237465951
Ni 1.3166897849212036 6.394432758892121 12.890389188621672 -1.455547779460848 0.6322653777084529 2.1073825946607965
Ni 3.5689181591370325 5.96765889202438 7.65733884458534 -0.012800494198777957 -0.3048729282248491 0.7405556148761245
Ni 7.709061865681985 8.817920194023404 8.312506394143428 1.832668963628147 -2.2825623945621656 1.8017473343486259
Ni 6.134833726012854 7.575581903841105 1.127716317943362 -0.6913801815927383 0.19071903318754896 -1.1900641516668988
Ni 7.8143606617266945 8.945255250805962 11.036099110935707 -0.11550809507234944 0.04026398972636937 -1.544225898824547
Ni 6.577387560553021 1.0833876040513382 1.2526704560741686 -2.1408784124253963 1.7837357282625537 -0.76510399363945
Ni 4.967413152938881 6.988567106426834 10.082524018591497 0.22987384901013957 0.8966850830142621 0.43844379433618036
Ni 4.578752549167013 1.849143023524578 7.92516573825569 2.090146176177852 0.6807689817357954 0.030453945614483034
Ni 4.614907239804719 7.393954475931475 3.0200593235546895 -1.6302352131068312 1.6140205510201817 -1.6305604576567339
Ni 1.624371307531748 1.9385226168879874 10.66926034598802 1.9910913415655191 -0.8688081540983359 -2.4842662088959924
Ni 6.67302344698185 1.0500454605928933 7.161042153086457 0.07227936629070134 0.4784599297178018 -1.8857036227566233
Ni 2.5085693078874374 7.695732434165746 0.9900026835993098 -0.12244107474675689 -2.33850805668985 0.7597008203460077
Ni 0.2591636914181876 6.719509375278035 10.63749712753021 -0.638417513352778 -0.14141118809135647 -0.2070331969665402
Ni 0.8877735553835826 8.35089812725705 9.026349432907955 -0.7570047615710834 0.4938965759878462 0.5794778015937762
Ni 4.272407682641662 7.237992701324349 5.4789505085091506 -2.166615669290501 -1.5767938054582393 0.40919698165592105
Ni 2.4704931741272644 8.194091660262755 7.444573827524441 1.2617189969997238 -0.5088544828492592 -1.2425133706055504
Ni 7.0728785454672165 3.4231112578438108 1.3531684290128914 -0.1554051883776033 -0.31411784386188485 -2.1453878702599765
Ni 5.8490585114652065 8.776780890067995 5.472157696542866 1.0396237634937386 1.1383865207869492 -0.05782282454573913
Ni 0.3361058855555474 9.120951267337546 6.639720289325891 -0.5916931127130455 -0.10228953949954642 -0.5545383580396193
P 4.660047229681784 0.512550058201482 2.487108551852937 0.6243718338929891 -0.9514827475804323 -0.03572522131575138
P 4.525704010785884 6.417944910724037 12.864290978558262 1.371602289686128 2.3141419691406595 0.6521798572441929
P 2.9886423361522803 0.08224519150868762 11.351218567720318 1.2637733084255913 1.115160717489789 0.034647929091172584
P 6.4316177885954975 4.515669807813006 12.401157281473074 -0.6745466549751673 -0.5604853196516735 0.7050422524608632
P 9.244619802219745 0.9732527120317251 9.291092735248435 0.23270540492166372 0.5050430795229689 0.864651194507169
P 7.8504039643573025 0.3954264969697691 5.033599906757393 -0.3969898980667679 1.3464774695940425 0.3484932360179611
P 1.3698404289755064 5.932256070434595 1.6669577273460574 -0.24370304158374803 -0.9982194895153389 -0.22349648472888606
P 3.8036126900956413 0.6296253512967853 6.125327687840304 -0.32348025891339127 -0.5703005059698824 -0.3173003553549245
