# total energy = -340893.9968792329 ev
CRYSTAL
PRIMVEC
9.01242637140436 0.00000000000000 0.00000000000000
0.00000000000000 9.01242637140436 0.00000000000000
0.00000000000000 0.00000000000000 13.19059698457383
PRIMCOORD
 96 1
Ni 6.431420804937731 2.064773962326639 11.381743935110057 -1.0679760893841863 -1.002894269283189 1.1981649263971623
Ni 4.680702870970373 0.28577142884130924 5.9693518926874365 -0.46272092171599016 -0.4210381972652233 0.8331490101338296
Ni 2.840662777360325 1.523739971037163 4.837335239624001 -0.5566991131363638 0.8983460156564529 1.1204505051338187
Ni 3.465674559342021 4.204053655030245 4.8706415632215725 -0.07474299733984546 0.3629582624033556 -0.34279669985381606
Ni 4.960259330455452 4.341132663017866 2.639544169960629 0.6348732476449452 1.2322256155262972 0.3515541343314719
Ni 7.062624123966599 5.918063975616039 2.4885247405689803 0.2658464104500067 0.567840474465164 0.2954022697302525
Ni 4.74589876471018 4.609720999378624 11.35707782485619 1.4869484052593165 0.7142730270305119 -0.09999097327335683
Ni 5.479122752405708 8.010650286308872 12.294678412153091 1.0123546433651402 -0.4346431896431675 0.5364714732355793
Ni 1.7501050889612328 6.5311883669642254 0.39794459602855037 0.6677705125935984 0.3113215120636703 0.25720210451144737
Ni 2.96628699118935 1.599255093188924 0.5080566212613687 -1.58394172935693 0.5563926376395385 -0.05261094132749649
Ni 0.5697430760984548 0.2767481873687775 4.654038705748008 -0.29461859748669256 -0.8478423504799463 0.4022526891276039
Ni 8.541347024333271 2.2482489422485328 1.2768310267680711 -0.09292558178614319 0.7594200558807953 -0.3008509515496496
Ni 6.925824501202358 0.7248144924717764 5.067009720581145 -0.5336846545190616 -0.008599825853869059 -1.3874690815150557
Ni 0.9659338539183009 7.604288985115321 2.6717419650912393 0.37451125734827756 -1.0065598910602342 -0.04612070561746251
Ni 7.526214333820334 3.9073465478002323 3.740404864403867 1.7704675503987377 -0.630771823882062 0.7650649128713986
Ni 7.6031263820889965 3.8500275148744416 12.453770272015124 0.9388036094508672 0.2816332409706182 0.6076874312587729
Ni 8.07354801127571 8.779987067232959 6.967867471107832 -0.06468304200068214 -0.25919290968923103 -0.28257375050701655
Ni 6.816620928566854 0.6225324634348582 0.5286887693866853 -0.6160825973010035 0.19646981962839713 -0.7094712347664942
Ni 1.8919967327322469 6.371136683673484 9.060911613069946 0.5024892027528636 1.0497726790022823 0.9806843088450529
Ni -0.009314342850440985 4.866989727979194 1.20295616625035 0.3264033460974572 -0.9227347289134623 0.7139925196756154
Ni 6.178414954100354 2.210649098637464 7.076966499595232 -0.011444494391515774 -0.1695704241343918 -0.43936502059886906
Ni 3.5419106756186345 4.40682424021851 0.45183079567738604 -1.3274047692333075 -0.24170040933142245 0.0012503274673333305
Ni 6.205452233782331 5.576069424918715 4.904620213840568 -1.173990643143804 0.9973121472097212 -0.7718883635511351
Ni 5.143274676622753 2.945594459806077 9.244036910841285 0.02801936803106142 0.2549225644486513 0.3908681014397462
P 0.1756125389903753 5.660750184882667 12.313673002372335 0.8960207099573858 -1.478907794343027 -0.72726609685607
P 3.9752732067879184 6.277290285897343 12.663501154236185 -0.5307039746241827 -0.22122800040968352 -0.5371376460646685
P 2.461023320919129 8.564671184272257 1.3669156376977933 -0.023317334569701777 -0.3892773599138586 0.5075391064719453
P 6.3621783316721885 7.654515238337874 5.905324910672547 0.11555026116419456 0.6353000507697187 -0.7585654211899839
P 4.6404083118176676 1.167749121891136 12.584832584030849 1.9204669943797377 -0.9074875729464048 -0.6381835429651008
P 3.94465799376136 6.046608215650718 8.194486664535848 -0.02392900001177169 1.197010758188061 0.8111622214500933
P 4.7939890728378565 0.9855809438205373 3.884934445429186 0.9031604063259607 0.9274843277833059 0.2830368061863641
P 0.17745648146468612 5.625033938422775 3.3836515639708082 0.4773648968814101 -0.010946985929806953 0.7817842825086084
Ni 1.3310002166109116 1.233936382552615 2.4179556381137086 0.4819466027148216 -1.3904729013383859 0.3150169586373865
Ni 1.9402763018176967 6.4679211325084 4.82789021658843 0.5240833839838717 -0.3226551919089346 -1.9734520312172013
Ni 6.056675096118973 5.598357155803225 9.120941583905182 -0.6818105356264322 0.8586083307471988 1.1642006536365757
Ni 8.470959972894525 2.315761029614429 10.195540067350661 0.8817174059608364 0.02051148968979048 -0.1952657720179669
Ni 2.5242274683890304 5.10179047716404 6.88392212515123 -0.9254757819937093 0.09708382692889087 0.5773597268095089
Ni 0.5796504366165871 8.950457115627822 8.887402574438829 0.24007212969938008 0.10475419898995508 0.9702625992910968
Ni 1.3500344615070232 0.8668386189132319 11.338782598938051 -0.1604769464735559 1.7463164070738315 -0.0020178017609771702
Ni 4.111910605874068 6.594086091931064 1.6491415779301393 0.56063032986997 1.433493113653654 0.22335764515817663
Ni 5.489405931111419 7.713600706869554 7.92463388472863 -0.3698339064772663 0.5960279926429735 0.12102619667710125
Ni 5.479591398586861 3.1076559142198454 4.835264184000361 -0.36510230532955185 -1.5117950319893512 -0.21116290286419764
Ni 0.979885090234201 7.098926178152934 6.765232973560633 -1.5249130574285479 0.5016430527024844 1.2853096398354704
Ni 5.119472858076053 4.6341897374908125 7.1692870935546535 0.4799264869609992 -1.2289973383969865 -1.2334052376566953
Ni 8.07573803092995 7.21391572864038 8.884856563935442 0.2342812340492159 0.1007615328907942 1.1209696108620824
Ni 4.83424758228432 0.50779976710439 10.423777066271379 -1.6877006543131516 -0.7911425837950569 0.649274767782256
Ni 8.2274261823724 7.216799705139791 4.744974089745056 0.3709752191705611 -0.40173409761997264 -0.3278822446358288
Ni 7.507639722678816 6.116896130397296 6.9407734131385235 -0.7878651985953657 -1.0869112357257926 -0.2922302997601741
Ni 2.4275782059525244 4.948534163500035 2.664923163155445 -0.9799700563868478 1.2074085564826171 -0.18149237238295837
Ni 2.2390472547301004 5.138146605909738 11.421170597584972 0.522304694816894 0.9645508936183003 0.9409965033371279
Ni 1.1087627900516233 3.168814240860477 3.7266203579793387 -0.8093313388889417 0.8413328314962025 0.7726982610469402
Ni 3.5557357379626855 2.5612144669939747 2.8006539121295924 -0.03737792642782595 -0.3655535339343575 -0.4058252369702108
Ni 1.219056866300967 3.3138151717949182 8.156550657414066 -1.078400370041304 0.2497911567593569 0.2360216137790903
Ni 3.5067441871789433 2.7737545225739932 7.238644024637517 0.05477940973372501 -0.22159438261016676 -0.41575817981320656
Ni 4.2333800910586294 6.725550358171396 6.022813607045265 -0.26811412343826085 0.4092262922319597 -0.7506510514389136
Ni 0.6221061756585391 7.512785818244952 11.19778859285248 0.17851992001819578 -1.0283098811428162 0.24512794695573265
P 0.2415474517081559 5.4886218500006425 8.0586369515311 0.1925684276914619 -0.9402578253988902 0.03278413640955644
P 8.194017117112038 1.7135957489640037 7.929593423064961 1.5622416186756773 -0.1910260229050065 0.7937221715967749
P 1.6508782725283784 2.959662857667266 10.33996420298522 0.6439528413487103 -0.437337191535563 -0.11594466838913581
P 3.9573655152118894 6.156595869396999 3.789328821988404 0.38994944628021877 -0.31378899976755636 0.7322751200348873
P 6.703848435013328 3.959032814125611 10.475616543848288 0.4075123948646465 1.2508175195958717 -0.1392812862325472
P 6.2520284542478155 7.809114403559417 9.931965343885597 -0.30664493252360736 -0.613770147117743 1.7206861081002367
P 2.233955233723328 8.512372072940753 5.723716404291365 1.4588992124315843 0.1126449145919415 -0.19484411109951605
P 6.915838732573148 3.8710715308935804 1.6793214907538179 0.0716594733185153 0.8466349604354063 -2.19161939042369
Ni 5.308166032976569 2.9574097510271007 0.5114038364859975 0.17251408014374806 -0.8538255646465747 -0.6542377682144862
Ni 1.291093191800314 1.1168018745437311 6.961390240138686 0.45069227268623024 0.6807895505610856 -0.4037524136015821
Ni 6.6392834111327685 0.8863009540709749 9.115560264005813 0.45719202147796095 -0.4648258838741349 -1.1521779181440868
Ni 2.7226270266953754 1.2132799008755848 9.247360693756859 -0.6146898307185349 1.7343425225414066 0.20988892124778044
Ni 6.326380973373252 2.0203787490888327 2.55387114183235 0.33377238486801875 -1.2213056261796835 1.2474943687599096
Ni 3.9734977587554683 6.873146867955307 10.585085081824674 0.46325468273227316 0.15313181896239433 -1.5885126365570643
Ni 8.034812601917999 6.962423965465193 0.3257703804028256 -0.1304541748592205 1.3920934676609447 0.36218564590338914
Ni 7.584813131317738 3.8944047032591262 8.462625280811228 0.49735136730566604 -0.42965010730395037 -1.240000631486026
Ni 3.076914527221438 8.401095642196298 12.382765869356971 0.05158481405582729 -0.0352092009112813 0.4823173557906791
Ni 0.31060787395717304 4.703882832084388 10.177759450989138 -1.2857184452381147 0.26704557296443043 -0.029512407636820143
Ni 8.539508489314898 2.445386760836386 5.916062315676917 0.23352198728568813 -0.25051800762305243 -0.7794525490516382
Ni 3.5507969282074443 2.735307510866223 11.411528202407723 -0.568544185400408 -1.2795544825192477 0.1241850540210571
Ni 1.1747157276225253 3.268897237816594 12.483607712629496 -0.8043598538162792 -0.4533520789065805 0.7765042650565916
Ni 2.862517911769923 8.371967479552248 7.807369597777273 1.1730660744470056 -0.7290890089974218 -0.09568411836788682
Ni 5.788483306526885 7.827022095135446 3.6708640798191667 -1.0478314961155115 -0.08089847541828003 0.16377104384379537
Ni 3.1120990405142503 8.56976320527903 3.581774440781741 -0.07378114764720843 -1.4368399186386998 0.25584764736608195
Ni 3.279297578067595 4.350370400242543 9.448385571920323 -0.2193438960130932 -0.13350787408387974 -0.9136615629676007
Ni 7.373633952148378 6.3111499724857385 11.21735006470239 -0.5895693815018233 -0.6028722692583166 -0.10332492274259625
Ni 0.5666067516553455 8.93592908401204 0.29045158195425935 0.25157858767708285 -0.8818691010473523 0.9634882566817407
Ni 4.5535465446260375 0.3277486080328902 1.8105280015945144 0.9332081176409606 -0.7024775770574806 -1.1321117435218309
Ni 5.936287102121691 5.423155583464015 0.15598527642657234 0.18139724156599082 0.7861091351362074 0.8227293574624024
Ni 7.85757422117608 8.98573175318624 10.912911196725988 -0.22923107321981812 -0.9067686925025092 0.048354737154303815
Ni 0.2591595356929956 4.750323866151464 5.7657683866234 -0.6654122967740669 1.0458957125453794 -0.46458394306665796
Ni 7.968201757208168 8.667899518098043 2.6030059901984055 -0.16574230863755327 1.1564791166226018 0.2814478644326895
P 8.40795409880896 1.6811239760659498 3.639034892934888 -1.0387012516794691 0.55214080434172 -0.9669021674592961
P 1.7692745202557543 3.2214377995481644 1.560671993840087 -0.11972830380128413 -0.05607575994764537 -1.3057918189492221
P 4.57697885368375 1.1061942484818357 8.205685505780123 0.3263220992375606 -1.009248493635991 -1.0963734095799569
P 8.465714740636221 1.3060808571706897 12.401417086124257 -0.6276052532286224 2.4389253188673483 0.03284558577511118
P 6.378265513082965 7.738258705939516 1.4875559796387736 -1.4787843813912853 -0.199728692885327 -0.5337913553002549
P 1.7412098239458627 3.217066772666245 5.870475659647791 0.84998125119982 -1.106196823428282 0.5080602690827379
P 7.032333358296225 4.002905306622899 6.072858710493948 -0.10670540917905494 0.724130893661198 0.3376946027405604
P 2.369646328020609 8.35050889191132 10.265899180267066 0.2355775842631362 -0.5828174074899705 -1.1706268688778936
