# total energy = -340860.3895428566 ev
CRYSTAL
PRIMVEC
9.32266494932506 0.00000000000000 0.00000000000000

0.00000000000000 9.32266494932506 0.00000000000000

0.00000000000000 0.00000000000000 13.64466250275171

PRIMCOORD
 96 1
Ni 6.56541236175777 0.24085385136035695 7.084350127818471 0.10962181149490154 0.4304106396190588 0.7748464177381946
Ni 5.18047451537359 6.557441483040932 3.464570868402063 0.2118182770600094 -0.8862258353541511 0.20748673956419103
Ni 3.6559390807953513 5.584164562387024 0.7746388939642574 0.5470266230436062 -1.0317711002185392 0.36786367012477295
Ni 7.146932246810585 6.823016245621684 10.907679526200438 -1.553979892887517 -0.6470402220247825 -0.5425685872722527
Ni 2.113504129098601 6.626466495929193 9.924773224696679 -0.3383060110723141 0.39550560021175757 2.987372733517881
Ni 5.462046971379011 1.9948918601929633 5.685922384939247 -0.26754693808088115 -0.3875243817784939 1.022899251650206
Ni 4.438157301539479 0.5246712051377249 1.0012812745457293 1.9567172349610236 2.8328082958740177 -0.5097268581518835
Ni 2.5482852644402834 4.6569509303177865 3.4326015850151883 0.31289039921268696 -0.27610485495322123 0.3875297810951326
Ni 8.337697623119576 3.4091494885238713 11.65824543417333 -0.7029056657338346 0.4020356880207915 0.8227915781589056
Ni 5.3256284120065205 1.162816026141648 9.229441311032145 0.37449583072930986 0.7791157345375098 -2.8208827480810257
Ni 8.269418423444586 0.8840133339570132 8.723155333868075 -0.2686108605690213 -2.523802576427718 -0.6470129683312729
Ni 3.640165131334663 2.598739528318088 7.396211922947874 1.7760414449420896 -1.3109718204882648 0.17427425736796437
Ni 4.871558682436609 3.815123588502949 4.1337321964129075 0.5128342934326136 0.7790756253281937 -0.9554026514601288
Ni 7.616710667185023 5.3760733532191605 12.777694286496285 -0.3358485506707571 0.07863076243002587 0.42527486105439016
Ni 6.401519908141396 6.111668925468664 0.964740156161501 -1.791132277836941 0.07950930838023725 0.6825636117423729
Ni 3.6832544897314135 3.6391396381664145 9.667898373248738 -2.165318033525 -0.30228331312080203 0.9686083515171252
Ni 2.627705048988513 0.6220958529208409 2.385700780746685 -0.3353762390200289 1.8149944291665194 -0.9851739691852904
Ni 1.8253405488208942 0.0925060096415917 4.355621882292808 -2.8697977286141736 2.8851965796677472 1.9303024924129208
Ni 2.5059696872523016 1.934229277958507 0.08109972881112344 0.027849675222416555 -0.6556403049889676 0.8088824242769811
Ni 8.559474504750968 8.619726889718125 3.4980821206073767 -0.8137677773937405 -0.3545245298137056 0.9939828257261719
Ni 8.249477242654743 5.574431699953834 6.9128774151557115 0.1761537337788644 0.9503152096348925 -1.0982963376342827
Ni 3.449274239397868 7.035983208671309 12.169756765162884 -1.9282407247878854 -0.22618303042211368 -1.244752287238398
Ni 5.594866981997468 8.227755432818217 5.450742307598851 -0.02779696760761019 -0.589500733047417 -1.1850391876484816
Ni 5.887766476179447 8.675877302012289 2.7143191342452613 -0.11923516621494949 -1.1226469985645051 0.29648598971273454
P 9.559367634453496 5.221139980827209 1.1835608206687898 -0.6684613680130358 -0.2882260636967875 0.30859562849207495
P 8.599850967584445 3.7910151763839535 5.739027082523715 1.9582850936687757 -2.263953778322043 -1.4058095316954564
P 0.08344531136686174 8.764526525074752 7.516681266754556 -1.2482325324775148 0.024862053349002343 0.3388145752776165
P 9.24107320035963 2.0340377312245415 13.053002843776744 1.5492434066437963 0.5120837884198343 0.6302434621824178
P 6.554644683491165 0.4795793382633409 4.47244792855266 3.492699662829856 0.6448547843376894 0.4466844370784179
P 3.2988157462855456 4.647628265151894 5.751293845348995 0.6064296475922718 0.24729333003816764 -0.10134620174967061
P 3.680718724806291 2.686829391470597 2.390080568841621 -0.6031368357736129 0.5431362868502646 -0.63267135489762
P 3.1167720635911818 6.710305223766055 2.7611478136400507 -0.715617199763232 -0.17793987914500967 -0.9417372381578942
Ni 0.7871238071544193 0.4754885527885477 11.98058683721571 0.6909790894995778 -0.6880421183584409 -0.5371052501648362
Ni 3.8943289517523634 3.5692942307435556 12.397990524688172 2.131031087317672 1.3888592769943628 0.5348748181724208
Ni 0.029985420239573454 4.855327922382791 3.4250427680986832 -0.874174817726888 1.0495893593468828 0.05664937306292825
Ni 1.6829368384119012 8.857893016711156 9.857818775741764 0.09778753786413481 0.09822513962218568 -0.20330561160330793
Ni 5.382254280224146 3.6560975661031714 1.1201583071420784 -2.1072108449696225 -0.41282120867206973 -0.6256406733030837
Ni 7.543117548365475 8.270332044630843 12.851948382276094 1.9691495471871059 -1.3404968265305754 -1.165163274660161
Ni 7.186917157707093 1.617594278264168 0.030128057016611597 0.1266330013409174 0.7302976845935422 -1.7910672289269605
Ni 5.4437372569932005 8.431437021362616 12.145551397326162 -0.059514096205232986 0.3843318429831252 0.7830778045090513
Ni 2.0674594858442625 0.1181135063192625 7.551952638143192 1.3407480233094329 -0.16936447877117286 -0.9445235426537797
Ni 4.969418698682973 7.716416571134233 7.595901546268237 1.0986143830953339 1.500135336263236 1.572916067670388
Ni 1.182766529596656 7.948998421692894 2.171002598775753 0.8621297136368958 0.19582370140396596 1.7284202435197007
Ni 8.518846329958013 1.357986021389587 6.3231004455654665 0.4912118300668314 -0.4160823959218447 -0.7931228474498793
Ni 5.597216293619272 4.421963832146325 10.369834462916792 1.8446924704515844 1.0694737569756356 1.3791803591437022
Ni 7.2449227803692695 2.618615450451769 9.728958101019263 -3.0183213593805953 1.8629976965186752 -0.9446973492274826
Ni 9.14309198946611 6.469249070571598 8.905093670446064 -0.32700498423719815 1.0154947316560188 -1.1021758751943471
Ni 8.508684624927191 7.139306306704885 1.2159915759813766 -0.22900224503846367 -1.2537768593345118 -0.12376930663987715
Ni 7.354231029439347 3.0508981115289924 4.033185388065734 0.25712728540945395 -0.663900745225547 -0.4821126959790406
Ni 1.1067868084946402 6.875363010528164 6.865939660578481 -1.0526224897462515 3.4538556933794644 -0.5224237368932616
Ni 1.7316291185733528 5.297865515142496 8.304100602394735 0.7205627166939654 -3.5369524620006443 -0.9403755819236773
Ni 0.0966648505720959 5.903559070970468 11.064894154758482 0.4946478523315739 -2.0263445083408587 1.2746480463565661
Ni 1.3476471857206131 7.299889214187366 4.449238221355658 -0.11938326175703956 -2.53460378080828 0.05370597416388815
Ni 1.713841473436832 4.233301057184178 13.535096504835325 0.029427818342813834 0.8656199861783413 -1.8871953768108016
Ni 1.0966810394548139 3.2961960773739296 1.807481119162596 -0.2097336266168388 -1.6275142146312422 0.7832606099438187
Ni 1.1066469685171518 4.895145025306315 5.959006554311124 0.6557567759621739 -1.1043322594157174 -2.040443923856718
P 6.777745383576115 9.057864184519529 0.9083277769761748 -1.3022760924864796 -1.3163402838890297 0.18649753890703363
P 6.155681227716838 3.109966518020081 12.674049556514484 -0.7879994101803848 2.9345442768629395 0.01680061649710655
P 0.33667033940235674 7.502974152161147 12.443605393078363 -0.8458348331316143 1.7354498966729726 -0.010752867641129869
P 6.003880270820627 6.289433504851883 6.354292218677507 0.5054102330544005 -1.0417716630746767 -0.19402367208074972
P 5.322029863252487 6.233833129802506 12.09333328519897 1.8484709636574101 -1.2675677424710168 0.0013398018573460796
P 3.452033748286972 0.5610370574168345 5.794888492197737 0.2427337356919433 0.1989445064211348 0.005488276808080871
P 8.677629963063477 6.571621256758253 4.85674962882059 0.7496928012907024 0.13300393786426773 -0.20853729231589246
P 2.385138624037182 5.062766544989044 11.562105449650074 -0.28261205994411975 -0.4038197765044077 -0.2562597952028361
Ni 9.00142476960522 0.0352406065935865 0.7987090831560727 1.2104005492314058 1.3690581831080357 -0.46451478039161936
Ni 7.4958329906440735 1.304697667301351 2.20848437407522 -0.3627330337664269 0.43054665097629075 3.052915809526013
Ni 0.05830208341445233 2.382640149772723 9.90201380222719 4.25623399798934 -0.46179918123266916 0.6794356076363525
Ni 4.8080433646613905 1.2265644105460143 3.6491419256229003 -1.8534648173275756 1.0799227202231014 -1.5701865845543668
Ni 0.7877819873151313 2.651971946415329 4.114302829940673 -1.0731923434778032 -0.32361087095398466 0.4639319113049558
Ni 1.6071156026177058 2.567629794659508 6.481623976312803 -5.921498434786163 -1.1741803905571069 1.4942179423375364
Ni 1.6222462881819477 6.760106901082248 0.27166153066756205 0.2015109815967304 -3.006907975337331 -0.2408601728183142
Ni 6.624918933511655 6.263013071771747 8.437709310486225 0.023363614426604926 -0.0735399781706798 1.6330184322789232
Ni 7.805065794196696 0.7922335599318444 11.203987386767068 0.5713921963721642 0.3297018143430709 0.22580764936056594
Ni 4.373793621234164 6.579713330122247 9.521750680509124 1.3443539954931363 -0.8790840821030473 1.8188397710545383
Ni 3.4114428641546803 7.471454221235267 5.992299656151555 -1.6986532966699133 -0.6333791795979221 0.12916039574846142
Ni 2.2049781197063285 2.5616912569488353 11.470481364133176 -1.5308759598802022 -0.327998458498719 -0.8197445638024656
Ni 2.7081689720353226 1.4542798298880804 9.42758896553407 0.6109396196474833 0.03386528528887717 0.6979053843057659
Ni 3.697555458095891 8.401660428822757 3.9992229188663915 1.3748141117552066 -0.473591545881907 -2.2428373080584016
Ni 8.914462948937786 8.216139392021516 10.450365509152796 0.009667347886434963 0.6936113849161023 -0.19440008158356198
Ni 6.617153153428467 4.099893718660271 5.938771709568557 -2.8524345547453778 0.9303629348826815 1.7405406809323183
Ni 4.61677956611796 4.647479102509241 7.88763850410403 1.139164022382922 1.2179629349596959 -1.5652372109688915
Ni 5.733504335679441 1.5957792417759815 11.333188338768124 -1.9049192764531255 0.09572294202562225 1.2187044411114107
Ni 8.679336010788836 3.229044920184013 7.8238910519661795 0.26662082672218596 0.857901020267529 0.44200271533203234
Ni 2.9545390443743376 2.6275745316761903 5.02809928230316 3.5812723669639417 -0.7981123302446707 -4.32921681810497
Ni 7.468349773735026 3.733037521717274 1.7178632711893973 3.007666707880227 -0.48755289315800554 -1.3660646476973506
Ni 2.0439104336352205 8.847749957010665 0.26368412608510866 0.1572792654718646 2.890190690448229 -1.6738971727711558
Ni 4.005268667226472 7.857701561723319 0.5485950284864357 1.2756649176568546 -2.2826996914709787 1.587084902971602
Ni 4.215560025373486 8.950616244451112 10.340320769534612 -1.581110173445406 -1.0763190620322431 -0.709520599947191
P 5.899802036908613 2.6940264889786656 7.707815480252182 0.34050636115774263 0.24536680243941614 0.5358834619425933
P 6.714565681746868 5.092310070899754 3.0033264157204806 -0.7728283588669014 0.3014086238253325 0.9862528040717659
P 1.7608649965335885 3.04591048566524 8.448078910950247 -1.1034621981059385 1.075195232840445 2.2459712257016933
P 6.497067903426618 8.57027015101307 9.573163314365983 -0.142068104949065 -0.002880921092220845 -0.5649199583842593
P 3.465141415510216 0.29313628987719315 12.230107038114282 -0.6707997863382253 0.6597826092921154 1.0728588713977847
P 0.27492539574214064 0.9974412687638987 2.73855247007748 1.5968982895175983 0.570923741376178 0.22135861245027683
P 2.9620251445025483 7.156357461293301 8.048154288397317 -0.7644910426457995 0.6862477454621794 0.21318096173549092
P 7.959411838683196 4.811977529361397 9.591789067100917 -0.5351306429369687 -0.634518692519004 0.17308049417017934
