# total energy = -340866.57446673163 ev
CRYSTAL
PRIMVEC
9.28299443087417 0.00000000000000 0.00000000000000

0.00000000000000 9.28299443087417 0.00000000000000

0.00000000000000 0.00000000000000 13.58660068903804

PRIMCOORD
 96 1
Ni 5.725862303680076 6.103587343297888 4.277972325877633 -0.353155674490637 -0.7634281485989239 -0.8043703953392404
Ni 8.471057238329827 8.17481832301197 6.278272874153629 0.9921964232497105 -1.474300891698635 -0.4831683909370647
Ni 5.974098855275552 8.378264426926052 2.847045163629225 -0.38239503097172856 -0.07366467667400217 0.20127932520189853
Ni 8.705220770508726 4.76489601279297 8.340800118376295 2.02777892679454 -1.1593430684339583 -0.3125124470479779
Ni 1.500048338089997 3.1321658366283254 5.117216281805668 -0.8250842308478242 -2.084204613882436 1.0259236402988268
Ni 9.031146701719868 8.525622679049254 10.767869621957221 0.1328553281015454 0.08269901896212853 -0.4066078807725062
Ni 1.8950861621483899 3.0755302881714988 1.919419675206885 -0.550189079931988 0.6782801538756705 0.9143058814198189
Ni 8.899123956243226 7.7450435341403585 0.0992444924687647 -0.12788821390425714 1.4080191377522655 0.8768245966449094
Ni 7.174557117091632 3.671535656655697 0.9682590112391276 1.1086206023784264 1.2315021070967112 1.1717640678061305
Ni 1.4639839050864283 2.8928873745691277 11.455039564638291 1.3325114943322536 -2.2931494260493928 0.4209762336790363
Ni 8.33950792556443 6.1909124710365155 1.854842525093803 -1.7505823814390369 0.9001090210941466 0.0033367776827168336
Ni 5.3252918149961666 4.152998158001922 10.25732628424799 -0.4577491795330117 -0.1366721307444743 -0.07511503596728354
Ni 4.930745989637694 0.32446293130345627 11.505241998018805 -0.25379025061642096 0.7774889975673643 -0.31108137102840616
Ni 7.777376203420006 6.461149719213319 12.11037533483567 -0.7149222305787364 -1.252263765124095 0.432790452705145
Ni 3.971719844567253 4.4662342359528635 2.1794809049902497 0.1499505930209353 -0.16320668669989313 0.8707012573559908
Ni 4.831306554287829 1.0534713294664009 8.854591575804431 -1.2146341276967791 0.4438006877727196 0.434617992832187
Ni 7.580669553395393 5.82972972732922 6.712187878500038 -0.9279468692420213 0.37605700456884267 -0.7008441552191156
Ni 3.1833522674086794 2.912149587820712 9.55415153102858 -0.844624614873597 -0.24077326953146277 0.6704686282510517
Ni 5.527818902470775 1.5463890458258562 4.69176551169675 -0.12385415304419958 -0.7099582017052418 1.2407603924701858
Ni 2.736719560819055 0.8093397179672382 13.234299949831179 0.16972340477248835 0.6311952845727259 -0.6282251462008083
Ni 8.337976231498642 2.5615680236475415 3.2999002613236867 -1.3911789262664749 0.9346057693194356 -0.15175807854331927
Ni 8.57266889435481 2.768365288517682 12.4263044094441 0.540489593256037 -0.653593706872584 0.9984565452268095
Ni 1.7451008226275002 0.7847342131746362 10.054451084485704 1.9778025948764133 -1.2269301714553127 -0.30167961809853205
Ni 4.878937598236686 6.678436767685528 9.50155779830657 -0.3959185193794601 -0.43856077953001893 -0.38189160897274876
P 6.022259029901681 1.5966657431610756 6.994232167175488 -2.3575162223612365 -0.9730285920720081 -1.6904460782687727
P 7.821442577543027 6.425428757000262 4.60689016616395 -1.5338957205431323 0.8974386733508352 1.0595600974063495
P 7.33079919479641 0.5546087835328182 10.11370258074701 -2.044725581951208 -0.8335580726467902 -0.0809036176246026
P 5.986278143847156 5.866425403947781 1.7498722817172903 0.007842893083186494 -1.4841672429697537 0.6389422755079963
P 2.7051945120468237 8.234610089543754 0.9073597834828058 1.1051956358572772 0.02527394407544034 0.7339586783848973
P 3.8282697330603948 2.842657092205599 11.851509754723054 0.8638397543494671 -0.45721798961988996 -0.5422245736692727
P 1.0486163234275678 7.260489795679543 12.138364491064515 0.39805536321680474 -0.18522124329777132 -1.035055941617398
P 1.1240035204473824 2.362317833174287 13.65616377092785 -0.06784652733032832 -1.1431546315995538 -0.7207763753666684
Ni 3.3119124559972044 7.986243576027545 11.36013672862146 -1.085144887853989 -0.3741926976665943 0.28481652379460626
Ni 3.7186839848989726 5.495421252230761 11.48767485953336 -0.9069553545920186 -1.0858732813795815 -0.6805118714196667
Ni 7.021898275201366 2.2138177727474955 8.672381249738217 1.149563620449691 1.0406933424088334 1.2203949414399562
Ni 3.1378748781462646 7.178112503923129 7.663549055145499 1.8339953957490542 -2.2417700431361522 -1.2980821090097903
Ni 2.4760437968105076 7.737069442003919 3.3626291672640503 -0.697523832596631 0.9219500282286379 -0.271741435778203
Ni 1.789000102852436 7.948471072065764 5.539624086370554 -0.8110064125985195 1.1764555597445288 0.02295275214143144
Ni 5.68692942542603 2.2837280031078233 13.621654239475916 -1.3306027073453148 -1.3762989238308492 -1.0749545775845486
Ni 6.457974935149685 2.2535582715089566 11.221553691046076 -0.31245074057210703 -0.5976434167592094 -0.24062877353379847
Ni 7.601844063480629 -0.014797092974951914 4.056415100009893 2.483392033821155 1.2443182850247732 -1.0673130018788908
Ni 6.290361189380718 7.263293259969652 0.18057373416440536 0.5094463507969872 -0.5356386929216388 0.2016408223063753
Ni 0.5537677442457851 1.0467875735429597 3.9186471093373942 0.5367501808182628 -0.8058374668030703 -0.5230693408970604
Ni 0.46793717859559353 5.755335810703583 6.080479185492024 1.7939838883531234 0.47391396221833215 0.5996627611820834
Ni 3.5049151912809093 1.8504720913594193 6.21588372580604 -0.05528488861523382 1.4541321300602439 0.7230176059923612
Ni 4.897596416856292 4.7058376028138955 13.587280239741318 1.4006053617866976 0.806612911516514 -0.595579078031013
Ni 1.6062365103236698 0.4802139386077478 1.881893170595064 1.5643434955100284 0.9277843755222279 -0.614801930816367
Ni 0.3078380167433299 0.5647021832766483 12.440679126176667 1.03838706287316 0.656822755332843 1.575061910368797
Ni 7.737301516862372 4.330321915848553 10.484045783267156 1.0143230799454208 -0.36309298820900693 -0.42932923362942194
Ni 6.249599561242065 1.654350269978109 2.3936061655908962 0.9512629182601425 0.4027658813185967 0.008897559599945966
Ni 1.618183724036821 7.521249106637133 9.201213014592962 -3.135859083288464 -0.5832413824012666 2.2271170691096676
Ni 8.7851287857712 1.412890304249455 1.2950473326242813 -1.2432037118043557 -0.5769475789727547 -0.695088483682261
Ni 4.588212781555667 4.205632735899021 5.797022025078313 -1.1557211554106548 0.5571521415133824 -2.07930511969829
Ni 2.7571421483629033 6.350932727436905 13.52419765171667 2.148579123503764 1.6576871386701968 -0.8848348685438954
Ni 4.236572956027952 7.079304312188255 2.19588024278796 -0.13723674499869268 -1.4245204778413982 -1.4546486646853465
Ni 0.33533703087112166 6.7733553847927315 3.7920335646615713 1.5597887862598103 2.2653858827828794 -0.15664368877039475
P 6.972716971198044 4.059035689311543 12.410190987872003 -2.085493765007505 1.3406071268561943 0.7490752223113616
P 9.2336552232058 4.353473703727807 1.6622528830581444 0.41405945195454497 -1.7128139044410113 1.2079929682311776
P 2.7589523322588354 6.206034468813302 5.788761088416827 1.3629011623677045 -2.9062659987435366 0.5970402359575718
P 6.608415141393142 5.079283182041838 8.583443665883058 -2.0593703284475757 -0.16862605794325153 0.5424395178935562
P 3.3601747435610534 8.623938872084208 9.194948850013605 2.7324920780507584 1.9737711051195168 1.4864701800713176
P 0.8108008612760572 0.5662375905401721 5.907086775747582 0.3594548772357874 0.5889340619106697 0.7751914597824391
P 9.01214441230975 3.6349235269861806 6.30412786998414 0.5823949752405712 0.18836724512592073 0.24714652004765825
P 0.027589059172871445 8.523329779447742 2.3368685041963504 -1.3232493523040372 -0.9189120127332625 0.7189650331895424
Ni 5.478340542648634 6.5703548646068795 6.837443321104195 -2.035455212392875 -0.9784284229313407 1.0302366658518838
Ni 3.0563609048632956 0.7478705143585561 4.106658378565496 0.14527709880466594 -0.7807668969876876 0.17177540220551063
Ni 8.990310809626509 4.626551548172073 4.126847962951458 -0.3547798403576212 -1.1231591623142334 -0.442173950802574
Ni 4.870072338643787 3.4139511297617413 7.9011519367266665 0.6208008287122793 0.27477559461883644 0.4063800810324163
Ni 5.959905156932577 8.47837223786826 8.26352011881094 1.0057908741046937 -0.12406704038595406 -0.9878972816537244
Ni 6.285348372438138 8.24319685930651 5.518728066115462 0.5986618307213948 -0.2877257270216012 -0.4149171719691499
Ni 2.2259877783247615 4.994631556672586 4.166589390012352 0.8744447835588229 1.0903760543459415 -1.502169078863813
Ni 4.347579002323105 8.969934637054351 6.312375810453554 -0.9167497149746212 0.20759575433822958 1.1445214300400932
Ni 8.103617756438643 1.0935645820127105 6.305799737264434 -1.5729430642535813 2.385018284436247 -0.43119174075945743
Ni 1.0691317409147973 2.174977724436831 7.606974774451304 -1.1119270410438398 -0.5168205317738712 -0.007173120709671518
Ni 6.882792605044744 3.534509377230813 6.115451010061997 -0.25824622950524556 -0.6969862149256061 -0.19659606079361627
Ni 8.920558390169928 0.2760873912086825 8.457509636392786 -0.05222707562551651 -1.634529469606811 -0.6279747207528991
Ni 6.666359592051643 7.826362564542227 10.417281559688012 0.3719272986711853 0.0028678084660982866 0.899946013153721
Ni 1.584532869561162 6.100143352398448 1.8917572803787426 0.5884517229576124 -0.5760872878549885 1.208891311675731
Ni 9.064862537155893 1.6539046862498794 10.285559583227927 -0.8986270372319815 2.7632288450129834 0.3926311068774399
Ni 1.2278802270908655 5.071420485837456 11.23977342403349 -0.21330206069438748 1.8880451264056064 -1.1362275654624172
Ni 4.023129067211722 1.5048754951458154 1.8540952440495848 -1.2133313497249556 0.6855162666127935 0.4227181560708075
Ni 0.7396634190642306 5.488570402409235 13.511289648089527 -2.9564696161811215 -0.8887321467157727 -1.0515161440559504
Ni 2.608391447088983 4.067492497153563 13.219952153782192 0.3384623341445203 -1.5095980243380323 0.6821949155490444
Ni 2.212546002523174 4.080284463351483 7.289672744980268 1.428509030175501 1.8074415565199258 0.391435543907442
Ni 2.1325915722890074 -0.04100484259031217 7.463595213701415 0.030074707898193363 1.5437060217653351 0.8486766734557835
Ni 8.75354803903294 6.426681961235906 10.100142910917327 0.6298110026306896 -0.5153871417614544 -1.4553621458126034
Ni 7.083416678680039 0.08682848754153873 12.509889418763903 0.6871597157534876 0.1824735053493051 -0.08729615141450772
Ni 4.774114026170715 9.019199488006716 0.45466992308756266 -1.2563315074355654 0.36773022987070214 -0.8395243175325542
P 0.812828267239501 3.5027336876114528 9.491395704404635 -0.04198868572695994 -0.10959430069107579 -0.1287708736195266
P 4.3801344634668675 7.895762230213959 4.469869456535669 -0.43051014131140053 0.4262269405550143 -0.9383480099706872
P 9.068455055964742 7.132960019462548 8.037343674960555 0.45651530712591054 -0.14854188559886675 0.2552028146932315
P 3.1332519469658844 2.854715701850808 3.7785695096735727 1.2836831599756409 0.3443933549169746 -0.6077113425181728
P 3.426473889123856 5.059120518339457 9.218616772378057 -0.13975616898643672 0.11181907625653646 -0.7491634111497936
P 5.252429592436319 6.830705723813593 11.903044297791089 0.5060434957630252 1.166702594122823 -0.41126517703885945
P 6.108897216059289 3.443099731983416 3.9171803962319727 0.6145288796606384 0.6265130486057081 -0.0003733241790187119
P 6.765845442373198 -0.041897866645638625 1.0688690321750287 1.6869154394076946 1.370242176113808 -0.028315559115241556
