# total energy = -340891.630297695 ev
CRYSTAL
PRIMVEC
9.05489350798309 0.00000000000000 0.00000000000000

0.00000000000000 9.05489350798309 0.00000000000000

0.00000000000000 0.00000000000000 13.25275193159586

PRIMCOORD
 96 1
Ni 6.331824475158717 2.0282871027270937 11.375592152271423 0.3657245122945831 -0.6228641389992112 -0.43568268665127546
Ni 4.568230021001118 0.28734255932249675 5.750037603493983 -0.22966738942628834 0.2544227419940973 1.0706544075472981
Ni 2.3742926954726316 1.3354790866026673 4.717197507906082 1.2347530099338413 0.7553227458829702 0.06742795173567098
Ni 3.5010836501793916 4.512795962621861 5.0548517723204895 0.7070022044007114 -0.471216360781511 -1.6688439266179647
Ni 5.24548172998808 4.504891040543277 3.0982549783823687 -0.11772284333548112 0.05992418715945808 -0.4119362349639551
Ni 7.195181411500934 6.2246417000794505 2.6853916735412597 -0.26583406915483243 0.568943991941988 -1.3872546515114044
Ni 5.210412127227076 4.268540208819107 11.517012385393455 0.45814255831668843 2.5919653494468844 0.6908291941852748
Ni 5.979516676494859 8.126142183168131 12.266084793636663 -0.7665672084485379 -0.3148644922199223 1.1111809069064347
Ni 2.03464363800678 6.471740690460299 0.3584950074339581 -0.4824659655534014 -0.8079822810602149 0.4516381815392674
Ni 2.704615212570852 1.501410011104446 0.4306507377519568 0.9657803951500271 -0.20981127393230964 -0.7523060705438334
Ni 0.23755332158904616 9.335957456933926 4.826745421183432 -0.025115821231021265 -0.37972442611810087 -0.949340761536765
Ni 8.533757271701397 2.698249622397605 1.3920160310176308 0.6344137915100235 -0.44777252793627403 -0.23974971336295484
Ni 6.783835706820616 0.6971018466509609 4.779419114498522 0.47022468629220304 0.15033214473007012 -0.5361094619104703
Ni 0.9193161785480009 7.511821984428775 2.752411468231569 0.08332533969221778 0.7056588029989395 -1.0460183541661727
Ni 7.642031353833174 4.121235200371906 3.6095196225274733 0.33249197549369836 -1.3593784939264266 0.5383216390704406
Ni 7.650896094629203 4.161964111608414 12.793650057169932 0.7982385714098899 -1.2221972847560179 -0.3660309877914083
Ni 8.03485074628808 9.079160675549454 6.881610447490205 -0.2318109181318524 0.18516107948379723 0.43001880349727883
Ni 7.040297457143339 0.8359731272356257 0.41872997037915505 -1.2953330855097434 -0.6594234261804837 -0.07532278110271545
Ni 1.7765338970559907 6.372707319585759 9.341970811747657 1.3827585634132638 -0.10300147796490648 1.0729185209911263
Ni 0.36552069934778786 5.0172803024686345 1.4024463629103239 -1.6080273095512243 -0.32197899177751643 -0.5473914625821927
Ni 6.364132335383674 2.253844501326783 7.174761721031959 -0.17348518580776573 -1.434111206853627 -0.7328975841102346
Ni 3.848302598662077 4.414677135996962 0.8830603847305316 -0.7065216652198671 0.04255201442959768 0.06810235209487625
Ni 6.0284945957652605 5.839473692683425 5.044990993232771 -0.26515709769246587 -0.17893181074463377 -0.6529429606624625
Ni 5.166541167924969 2.755884019912138 9.20104135385662 0.24545961926353857 0.4679680290475425 0.052261271297561605
P 0.39648028592154133 5.537438663069163 12.241566858342068 -0.12229169365308616 -0.10761840791162755 1.0633005382853882
P 3.976121476166421 6.010131271623945 12.612948790291766 1.6648774857710489 0.5751920297342288 0.5261788330603195
P 2.32117668984494 8.434968382952997 1.288342027193177 0.05703272454427597 0.7968311495394019 0.556515536370648
P 6.404118745348196 7.9050126275196755 5.962254427410536 -0.9631560701533024 -0.5163158242233108 0.1995641422830047
P 4.581178518793072 1.00755611629806 12.605513817188987 0.3420004292047658 -0.7141771248825959 -1.1398741610760692
P 3.778425985053333 6.25000445694327 8.303696874533918 0.9342740970116297 -0.44273085174730853 -0.9315093897822989
P 4.638034195461376 1.1738582914358322 3.756929667739979 -0.4501320293073861 -1.10094637366262 -0.5456917062822667
P 0.14000676423719 5.7340113473807115 3.6866772760484614 -0.36389877193975395 -1.5241826070204265 -1.3855692933891814
Ni 1.4650365036706865 1.1971746423549088 2.4098277197626605 -0.9160722292916224 -0.7023914451015775 0.33534847110588695
Ni 1.7453126240583299 6.63466539029989 4.754796142438619 0.9888293065496907 -0.2892529622994051 1.4259464116546474
Ni 6.0021267457161915 5.649846111733016 9.187033433518053 0.27309486448230386 -0.7664383961801574 0.08139572676967272
Ni 8.589915721565518 2.2586526498075714 10.089439598341249 0.11880964864175668 0.4482096154736926 1.6208182906683053
Ni 2.3973102349042015 5.252942962282185 6.854734617912374 -1.5009838003064602 -0.13861922716851613 1.6004435836666953
Ni 0.5795829105720337 0.12035221227410342 9.353527572399315 -0.4282539982873721 0.01514559739218682 -1.2646058316292155
Ni 1.5492651235733084 0.9588317340473603 11.405053153960862 0.6940590139764822 0.9567283122500877 -0.402530625379339
Ni 4.079193329569081 6.940512530103251 1.627437830662463 0.39583084476166025 -0.4026008164956421 -0.36740652798269624
Ni 5.531625421403125 7.84116657302243 8.229932089630164 -0.6704675998097872 0.44342222138737825 -1.0640870387424253
Ni 5.39223438992807 2.7636802832679925 5.004822579907676 -0.7575889162093274 0.8418151704492599 -0.061589233566706834
Ni 0.2504311912112252 7.1504683470976715 6.690506013400028 1.6605192088023533 0.5482784931728363 0.9430909239723113
Ni 4.917214673728162 4.601044955265482 7.125461447550792 0.6380274770032108 0.058984706064324224 -0.013893213042324461
Ni 8.566200955329766 7.124680010236494 9.472113174939706 -1.223013610009726 -0.1450107325171567 -0.7712818403153879
Ni 4.770317135491198 -0.030401805130407796 10.442757923126495 -1.2054007820239692 1.5465236937197882 -0.45351405840574155
Ni 8.11657116067436 7.276186489295908 4.687087270348333 -0.714955140699201 0.6064139638629878 -0.12267144559000807
Ni 7.1953806191592715 6.145891290781116 7.186463359980589 0.10336451773128004 -0.04551135416823775 -0.5177736397157598
Ni 2.2012355697384978 5.218108786753762 2.7717074464096476 1.5228852283652416 0.1804770437445666 0.180629767272347
Ni 2.51124796057983 4.944995087172716 11.61070970749261 -1.267835651420423 -0.2289351392459541 -0.6018402284493763
Ni 1.0279477365969962 3.2388992071262392 3.6918983276756223 -0.245832429221925 0.8088076051749876 -0.04419957733534968
Ni 3.5049229250491734 2.8010317192063194 2.7930833336386436 0.16878546633925123 -0.17512529251435002 0.23946277825015536
Ni 1.0598119070374743 3.1760854104949243 8.279551095364672 0.934062752331772 0.6486031956365281 -0.6301591299987276
Ni 3.477785409047436 2.545149482071489 7.204222722721398 -4.1651871212831496e-05 0.6858823917029606 -0.6613111301214998
Ni 4.0200105452556505 6.992279356590381 5.917314085178897 -0.07674280137869365 -0.01029135462367905 0.5626447891968375
Ni 1.0049120873783046 7.5875933337456045 11.738042337212741 -0.7434915575759969 -0.3427319080541517 -0.8535391437544074
P 9.44850978389475 5.48239396511302 8.02929919104595 -1.3036668021864193 -0.3660721254419889 -0.6492912228424883
P 8.50920040036449 1.7428496930097905 8.051576945673602 -0.4826078904479043 -0.6882346939852212 -1.0871344074801923
P 1.7613307307673964 3.164160115675342 10.494311054125589 0.3690129532378677 -1.5339839093815646 -0.6424042659146677
P 4.015519318049491 6.240705081256322 3.714627016002603 -0.055954660988748794 0.12975894856440875 0.6977776004786499
P 6.8483156038671185 3.936777963644717 10.252925701581608 1.0799134642517207 -0.08386270025292654 -0.037573073157767554
P 6.484200223999969 7.620969671410737 10.268775387270447 0.7574701312432762 0.21270402209907238 -1.346888846099848
P 2.016751168330626 8.532308488731667 5.841150658970887 0.8441898413290235 -1.1764226496240644 -1.6406525517854131
P 6.640134546010617 3.8454412522968617 1.5002111431969956 0.8312155405565427 1.759432889851131 1.2565567360724939
Ni 5.426715424607622 2.752588038656005 0.24153566377708888 -1.0764789846488751 -0.1257112608575964 -0.28285091542780316
Ni 1.5266097798841707 1.031560639127758 7.115428625485418 -1.5793289131752672 2.042996257964927 -0.17376954981740395
Ni 6.876485377734789 0.6703998710294985 9.210596077541986 -0.2275997082639822 -0.2356068948391749 -0.4219609661898088
Ni 2.8213056258889657 1.2221842583698566 9.23909001659913 0.471096290263879 0.7782623853982791 0.11054715152264831
Ni 6.2882613822376765 1.8957053512097648 2.475508295695326 0.5009408844291373 0.2092993672928976 0.9497115146126226
Ni 4.362720156745055 6.656786495268941 10.42453494983537 -1.4180212432702999 0.054141004818777726 1.1190189148936147
Ni 8.645802524622816 7.2658548557430285 0.6814269204078487 -0.8392695212092707 -0.8281425580581738 -1.1322508402028564
Ni 7.636064178976601 3.92636483604979 8.168466566650054 0.797637190380465 0.47455596667770533 -0.15446493595152105
Ni 3.2817016889881714 8.150671889824357 12.46035662949441 0.8685610710845364 0.8740118097864624 -0.14257281249962545
Ni 0.11218650926096813 4.6049838339644324 10.054465071962634 -0.23152012636431094 0.8267698460803632 1.1025669399851787
Ni 8.441850102059211 2.398161394898917 5.687074401118915 1.0561035063163167 0.03373441613796771 0.1665383221762874
Ni 3.819517092032273 2.6732490612762185 11.151329603450929 -1.895907816983135 -2.3454472070118446 0.9506173142563433
Ni 1.1344785593398847 3.0509105619103356 12.646106905022084 -1.3051431296216296 0.5167529117607293 -0.3503688557741192
Ni 2.48756941391832 8.139950895848362 7.870623952754445 1.3373539100262193 -1.058539626561635 0.4758057799244063
Ni 5.5472722774762 8.045100885798913 3.405029339286356 0.8785639479335191 -0.5480648345001335 0.67542777202854
Ni 3.1246988895373478 8.351192507728417 3.6362768329996564 -0.008195905547231045 0.0789763186949027 -0.3089820652972162
Ni 3.2569546648864875 4.289764879325636 9.318023334747393 0.5886800369183346 0.08455509833426084 -0.7558739904007498
Ni 7.483507332264134 5.976320299067893 11.310746437525063 -0.42024938281534074 0.2302960241492227 0.42802876965044345
Ni 0.3934704393019292 0.3388576597686371 0.0735166808201879 0.7096396420235586 -0.0007080818106181354 1.5633639052055786
Ni 4.594434882966093 0.2554331144142147 1.6143172898928544 -0.20113020121854394 0.8719896371501111 -1.106128689194508
Ni 5.95248781921585 5.620100786385766 0.36414978846268176 -0.07337465623740912 1.0870328489053214 -0.1048578144473549
Ni 8.126024469551842 9.000256333060586 11.252712719204498 -0.4939235725710397 -0.4940428717577233 0.09124279476708157
Ni 9.09473509247404 4.874249203782135 5.72589091883538 0.09600242093925403 -0.7984272903819281 0.4167089737622501
Ni 8.046558723662203 8.800206569621688 2.3388717628414684 -0.6802817576867316 0.773853457697306 1.1537614605811226
P 8.433266062963567 1.8217902550729015 3.386595386975266 -0.567660497243874 -1.4292021995877837 0.8056358923152255
P 1.8945463248339816 3.386829003229135 1.3939773209629016 0.10230779433199154 -0.1761514197860192 0.8775488764054434
P 4.710120203098957 0.9426687490413208 8.082283900717009 0.4329143798775189 -0.7025529103801061 0.10831543397865218
P 8.289972372363803 1.8413850447384867 12.31641823047312 0.7648509970883796 1.0235728806784632 0.19022281027742077
P 6.371774665548995 7.743065856184653 1.1064654351308176 0.6731315197951956 -0.31429627842127805 1.7069615594252927
P 1.8564071131558648 3.1759495870915124 5.727959056524668 -0.3234841155681332 0.4545532983035333 1.3043849112993664
P 7.011901310936649 3.9915510147940356 5.8876810405118025 -1.062242529334519 1.3097279207788348 0.49846311231260604
P 2.4277256223749504 8.324553010872524 10.21591020219439 0.7295548928902468 0.32106290772115026 0.43500108720321856
