# total energy = -340860.4108495062 ev
CRYSTAL
PRIMVEC
9.35561906817603 0.00000000000000 0.00000000000000
0.00000000000000 9.35561906817603 0.00000000000000
0.00000000000000 0.00000000000000 13.69289418674451
PRIMCOORD
 96 1
Ni 4.5262766103523955 8.304917627781451 1.918949754554231 1.3603976792195602 -0.5003251052220092 2.6652250773729844
Ni 6.768827875594819 9.024963499839213 1.0370591557423798 0.39338418299338057 0.8341018609654023 0.019781553502301416
Ni 4.569462148336631 8.647838492008951 13.492608444995076 1.2568279874560095 -1.3645474397218758 -3.7283582368425727
Ni 9.296323233208522 4.594872009940873 5.795216657786035 -1.8550442459995538 -0.5087374976554206 0.13478571235503883
Ni 0.48454529131838836 5.729091141652463 13.021737326622475 -0.5083137798544407 0.5269082550271764 -0.06284110369593694
Ni 3.45445010273458 1.9902302168380013 7.524560756890203 -1.8188631680933063 0.9591340934781029 0.5711191452164358
Ni 4.747349890804619 1.9855991853600559 12.778318149836771 1.1395707709030374 0.6460632028234937 2.1320165911593927
Ni 6.54301129623488 4.864379330719002 4.590132453280818 -1.741762983375194 2.752201383554228 1.589591728553856
Ni 4.724905760470092 1.5166955536941462 10.636914225444166 -0.5464080156230009 -0.016300279821920314 -2.095511040034191
Ni 7.190532408662274 2.4269411630178293 12.70743062355719 -0.1434583004283723 0.03463404513410165 -0.12937276886958365
Ni 4.5497685700314285 1.4223628458312698 2.1578903964540914 0.8641955950269891 0.8144642892401327 0.3911018147171071
Ni 6.48898259565885 8.058977111635532 8.817237881224534 1.0676870973888581 1.237739603365991 0.05427547351411298
Ni 0.20008862670468494 8.189843512268867 0.867929208358239 0.2540170219152464 -1.976215195784635 -0.627756434094506
Ni 2.4111301666587837 9.059205065918567 1.976226726098226 -1.5079507185425964 2.0839241065275402 1.7834971298891864
Ni 8.59096568321212 6.115057209576985 10.142696159489319 1.6129229470806288 -3.962042717848054 -1.5438140080981089
Ni 1.136174456113389 1.0877310601683357 10.668229353854226 0.8516522111443398 -0.18768487434691547 -0.23576064680821976
Ni 8.180066890259871 1.4267974093071205 10.414555482921095 -0.6899434491462116 -0.16672189894200318 0.348894842331754
Ni 6.285198499390957 1.0563616691672224 3.8348187037232346 -0.9121708373546871 1.459374609406106 -0.7459163649674058
Ni 0.18991345532001128 3.66644843261386 10.8440466978049 0.09010251051505126 -0.26705122939138526 0.5097528262938125
Ni 7.465578255975643 6.337243808707745 7.361121832633404 0.23769668748866807 1.3426136157632618 -1.400164674704853
Ni 5.406715217072575 6.119136259525236 3.0408765382680985 -0.5279004437371168 0.40068920129522606 -0.7674997475651363
Ni 1.191859101278503 7.687390630340508 11.642917403426871 -1.1087134192025487 0.8615195908567228 0.21853039897286236
Ni 1.201822835670446 0.46225365757596293 6.93868288346288 -0.2835697958716987 -1.216241838503531 -1.4545141959900112
Ni 5.7087052475303555 6.902884542357404 0.5553532948352168 1.4740751488410742 -2.0398065473830354 0.05129762183271166
P 6.446844887019121 1.957990753256183 1.0685950767643164 -0.9832937214434421 -0.9572376477863385 -0.18883467168064252
P 2.1368982582112346 6.948801921132669 2.1566853927079106 -1.3670655781580392 -1.6695592075174341 -0.24012792263798002
P 4.676537209478217 4.910801912928226 1.3291256809705496 2.9620288554364533 2.9482343727555227 0.46747797678500136
P 8.78400952869884 4.90528209763128 8.112999263278159 0.8857941471333713 -1.2186756447560043 0.4290093883961579
P 4.760176444655657 7.826854844970271 11.32405077158916 2.8124865535975303 0.208756350305234 -0.9486229095341341
P 6.913287990849273 4.213667952162358 11.310262460089774 0.07652348627903595 0.6931444725820126 -0.432802536890003
P 6.324220786854615 0.9126097742822225 9.397734402518294 0.8701438421906239 -0.3117989659207211 -0.17208959101181975
P 6.137622962960428 1.8479218939874396 5.745620649562026 0.4042450369672845 0.659220051920426 1.5082723635480735
Ni 3.786162935223536 3.382131166725452 3.663437794372238 1.7884642440864746 0.38791416101774484 0.12156612834097127
Ni 1.6814573624983826 3.163742948968522 4.878052568102875 0.698663602628029 0.14463997944129928 -0.6576974446283125
Ni 6.178160860725959 0.07358475127976614 11.976120586046001 0.8579660691775095 -0.0568252365191602 -0.9737083917478521
Ni 1.2839090380694222 6.018572709310215 4.538646609989041 -0.13933527939893423 0.7166813793616883 -1.9336449265225923
Ni 4.230751312725445 3.855787452918223 6.06656797109811 0.6610167388095326 0.31351363461898263 0.587605315796917
Ni 8.104716733646997 7.9735883756775365 10.838089975093776 -1.316142823166243 2.5720827515903446 -0.10297628115392587
Ni 2.4954991401297164 2.963373653689416 9.809630504471652 -0.2529219890788547 0.21567673157415115 -2.128350198051399
Ni 2.0274468698062176 0.3107328565509914 4.52233883025327 -1.5309032135737117 0.8953434813847031 -0.9549635070401813
Ni 2.6102551645912895 6.043084431476311 6.217286060000237 2.3665119981019433 0.20952999524646493 2.3483037026240328
Ni 9.25469072800275 8.701427478485053 2.982093312041378 0.4974395561440981 0.4805605210005723 1.4628160309874871
Ni 3.655464935734854 6.22231938310152 11.879941078963434 -0.06450357900002439 1.0205155819093779 0.03745403108140001
Ni 6.945845545482102 3.59186543677107 6.8858142796611235 0.47127061105821416 -0.16381141016342757 -0.776466984060753
Ni 3.1277986602043475 9.022512327622604 11.200294641507822 -0.6857648922884899 0.7192936201735547 -0.4609692291322061
Ni 0.5689881741805858 3.441960351172848 0.23051310017191437 1.7542343763693273 0.21003444568670926 -1.4546589490979915
Ni 1.070694477700985 7.861096411049625 9.114921520188783 -0.4688470892183861 0.6671426492016124 0.09843237053698532
Ni 3.9294816649420135 1.5652325058306733 5.4147863097110065 1.1145279690017966 -0.17153628961151104 -1.2759320552753122
Ni 5.014228282602339 4.022448452409375 10.066701400717191 -0.4580793091789208 -0.16233893938295915 0.8525999197695897
Ni 2.3656337907451497 2.240567873983181 2.5391421678902577 -2.7443991139009896 -1.056050027370562 -0.023133500693669838
Ni 7.487086824395434 3.4905066589285223 9.279441954019017 0.1683193253361101 0.24043388391417297 0.0734571886488864
Ni 6.149841401566887 6.244585756672247 10.197015819820832 -0.5335530140372037 -0.40592679554508154 1.2660345936559423
Ni 7.430475972934731 4.825843535451008 13.472288040207001 0.9633509597729278 0.36293460825427176 -0.9624001658238844
Ni 8.883936896811841 5.339148935590309 3.317829060763701 -2.2523856138684692 -0.1260208216782152 0.5715418345761512
Ni 7.02764172368751 8.375618041678084 3.727069102441123 -0.20929293953499442 -1.277427665984232 1.7810026456021069
Ni 3.564584451337355 8.513519867910237 6.21419122118629 -0.6877042754030479 0.6930128321001549 -0.9958131940666916
P 2.373913513690568 0.4550105372320733 8.651594773096617 0.36484108124836523 -0.2638833731863649 2.6559865894938515
P 0.32676370996000054 2.330784109421217 6.251778356672741 -0.830478148169886 1.1212035812497594 0.5833845928473501
P 0.10641268330595349 1.5417499017707883 3.1810508443911467 0.5738314019412764 0.6745119450824899 0.8889059532894756
P 1.850756646589091 5.93783371606846 10.87666319283836 -1.5639393180930743 -1.6262129793213156 0.3753823470993212
P 8.826259504768338 8.57325549616616 7.67077317961096 -0.7070065752760857 -1.9885976286093883 0.7192038886732259
P 3.8349244222196 3.9456668860669537 8.255363719843606 -0.06785372641917992 1.0091451352889071 -0.23647052839105082
P 7.762375917806636 7.221059793940125 12.96847204456887 -1.0376208741310968 -1.9419092234139137 0.8589271475391981
P 4.066578907927493 0.04376090856179753 3.8476349663932092 1.3623098086406085 0.6452941858679532 -0.24089822514510123
Ni 1.4863552807992428 0.2662824388580331 12.930090617016807 1.2682439426024352 1.0174251159095125 0.5369998349352235
Ni 6.223722725973625 8.943335722778459 6.234278671057596 0.36471304031093316 0.5479373077833337 -0.23013815841511975
Ni 7.682226328571163 7.071865735397102 2.1309153397664953 0.23406706115588077 -1.6446470176567871 -1.8473612755329991
Ni 8.579402137945978 0.8410158987570153 5.0407785941806456 -0.3361169738407953 0.0021463569190414648 0.3280298259572867
Ni 3.2739989206202127 7.414805310862896 3.8716929410306573 0.07059375105816229 -0.7661445190888224 1.096629491454821
Ni 3.5350113392125357 3.465508444566765 0.8412039467018775 -1.604264242964366 -2.935193223300848 -0.12715056440728423
Ni 2.2232038448456724 5.4182600511004235 8.93138204819387 0.34490191912227697 0.8996634489162959 0.7524811626691169
Ni 0.6679182332924771 1.1924391496656392 1.2114160875441535 -0.3067770872260975 -0.17412796159808722 -1.0593325547765755
Ni 3.449688092588571 7.373228939372008 9.200064203363203 1.243256419419162 0.7413048343373233 0.4366630482866738
Ni 8.565808423324858 9.051645725647496 12.759983942993681 -0.003023617317672212 3.2469603075423694 -0.3775600714769304
Ni 0.45963408421470087 2.1236413458794194 8.490676252638117 0.6744083296250901 1.2271227470820931 0.6529324191395013
Ni 5.37347470224199 5.068518940514496 12.847289645314973 -2.021570483990983 -1.74449015249837 -0.885293810458185
Ni 7.943229391544339 1.0561277786885384 7.75041101647907 -1.9170476842855437 0.8816896380466944 -0.5464478677220008
Ni 2.437325900271404 7.691628725814264 0.22196861320462632 0.43176663942632093 -1.9108685520580253 -1.9706508143229804
Ni 1.6053868232111619 4.203582594721499 7.338500881096991 -0.6378004485940693 -2.624421927313693 -1.33859909528723
Ni 5.1943613736656955 6.4460122369150055 5.581360301944088 0.25629990441215217 1.1338007011884796 0.5135791420184381
Ni 7.8461274204138425 3.4287034388410325 4.2104421346803464 3.130349466324144 -5.148778833582984 -0.25667502836338374
Ni 6.1366312673308085 3.5787956368222016 2.57164920217969 -0.9722660028743708 -0.024385885043532198 -0.8175706960795983
Ni 4.587630760720812 0.19203530974263358 8.182435733027983 0.4643150056759874 -0.2717308942552417 1.4752977083942658
Ni 8.323638221695328 2.728547613090567 1.5599493876981567 -1.2215069435572123 0.7513678750002801 1.6524238333887284
Ni 2.620677324321454 4.474090966748396 12.783604074655035 -1.1766972434416896 -0.2895470965010562 -0.39879352693440995
Ni 1.4788146517664673 4.709712234974772 2.587053229105826 2.089699832669053 -0.760867072739967 -1.7444112196313184
Ni 5.567790911932751 5.448750013901685 7.870566168750588 -2.4137372496374945 -1.170645637930971 0.8294234816531264
Ni 0.334770248826315 6.710860459357747 6.924920767697106 0.8754598550868986 0.29572468606667773 -0.06355638459540668
P 1.5280719865773416 7.911691599398573 5.5627791067555075 0.16407006314145292 -0.004413555686663366 0.15988430719487948
P 8.075218466475357 6.648683014504363 4.786954097779242 -0.923843645706925 0.08663794900521853 0.9148566117169663
P 3.806894987254096 5.271535876012306 4.483177144064317 -0.45701332980825166 0.7935463081405429 -0.543466930716806
P 9.223377470716521 1.8129599452337384 12.473638378874126 1.285788893464734 0.4134686124480815 -0.21622900453319532
P 3.5817707237110636 0.8482206610624009 0.40416461828997663 -3.831434791019788 1.67656469230099 0.542527192511356
P 3.168851117022983 2.7669056515947617 11.677642655016143 -0.19858892285392896 0.3543530372328478 0.9004499493733331
P 8.751835554451054 4.98724667698134 1.2763815069034528 1.8957046998333928 0.3394907754090347 1.0181231704178013
P 4.899593881189682 7.505713862117837 7.4648999735874595 0.5167400562449229 -1.0976445629828968 0.40777181917362026
