# total energy = -340888.67931957915 ev
CRYSTAL
PRIMVEC
9.12396931133862 0.00000000000000 0.00000000000000
0.00000000000000 9.12396931133862 0.00000000000000
0.00000000000000 0.00000000000000 13.35385135210041
PRIMCOORD
 96 1
Ni 6.829263558215967 2.0945439844673372 11.247882307377795 0.4038210620559884 0.2659263717583227 -0.025792792693387835
Ni 4.8446451544114595 0.5286792700802622 6.232963815362926 0.048134136503065486 -0.16470795383576795 -1.9941172728760368
Ni 3.0545771454005703 1.6539383888673451 4.991375914343528 0.20596798892681947 -0.07542511100853462 -1.181298746769443
Ni 3.7730349743940845 4.674017806803925 4.716059231984717 -0.46169222334115967 0.2348921281603374 0.1772780771912947
Ni 4.155146803590574 2.8722984891520635 2.6350223714892635 -2.2442542430105865 -0.4525336967703432 -0.14444740381451895
Ni 5.3711802917347695 4.79730087834411 2.8445570608647683 0.8131833656451801 0.10960047133866285 -1.5452785084587772
Ni 5.408369590106424 3.254200467057447 0.09083002556910151 0.8360024204222247 -0.4094178394174756 -0.11785654069986799
Ni 5.900927066208919 7.941201682002409 12.140880754359511 -0.3306469518651596 -0.043606423836041026 0.5146371509693073
Ni 2.492704875448846 6.661565004714738 0.4058916300664705 -1.35938157925022 1.636105298734363 -0.8148198728073387
Ni 0.8030853803150563 0.21882106520540412 0.18332700030711893 0.023303450612630835 0.0532100083640761 0.36806473039198545
Ni 8.199866208213498 8.91538611913153 7.115132110929738 -0.686083194859857 0.48866438105462934 -1.600959089850533
Ni 8.840952778573149 2.511272152727138 1.3733635630709526 0.2042664328546805 -0.23250768708856084 -0.1784607846454862
Ni 7.050382951257441 0.7897315390253719 4.830114321097746 0.29401181714062913 1.114047172710636 -0.038412538339927395
Ni 1.2308690620284717 7.73350364762254 2.3386466558695074 -0.39563878335551217 0.9439044210125421 -0.49651190212350615
Ni 8.258013263788218 4.120220249575192 3.2811079645618255 0.13200120763136622 -0.6999129016540978 1.1967245944062097
Ni 7.7396988226947565 4.258667357890081 12.596821004957844 0.9299713558712178 -0.7060352125017517 0.09400287401072198
Ni 8.444151358999239 7.30825369215 8.893250457507516 0.48316350584105827 0.3140813341969946 2.4911459667349614
Ni 7.256438671185175 0.763685344211446 0.0670839833850809 -1.598969313114014 -0.88359199727573 1.0139438422291314
Ni 2.0306488283101496 6.8448016777269896 9.172146472975061 -0.5220139030493526 -0.2881360750861425 -0.3972431517281546
Ni 0.7019096860944289 4.869553590268824 1.369557955526591 -0.613162338330415 0.870709741996423 0.36080342084388184
Ni 6.545909571407797 2.402742539348622 6.822188832514941 0.6697284076509176 -0.5430262436349617 0.4777562187825578
Ni 3.2759428856098642 4.481940007657686 0.39440181567995813 0.7544457425946556 -1.0365101575654214 0.3965713224721105
Ni 6.1547741366937485 5.9148502431753425 4.783162375705073 1.0363805739660925 0.5010851233164854 0.08932115226433648
Ni 5.464044050033763 3.2133889529219193 9.139375912876567 0.4726656916335279 0.5815619378163146 -0.09852030226510129
P 0.5723830824453812 5.8689475542382 12.68968385085992 0.05575642893501365 -1.1231838449045817 0.11893537558634357
P 4.256851688023555 6.131033568891236 12.635280359839149 0.7484825830326851 1.367311118509942 -0.47179794431659394
P 2.745502689478147 8.961681138743348 1.1241049366859999 0.2771993735689807 -0.1462201794442256 0.22888808805810257
P 6.603965387290731 7.97242390453131 5.7955315362432245 0.012457509037062416 -0.08745813091366873 -0.11225899200743247
P 5.283033625501071 1.1420016022296702 12.398436718315411 -1.4478717509728292 -0.17478847800022157 0.41577103532901294
P 4.2546893073282455 6.44935972956068 8.320811718850146 -0.6391631332695509 0.24149163575472601 -0.8259926015947066
P 5.044268476068336 1.293286135178739 3.985790424889607 -0.26342725948555273 -0.624521472096976 -0.5588120457143086
P 0.36090407523793355 6.080112696905906 3.2971989966050663 0.756650206445142 -1.159606092287358 1.632278211678789
Ni 0.4195894449941851 0.25037083822781436 4.9897062279838575 0.11159590450213686 0.17635710803892207 -0.6266475173010433
Ni 2.0329389445739587 6.976314569466202 4.6975111150417 0.42766675832533446 0.24250619306216942 -0.31599860582436545
Ni 6.190987170363302 5.7552993941505335 8.92519347360152 -0.018682664011167822 0.43749505726966587 1.4995619802582691
Ni 8.999673346402712 2.3845675927450065 9.90021184151356 -0.4438485102915195 1.4844395227945335 0.5797655080375241
Ni 2.703158348520628 5.769706141483419 6.782274204549663 -0.5498489229837498 -0.17561714454910402 0.03321402485812344
Ni 0.32757421582879365 0.3692351714948417 9.004301935966977 2.8476690150359345 -0.956080908474076 0.10272174194095857
Ni 1.5495601814650568 1.4001278142592282 11.466124000540361 0.19198144483974033 0.3962123964707951 -0.7564679152310069
Ni 4.6576129102209425 6.946050363701045 1.4752938095426436 -0.6627013256008071 2.0312913108231725 0.9218962921725672
Ni 6.016664615238466 8.153552940663323 7.938477264805702 -0.9771022479207495 -0.7031733175729245 0.025698433207368643
Ni 5.687407939493153 3.21906406175096 4.683409108279378 0.1940244434116981 0.16184503046567608 0.1277977110729799
Ni 1.0038647088668515 7.680265287465866 7.071598916788257 0.31191286579076605 -0.551213150321128 -0.3834265575600364
Ni 5.225497875861312 4.86056648062798 6.71782887305101 -0.27261278263956273 0.24551335531960944 1.2243966064001817
Ni 1.0944292269328582 7.584737330166743 11.502432835886289 0.07487978002802588 0.6304270389481336 -0.21480204227868166
Ni 5.044277600037515 0.342483693863416 10.191698934447464 -0.7153107242664068 0.29321708915347566 0.36439730884272725
Ni 8.11721217142527 7.62388828191178 4.284369579065976 1.2064950435294124 -0.762954294286299 0.6969697598653739
Ni 7.6943983157233955 6.463547501633281 7.0005295836659975 -0.7019170765683201 -1.8236587897097365 -2.2248257019723297
Ni 2.624427618479164 5.746750235030258 2.5837027820508327 -0.15542164343783557 -0.9939694559897333 0.40608131884507487
Ni 2.525916123258665 5.472127886725933 11.441179068806283 -1.741921106219613 -1.4642381081459943 0.0511235581486926
Ni 1.7795207006405178 3.4559952933788116 3.7637695836932954 -0.7788460258158909 0.22914339860201827 -0.3996890421654859
Ni 1.5301717469606981 0.9642484346937102 2.8211075476790497 -0.6925603179437686 1.5493171973045254 -0.8335884116640934
Ni 1.0587271355373027 3.44218160404253 7.897921221807173 0.27696668873288427 1.6326973014940784 0.8405625289890815
Ni 3.8957158639684875 2.901650297999368 7.0369451694513145 0.41687609546773363 0.23178932086529758 -1.074839135052607
Ni 4.513171354155766 7.310324833153524 6.00662916153901 -1.0103895492189696 -0.4372009230680148 -0.2899556447933845
Ni 8.39020132924664 7.491453869285537 13.474569649854578 -0.42119863410248753 0.20132020574216294 1.0256179361329498
P 0.4454613719968013 5.621998204452331 8.076168908472608 0.98093422007233 0.6089758110528931 -1.0947764974064822
P 8.583939690783371 1.8802584443405763 7.506039446414322 -0.1035547793652152 0.36114949132939095 1.1262082335532024
P 1.9491626595767721 3.465475097355296 10.43560726530613 0.46386300574023337 -0.7549589347856482 -0.16747523216825996
P 4.286285612593466 6.534340378489431 3.5918256473333003 0.137691316037608 1.032580997714344 1.4147932232513054
P 7.11914118298678 4.121625340828685 10.470875055768788 -0.07865595924100648 0.9782553876885862 -0.8300338615436157
P 6.652194688368397 7.929304026193616 10.019567956719309 -0.15831824825934024 -0.9016678809408342 1.0475697578136924
P 2.352989535418143 8.79182020454681 5.831934348471691 1.79156602294025 0.449897801809393 0.14606411348233556
P 7.096203524471976 4.048606215492976 1.4160427536973237 -0.3115210296689861 0.716035004026941 -0.3190577043656634
Ni 3.380905027039578 1.9996638289798898 0.03614551629763162 -1.1040648646869438 -0.428969536297158 0.06874512788519772
Ni 1.4651269706870167 1.5456003788415782 6.735375178178225 0.6868568398010879 -1.664535786160914 0.5304957152681186
Ni 7.1531188442075955 0.8049950270641208 9.000802893787013 -0.9232558915242551 1.7813008935688162 0.20183185527125883
Ni 2.9884922366405373 1.9905672317089038 8.979596964622292 -0.9042574960448815 -1.097571800763432 0.8951339364770583
Ni 6.418675821213312 2.2334107953644375 2.4369309642574613 1.843794127007031 -0.05986865133117431 0.19619908246551374
Ni 3.8890736144065237 7.080327818101349 10.564071838942798 1.7708313614960598 1.0800217076948109 -0.28452496069611644
Ni 7.991739347282239 6.456759268564461 11.436545004860513 -1.3371258531758132 -0.3138041692762079 -1.1993036679872957
Ni 7.864186258166506 4.176515139406671 8.276502987328492 -0.15276055166590466 -0.5695893388354707 -0.2447952462066623
Ni 3.223644294278578 8.802933199006247 12.28097565150804 0.5756972515054215 0.13826441493225866 0.3593970274146585
Ni 0.3293707253600446 4.960291463749222 10.150743261598915 -0.20570522218373605 -0.23904857353087217 0.43736367389812414
Ni 8.993925245820243 3.0046781579632356 5.525636316370291 -0.6233783596314683 -0.8952303528456067 0.04193752077405036
Ni 4.061772103017582 2.687684096793855 11.020265735884294 -0.9015776352198731 -1.9399400155026851 0.9892463394824511
Ni 1.2213345142369167 3.5527549865170345 12.841784066653547 -0.24647366235034973 -0.5067204672253919 -1.5346547101963441
Ni 3.65190515958003 8.67991472257224 8.178432179819316 -1.3202609590996746 -0.37690418306048634 0.19340377910856368
Ni 5.93974043109435 8.190404652175372 3.5096059114779696 -1.4051667559051348 -0.29009988368073264 -0.09922247053844847
Ni 3.4761683892325235 8.983606036679337 3.2465746536180387 0.516494258782704 -1.3752080047595154 0.942486714729409
Ni 3.216673581826187 4.518171289265596 8.693530421777348 0.36605284216827927 -0.3013829127937197 1.8453321609181124
Ni 4.837510210513855 4.692092389746577 11.140063451198285 1.8416284868142798 1.295246182222892 -0.1838945540665478
Ni 8.159811983519788 0.07756742397120235 2.4315897927003545 0.8710293301193709 0.6000425131190054 0.19623276391692657
Ni 4.885547908238773 0.6942647123197457 1.4819305847231001 0.3577939445935967 -0.9675480285734112 -0.9806426569738403
Ni 6.09008519521803 5.728931123224605 0.3643127901230292 1.5408852644870883 -0.3771247837117247 -1.2071637874616628
Ni 8.217849551464365 8.981033077370993 11.057403027631631 0.5971824179623909 0.565255230236491 0.9625325776366908
Ni 0.48606668442889434 5.271281953199135 5.682210926649066 -0.19321737412937048 0.4162379476631025 -0.1488645590456081
Ni 7.5830767677762525 6.215886482251488 2.387321206643085 -1.1293511500575584 0.4983582113036256 -1.1714370234840148
P 8.8012543886774 1.923086355664557 3.5875392066132306 -0.5282516564289482 -0.45818343885695284 0.1397494841182174
P 2.0268441331627063 3.07093642213766 1.6054134711882952 0.4680636740851423 -0.5402491951104567 -0.14128391848487282
P 5.0522701970379 1.3893341587210368 8.076329490330151 -0.027963575092461515 -0.8314916770360647 2.4100294617686044
P 8.733928620109088 1.8542277602742536 12.511717182445183 1.3900538115230965 0.9225035867392628 -1.2209351302141425
P 6.634457692285349 8.120624535898038 1.4305042448452803 -0.45040405202185013 -0.7425680173204631 -1.3765475495065453
P 2.1953182240441094 3.614962208376195 5.959957322000118 -0.6382388216830686 0.3476846240737367 -0.4710957760432467
P 7.178474354554707 4.2853823396447925 5.987639444487753 0.8418005151612405 1.4500258212013544 -0.630161958212205
P 2.4039012834342945 8.865441511848301 10.15258539097606 0.18828934070013376 0.44396215305124825 -0.5919872469146966
