# total energy = -340897.9470175948 ev
CRYSTAL
PRIMVEC
9.04152113543225 0.00000000000000 0.00000000000000

0.00000000000000 9.04152113543225 0.00000000000000

0.00000000000000 0.00000000000000 13.23318011267445

PRIMCOORD
 96 1
Ni 6.394082456254515 2.0266841133679843 11.472624474385826 0.1738489969050877 -0.24432910520352114 0.20228154121416775
Ni 4.518753408657589 0.31222181190001136 6.0723227435849765 -0.6433393761344275 -1.011629849383974 -1.1140127199282748
Ni 2.703532394348954 1.619652909611622 4.858707374544039 -0.032644011287266364 -0.5715577754157511 0.26258496608991555
Ni 3.435298875419136 4.067002840785118 4.78674590689339 0.028555957260821788 0.8434064261957798 0.09794411804665712
Ni 5.046353298319392 4.497080882214744 2.5685470028060022 -0.20509818472735644 -0.1267479296522269 0.18418483161345697
Ni 7.245956505646247 6.092475390305234 2.5981625056693893 0.4748117914422532 -1.3116863300567863 -0.03744914598539357
Ni 5.16363087048883 4.755957718723522 11.35099883464594 -0.5585667624727219 -0.701294612492973 0.2519298003689145
Ni 5.592759552186917 7.884739982153133 12.393058571132922 0.28361247618417607 0.6315344130796995 -0.024288954454351717
Ni 1.9697767786031672 6.546368798714607 0.28086762449972 -0.03891056102226847 0.45503615147722276 0.7689809600963531
Ni 2.731371238286176 1.6320578767703968 0.3878116420293889 -0.006877958066755896 -0.13470909348083254 0.6431974512399246
Ni 0.5525056641046314 0.08984107592796428 4.876030025112185 -0.03633174455149872 1.1037239364077571 -0.36059824681161123
Ni 8.572772624923756 2.339339918288128 1.4274500591248833 0.24886890205540366 0.4063168318946486 -0.49113906784736705
Ni 6.885009935715158 0.5225646664761452 4.898949377335785 -0.4766516728644694 0.35558999496374244 -1.1724441245922903
Ni 0.7847470831549291 7.387139860007959 2.416577113589757 -0.10150226771156068 -0.048198414082097636 -0.081800161296943
Ni 7.685365397008711 3.6962281372522887 3.7004071283753106 0.07836259637030375 0.10210621984414672 0.05449144617966099
Ni 7.65095336712074 3.9120130834704536 12.510912992358286 0.19674775588013213 -0.11016534270319739 0.28853125364203214
Ni 7.847742077186875 8.894126373289046 6.966025582748312 0.12801831172421824 -0.47451122948269897 0.3766311319047578
Ni 6.838907218847378 0.6882975593433288 0.548938783970421 -0.7183335702531306 -0.5795670188734728 -1.3337479378425157
Ni 1.9006272240621245 6.354462510124959 9.36137682104511 0.7234423522346057 0.10677765717788706 -1.1779971932000357
Ni 0.16193183733252703 4.792937540647275 1.3652407762974523 -0.6269524501359719 0.2586959154481545 -0.13402955091530466
Ni 6.061191726770714 1.9371911360082512 6.814254606999626 1.2411576279086045 0.6434710166162854 0.7382081976898706
Ni 3.5522057452172113 4.543852671655227 0.34424688017725674 -0.47179383055153584 -0.4059545634592234 0.8087685244069361
Ni 5.976951873258829 5.470925053306091 4.803472721210981 -0.1296656175196541 0.3562839357069735 -0.36051391462792104
Ni 5.3777973844027525 2.7484054643263596 9.370653421850433 -0.07503121800422562 -0.09939936243594494 -0.5827186771285772
P 0.17458725463000316 5.72208043066502 12.482951183732027 0.1137602591433073 -1.1654144714390187 0.11592769910827132
P 4.032455188078354 6.387925180281391 12.454195529539776 0.21113410650879122 -0.3228094580986118 1.0378520163052964
P 2.44992676473053 8.479825786445472 1.4217864502121598 -0.39806950428419186 0.2405696381610889 -0.27033375679739896
P 6.448675161578628 7.536198379380819 5.6558476708801155 -0.5619809303605935 0.18595657880189911 1.2558795074998113
P 4.763860008298427 1.0497477420081958 12.762065657260838 0.34728764574563414 -0.13224366265947546 -0.5608920681717889
P 3.914571833984982 6.088054086412639 8.016872773740841 -0.5643702565283764 0.413965606689158 1.4836746196040513
P 4.6681826304018115 0.9252731189215672 3.861613835703367 0.5876138004373493 -0.12131750266527494 -0.024924274045505464
P 0.14594190699703619 5.527588266997085 3.535839687597606 0.48870191916078415 -0.22847439755945168 0.19983822187999775
Ni 1.39030568151433 1.1188611304642275 2.525327627065725 0.19893087957437997 -0.52799917409851 0.2119792281179059
Ni 1.7755287360090561 6.588285291242363 4.616937096245467 0.2251365914354703 -0.36270809406576243 0.9083231814738228
Ni 5.85543382762185 5.6544588932156925 9.02606115556132 0.7125053936071277 0.20401266497266157 0.6328875846734843
Ni 8.749344493468739 2.4057498918895868 10.187695914768064 -0.2889104913583218 -0.284993929912735 0.17943369008171678
Ni 2.080888033278229 5.3844790686085355 6.8641167884043 0.32988461977783834 -0.3496299207255656 0.2317427838980783
Ni 0.6281732513167826 9.181845662594101 9.30438178352414 0.00645809692051791 -0.029875190292877583 0.23493095181807283
Ni 1.4868420039299568 1.120949721873613 11.577312632362933 -0.6414156767491535 0.342164722696772 -0.9585280844629879
Ni 4.207146420202765 6.755716181800812 1.6289783346317097 -0.46520357892852787 0.24043234125227625 -0.07813351107863319
Ni 5.593835493215994 7.972279990922272 7.909709951396857 -0.013777256289750467 -0.28607533590237183 -0.04839201815014246
Ni 5.475644727400028 2.799291145936844 4.557692528236814 -0.3230768528273855 0.6149060604943991 0.43789846335567173
Ni 0.7746585537411091 7.468920419739097 7.109830074121198 -0.22614420676437827 -0.21394226538154767 -0.231900135411549
Ni 5.068559274516148 4.536076963377861 6.953255338130926 -0.7014640481913016 -0.2423059041259053 0.19489553316274177
Ni 8.338588182956242 7.261254759605902 9.286172159721097 -0.2890516449218764 -0.5802385910192007 -0.5497702472270145
Ni 4.541818329373358 0.5070647865925535 10.475081571938892 0.5188203358127194 -0.7578750799911786 -0.05008586091279761
Ni 8.359962339197747 7.296290654460313 4.649702665113313 -0.9839894619588861 -1.1409206000627123 0.048734746201541876
Ni 7.221643854997597 6.044284082028069 7.0216309384527325 0.5874127401701367 0.23024845874073893 0.1905583392399686
Ni 2.31558784195715 5.264832617870876 2.5692088421617036 -0.0725004811625719 -0.45337727571756115 -0.2106566526517404
Ni 2.5162915307257254 5.260167192904457 11.523519197517565 -1.126529621448363 -0.6811736733733817 -1.1725418265124192
Ni 1.1133367609787963 3.224821302176336 3.8163167183792077 -0.4469063232812368 0.5685652684463305 -0.31520542049910877
Ni 3.553914592733982 2.438878025759668 2.6270248498124227 0.48039597039825 0.76835489647658 0.08711180331784353
Ni 1.3670508888522535 3.4298468381037273 8.188374157167281 -1.0453519242267673 -0.14253141773872874 0.5426225804386398
Ni 3.520451922577549 2.758170307279331 7.139141781870492 0.2277102656999175 -0.42547540710097054 -0.14900931215358854
Ni 3.941126781904313 6.802768258400131 6.018106165544978 0.6274407026263001 0.6001651547397986 -1.1364399385835395
Ni 0.9619636121652324 7.355367954325791 11.297854581026519 -1.0703451038369955 0.5662466476154828 0.7139606379964155
P 0.22015833004812074 5.490599403552079 8.23585480187398 0.07634916548470076 1.038256707942883 -1.2381473803273708
P 8.57699501534879 1.5889750280010366 8.035769553159092 -0.22731431581307945 0.770912372791111 0.6145610184501544
P 1.933592610549656 3.333617927410694 10.451949743965853 -0.25269624622129383 -0.43268272348268705 -0.10521056980108331
P 3.938441450092246 6.047032704488906 3.836153816007744 0.21285803117843344 0.03970194657531227 -0.07882590915996747
P 6.899621034059604 4.080818285259323 10.285701484387262 0.886215550941506 -0.5100649582175926 0.277599951441509
P 6.344553002831943 7.675049021259323 10.078482475403954 -0.3800242167467068 0.8686045227279622 0.19662485714902267
P 2.3727483393170443 8.458731917362803 5.738449200741001 0.2642762377494094 0.17868729883399548 1.1024065031479142
P 6.910769229764247 3.895747386736754 1.597284186032315 0.19088641200334866 0.5172681608342511 -0.6345634297140104
Ni 5.259561410980522 2.9749950284415627 0.469735961948444 0.277008083493781 -0.35692516883539815 -0.16390319854628546
Ni 1.4062820495679418 0.9922798329257079 7.129825398371657 0.33612802958438887 0.8034987913675646 -0.7544593694414103
Ni 6.973327515312034 0.693608548927195 9.273297033457181 -0.42864506307820377 -0.3778233524406461 0.015381624662392865
Ni 2.768269686518654 1.6537394447344949 9.262617188553431 -0.05083996547000277 -0.3127993821607774 0.14921165797238176
Ni 6.3138208720938405 1.8079335481789172 2.5215166258576907 0.18432675650796 0.5391459347439489 0.7442405199268796
Ni 4.143204781903306 6.941492318981095 10.313662388861395 0.2635360171492751 0.6545802391555694 -0.516816160898497
Ni 8.06205325544084 7.272312540098017 0.2789580552111389 -0.4493771534192325 -0.5810284339103476 0.4911123283744897
Ni 7.790653911997002 3.894273618772555 8.175114766250122 -0.41425691267733167 -1.0689957888979527 0.054103980933255205
Ni 3.070374036136837 8.55375830572922 12.402136258470684 0.8753544398572859 -0.7097836238005905 0.5370013775971203
Ni 0.1230822288137048 4.781698929730105 10.391341714552285 0.18619209185147287 0.2534727193760022 -0.018926147480541597
Ni 8.419609254902149 2.260687724910443 5.922774173760218 0.8343965093876855 0.3898118922610899 -0.3929116142323362
Ni 3.7177921654401005 2.691760333677872 11.62462148816583 0.12778357000559282 0.4667051031747188 -0.4563258168229238
Ni 1.0689609746702924 3.384331820117376 12.517344226425367 -0.11560811098532348 0.20420164105501606 0.6065602596328651
Ni 3.0156909156001963 8.435657955125782 8.048578676317865 0.6410351534812831 -0.621076450971169 0.13782372785041425
Ni 5.68698124516184 7.734732103048734 3.6008545544697657 -1.1684910534818134 0.2717622617138094 0.46819711433921296
Ni 3.1044244051746985 8.333479723448438 3.569557328653367 0.3301730975525346 0.06020083785961246 0.2562286848545845
Ni 3.649004271749168 4.353474400157293 9.408512983792077 -0.7075462498296395 0.18630984837625977 -0.5667873506103014
Ni 7.288062870120309 6.139771587978377 11.2982903823509 -0.056104556303051764 -0.18768256035407033 0.3385286686060815
Ni 0.4942059350668904 9.067108757896687 0.36830998483932936 0.6974667541064504 0.14572524208567805 0.2258647278507465
Ni 4.564684336621567 0.238104845582707 1.706206488412086 -0.1920565210520499 -0.3013104076845714 -0.5578077728195103
Ni 5.997277213035015 5.59766909822716 0.24447550145739563 0.24364030666661265 0.19336932632620246 0.9045953390002743
Ni 7.919983831996357 8.70718387986716 11.551097645642706 -0.07589870821084348 0.2193140712164223 -0.8427713637149421
Ni -0.11409766914484573 4.910920351474428 5.680210049895654 0.16882249022477375 -0.7632959938964338 0.007522276518974142
Ni 7.876792484971964 8.78102598393838 2.5197562416697803 0.1951169051449285 -0.36016758703209584 0.19363594972402778
P 8.468921711814653 1.5326011429901314 3.5407230132262173 -0.09615128781229247 0.5774599998327989 0.9317546730238856
P 1.851658344957223 3.3361405118402114 1.5263941386501179 0.02378347557284291 -0.5042537508524542 -0.33218678554845366
P 4.7202798758601645 1.023626787108997 8.13332395086778 -0.8364441359453336 -0.18248019021752443 1.4019932432731597
P 8.384573360047735 1.571181314175622 12.472100454076598 0.7242080267560367 1.004917727471121 -0.4474233721269714
P 6.237863052049477 7.604552280051619 1.483306769120131 0.17972216785641307 0.8306200730643888 -1.3479841360465559
P 1.704064552027309 3.3653446254865984 5.9766073912991 -0.08533774213655626 -0.5350663653579365 -0.3219255128317617
P 6.821448041308315 3.8109017513009347 6.05140066340611 1.2141502460818252 1.0046783577668053 -0.89645676905354
P 2.456707905670094 8.498415154141128 10.27654332751035 0.5035292139816039 0.6168333594240989 -0.7399488345300611
