# total energy = -340896.2755428304 ev
CRYSTAL
PRIMVEC
9.04651260709153 0.00000000000000 0.00000000000000

0.00000000000000 9.04651260709153 0.00000000000000

0.00000000000000 0.00000000000000 13.24048563599237

PRIMCOORD
 96 1
Ni 6.425656376171803 1.7948642565624378 11.398137985053765 0.5678031934693253 1.085102207541512 -0.6790072618496822
Ni 4.56629953233777 0.20325704177559348 5.999780042019214 -0.24463558070034644 -0.16462953518934875 0.29925943869281363
Ni 2.710724130708748 1.6686925473918752 4.91271039645916 -0.30570647986973803 -0.22398602277079488 -0.17572281688903285
Ni 3.5032167145446724 4.546514809604851 5.049153515867928 -0.3437739761654208 -0.6982306288556684 -0.45865935005210684
Ni 5.204657637013441 4.65275705184326 2.558777098259433 -0.3511530422383114 -0.7559961178009109 0.7085605500267668
Ni 7.324662597619702 6.052433458444641 2.4555012074540943 -0.1740721686594873 0.8894078326265585 0.5481373396092818
Ni 4.954865335183831 4.639078725015563 11.52175134050285 1.0485259510793747 0.446582878503547 -0.5719876638643182
Ni 5.590835160572126 7.665489954255605 12.415205717258846 0.25373805722224685 0.8518712691336813 0.7615756687712174
Ni 1.8309417482217338 6.546002131323161 0.7223721611678271 0.988266234957369 -0.27846409921401716 -1.8596660610422813
Ni 2.7981496270466217 1.662025267714618 0.3178193615162728 0.5113088579270226 -0.0538818376201201 0.535421177594194
Ni 0.4445311474802307 0.2749958855213856 4.8139360502500255 0.4559488930994793 -0.10272996947107471 -0.5194147748636087
Ni 8.54216033645907 2.215110946016035 1.1683697483165563 -0.2064852948828702 0.7517648533283827 0.4130538935081661
Ni 6.834603971572626 0.8056362617776972 4.655341640450848 -0.291734076850046 -0.38317664633275944 0.5521130364275783
Ni 0.7680679048662816 7.594230575669779 2.528217979195967 -0.07498185282352893 -0.7176373155170545 1.0302454076026322
Ni 7.615725089256159 3.9978981084548115 3.8772248695526845 -0.09659737421077558 -0.4950206622899604 -0.6312757601016742
Ni 7.651874953015073 3.7343370146729824 12.587795986472793 0.22269944274888742 0.10303258831315804 -0.09367094459259996
Ni 7.9777303315426185 8.709575095899124 7.067757927700186 -0.33242898346624683 0.13655334577842287 -0.2613140697972919
Ni 6.897730535463943 0.5363496302648828 0.20953894002238768 0.36311021460018755 0.5793050234613377 0.1382538734092974
Ni 1.8881880790191325 6.555926155483204 9.282732271378194 -0.035945821966989706 0.1018766203318439 0.005308042476474729
Ni 0.0713643181302718 4.843557045972202 1.4202409387076778 0.9647401268109708 -0.4760096684050963 -0.27121076008571354
Ni 6.439009028551222 1.7408927632727282 6.921649514387508 -0.5332161995230752 0.6023223102921176 0.3352793084308484
Ni 3.4904973180369065 4.1867802419438895 0.2362940005997118 -0.3821739160998579 -0.35297698282092754 0.44997673467644433
Ni 6.013497268850455 5.713415404299173 4.818451164614909 0.4174275970958295 0.5532690044088924 0.302485144718963
Ni 5.232548034903513 2.749081343505994 9.24381869806514 1.0884631535939449 0.6990508107641187 0.5759718453230468
P 0.30935544446601265 5.43834714667817 12.32697146270775 -0.3931481557231745 1.0240271946070623 0.711875987553245
P 3.945075522246529 6.17651542323875 12.852724912937392 -1.1551166890574365 0.5366707337305789 -0.7431979375949781
P 2.504771228222405 8.581937851711308 1.4692440873586496 -0.4997921155366747 0.6676455569799599 -0.10741451943093759
P 6.393559349991467 7.894393858833131 5.784794196849369 -0.7783775708199047 -0.5186205610970874 0.8122893930760011
P 4.831950370496053 0.9223100375247155 12.546975408334818 -0.40030507848292995 0.5949000496861174 1.032626506240299
P 4.0075055046790276 6.115243394400131 8.302764286739505 -0.4055136192670629 0.6826584854490243 0.6646993298674424
P 4.618796444097774 1.0380873038877227 3.9457576292854233 0.6615471573917059 0.5576013132356591 -1.1123502446241875
P 0.11052576588451635 5.700388426368034 3.620518318255872 0.524924134717612 -0.01596912173474669 -0.17805197924284175
Ni 1.4224555249559714 1.4234687343506156 2.428675584079643 -0.21810153896555987 -1.013035985702881 0.9270012174993003
Ni 1.9209997796831917 6.3911891637289955 4.624848560928283 -0.3240088777233517 0.0693043428227774 0.2792079193585772
Ni 5.98476554530233 5.412266051278533 9.18815550694687 -0.8079174892605504 0.9430374450265566 0.8073441332555839
Ni 8.784661149252223 2.3302549565073893 10.071719331638898 -0.5628047118134695 -0.39198858819743454 0.8127480778799744
Ni 2.2476512513065283 5.2978909943456145 7.08121009171658 -0.7825558705673104 -0.9766389351310857 0.16905260395770888
Ni 0.4467357825648271 -0.058825851871549505 9.197780996195993 0.9720598004008355 0.4161451308389801 -0.22918736446607627
Ni 1.676155920164924 1.1898063642232433 11.51000715803743 -0.19379921477476947 -0.38557291447907793 -0.3899795281872058
Ni 4.228403245736373 7.050616595905795 1.8185145540661736 -0.08386090048071362 -0.2140556510309604 -1.4566608100193688
Ni 5.681517401392784 7.7203389592531755 8.172305435317854 -0.3352823937546419 0.4109687288443632 -0.19272912163904227
Ni 5.3197835544798915 3.0574317204385695 4.689951787790401 -0.18879996178796518 -0.5360366996910059 0.2844601688964521
Ni 0.7770890870835961 7.296211315957593 6.9693409187329145 -0.06420147437857329 -0.10235741662300436 0.03082187047686305
Ni 4.955001032870614 4.536554599395 7.076973609935223 -0.5326886091543793 -0.36296906103663296 0.12707111731960052
Ni 8.14757860283231 7.081220947531523 9.16356799075309 -0.3222890668187675 -0.2203707946157108 0.27930202173428026
Ni 4.526133017050089 0.32562469246001424 10.479910638598717 0.19167136979848926 -0.44726036418654586 -0.5864375207410609
Ni 8.12211267027942 7.414603024419281 4.6143220390389255 0.38664506449733416 -0.5672612049229263 -0.19854032900418064
Ni 7.166366722731445 6.038556108342996 7.059270489717551 0.4028682112244158 0.3338065805400638 -0.3425899831596487
Ni 2.7977877665485344 5.121873001563537 2.465589878140766 -1.003678198637065 0.16454340323344566 0.6244865050939825
Ni 2.436388640596372 5.20406961370405 11.310989311996929 -0.22716107806466684 0.4819072648364539 0.6862832266858052
Ni 1.1388202200427535 3.5587170684388005 3.7671957572017924 -0.2507254956481682 0.5076956866544675 -0.13378401056340186
Ni 3.493021295011065 2.7570603674888177 2.801912071575484 1.0244244300454808 -0.12623962255724064 -0.16883354596836728
Ni 1.037046954955722 3.31203676689274 8.220156962933663 -0.008971093150358742 0.4064042494021323 -0.46891368079026347
Ni 3.4914019692821245 2.4877004592251404 7.113622841181496 0.10005627929365349 0.450323833603218 -0.11787505264262926
Ni 3.8460523969449603 6.786404153227408 6.2097875913866245 1.160364567719937 0.6828747152248884 -0.6118582748070107
Ni 0.7919154163414749 7.433030770284373 11.527192817742838 0.4101973978959774 -0.4345758267403419 -0.1426093221645157
P 0.10893991225164909 5.447158449806594 8.099006068174061 0.38638126931298616 0.2623769638441675 -0.5413228877906097
P 8.468576004173032 1.629864915947116 7.93724718831911 -0.36616391382484687 0.13657288616244867 0.6239715131307769
P 1.8682767051118834 3.2458072492303263 10.494859095774702 0.4266586287757942 -0.5530949407248732 -2.258631337667865
P 4.2173393610073555 6.270680571353497 3.8508497624983518 -1.6145764235236517 -0.42544378253208665 -0.1756973629677361
P 6.847884251852427 3.832156953818411 10.480096092103988 0.095276598516823 0.04324132718713844 0.018961628704167347
P 6.387027768000992 7.716982703133417 10.360613374240568 -0.757473987898018 -0.22125808231667055 -0.885999578275958
P 2.297271372106739 8.319326641736957 5.792778648739663 0.013985515645814623 1.2326135949933352 0.4312866144661088
P 7.056379224337834 4.058654486083657 1.5599281374817984 -0.639175474564725 -1.2493435061535063 -0.40544497081265657
Ni 5.488347221001373 2.7598195537867327 0.3778918228037328 -0.2702890196023926 0.28956458000255286 -0.02963067838223929
Ni 1.259826370603121 1.0950441462866516 6.9376301786342855 0.8033350120961906 -0.3838721297378873 0.2154227065818161
Ni 6.935644469151033 0.6263497640466466 9.248492126397936 -1.0179339372251306 0.2517215410128503 -0.8577488109603809
Ni 2.6132479590365025 1.464250412485046 9.265135900007458 -0.05330411073977916 0.8544205179180963 -0.23422698377251275
Ni 6.270155873631271 2.0624691414103915 2.5930561432432357 0.5600652013951194 0.32006197726046165 -0.055139107065988915
Ni 4.16582851910464 6.866375323304685 10.592335267446948 0.007262852210000395 0.06410300112749605 -0.9336328638832049
Ni 8.092385830361556 6.960992797042042 0.16150919611127051 0.5330346796398884 0.41421166126169306 0.18838755684089492
Ni 7.383383509946806 3.7795967164712416 8.268259078944398 1.3012556216417654 -0.7668641708636663 -0.6488842172120567
Ni 3.189329871991362 8.424682325755052 12.52175192231565 -0.16690984658309319 -0.539118166829807 0.3250661153432724
Ni 0.17241567152361942 4.765250434186126 10.200205138694729 -0.5038858259900741 0.03952531178813193 0.3371495288703677
Ni 8.547751081154518 2.5377548126230556 5.79774337477342 -0.07296122284907434 -0.1435007236305335 0.6862791129207471
Ni 3.7940439968573743 2.748791855107524 11.328599253136343 -0.2482834618655789 -1.4710605303844664 0.3861835514798833
Ni 1.1224731720416632 3.3994713097430656 12.468326838378053 -0.42095000842679114 0.2424167186721567 1.3886962690539373
Ni 3.2102725483181604 8.416395720348856 8.21505925316686 -0.01267348170261043 -0.5666881060282757 -0.5880578299533034
Ni 5.814591599564361 7.779503150690437 3.4891195341904395 0.04235943880281737 1.2252162740879997 0.36890008180908723
Ni 2.975054178049013 8.421344162660198 3.6245964860693154 0.8322354971806247 0.3382520179059271 0.3642934362750114
Ni 3.446241779120839 4.156157797293259 9.08437663004919 -1.0290238764907054 0.5509285292011737 0.5563008492566806
Ni 7.105456554390914 5.954351170438099 11.414185593492688 0.882464568539506 -0.628829869664343 -0.34365519119936944
Ni 0.610532841675254 -0.15539465834484165 0.3760653319396376 -0.04623871925256552 0.7402604522332089 -0.36165059933552557
Ni 4.637305608574936 0.4032790506982872 1.6040714996434586 0.04215066522612096 0.2417757426540481 0.09253040323025355
Ni 5.83761497375516 5.551157156956862 0.4128565934314108 0.9206109977022403 -0.04805803184949142 -0.049037622153941356
Ni 7.991698146768785 8.93125988353981 11.169051340924705 0.7720701405446381 -0.28215080403698506 1.190187050398008
Ni -0.036728840555853196 4.881787607595116 5.749455805257416 0.3820227352339743 1.0114552714793226 0.5074385763383389
Ni 8.099577807761039 9.081341525121484 2.433177128675848 -0.7478909721952732 0.665396613044783 0.32243793369180596
P 8.510271380065133 1.935546571706298 3.7058658306834795 -0.010329149840149952 -1.0133918263804031 -1.4146968068827572
P 1.7908114189838609 3.3811159359775913 1.4783792556328617 0.39230329122437596 -0.4619503620985528 0.002951626429156207
P 4.710953266448137 1.0280547215782545 8.291694974103017 0.11087368162413162 -1.451427072424255 -1.4506922511407596
P 8.807738802517735 1.5814570278154976 12.31933168294188 -1.6843173396632154 -0.3465314843059 0.748142426084447
P 6.527375362184122 7.852101413119187 1.3685365014384847 -0.8920876934515669 -0.47379286325943565 0.5372754571941134
P 1.6718135941878773 3.3997246120917266 5.958496282443688 0.9387506447257444 -0.6751691190505147 0.36137651973853246
P 6.723069519549693 4.066995370564567 6.028167998094157 1.446526035578212 -1.0117522338944511 0.17101229878724097
P 2.3854024964158826 8.530779823794227 10.370768989119385 -0.13994051708310093 -0.9257778866151605 -0.7920715233672294
