# total energy = -340863.3072692056 ev
CRYSTAL
PRIMVEC
9.35793320032969 0.00000000000000 0.00000000000000

0.00000000000000 9.35793320032969 0.00000000000000

0.00000000000000 0.00000000000000 13.69628115306902

PRIMCOORD
 96 1
Ni 1.4707957251534938 0.2559095287083976 8.177597468164361 -2.8997307687281806 -0.5902823484084478 0.48227878924325973
Ni 0.31545405791004216 5.587294409520654 2.4309121891587386 1.7731656660561916 1.0983354184023342 0.2499251112340599
Ni -0.0027390670591421295 8.083635396301906 2.8964347434607616 -0.8661642887175857 -0.26851444420047305 -0.3873978835029586
Ni 6.802319103377691 8.535735866958806 10.514073138245413 -1.5058398428471809 0.49443907875487747 1.8934151324682682
Ni 5.615181050573758 5.975779650016815 1.0801721969121534 -0.22343374981175068 -2.008008686146148 -1.4691550858316376
Ni 3.613912163884255 5.848146798566049 12.932905171385544 0.23205157338774873 0.08733600351350765 -0.8782829263579907
Ni 3.474441526885778 0.6126900913898217 7.67199956476505 1.0480970910720724 0.675096099720734 -1.6689639971355965
Ni 4.638895949517656 8.098065329356903 13.295377229063108 0.534665273264776 -0.4570472683699806 0.4093515049559144
Ni 3.796878474578983 0.4377510158277622 10.383821937074291 0.6455762358847463 0.33172038743499643 0.38113519042269844
Ni 1.0056222217612965 3.481525482347925 5.566963363764958 -0.8302048399038412 -0.884721740004799 0.08041665068585506
Ni 0.519817282956422 3.853269380278985 11.020397217264092 1.0864119274918709 0.7722629732817345 -0.7880678015244751
Ni 2.0027287242748333 4.880611365088689 9.23316953017705 -0.11760277281784907 -0.3105067294718588 -0.7047707439670314
Ni 4.071356014420793 2.497641739501515 5.2480721369761225 -0.5598916519317325 1.3733185010462865 -0.6831683352059074
Ni 1.6112676610085757 5.572602454334958 6.958409429809159 -0.7297623809153625 -1.83526217827662 -0.5447229146110941
Ni 2.6006913003326497 2.3843078100403936 1.3762431677036404 0.4331876881435636 -0.5075792156812613 -1.069226931072152
Ni 2.998412820935996 8.552832810987 5.494125890396893 1.2327262093117997 0.6433005524766922 1.422702193685737
Ni 4.765957967040826 2.586963212270602 10.91655223210762 -0.4350861907178571 -0.7452144538043747 1.528885926033367
Ni 0.4397479987810281 6.80220680817882 9.293638623182739 -0.07442160944468473 -1.2990254467596662 -0.6095761636410534
Ni 8.041880298188165 1.0807757836060878 4.126183209476508 0.49370040081664 1.1455182467357239 -0.03531410192026176
Ni 4.557828173865629 7.954243253402152 2.0412113531347926 -1.0984539462580696 -0.3569323679242498 0.26240267487578034
Ni 9.026943140622727 8.806788403235034 9.836244345163495 -0.1041258213773368 1.3858713980106327 0.6222218774295218
Ni 1.061947621928623 1.9104875763350861 3.1608412755504403 -2.3969960256234137 -0.9749895724531208 0.24317082322936187
Ni 3.9905596188327057 4.239854960327569 7.517642327569499 -0.6618109525760537 -0.43297454369149296 -0.4464880047968955
Ni 2.1780963931792523 2.0768997031294982 11.474100701884884 -0.6547175360643821 0.20360514512159775 -0.19593014507484321
P 5.389327331843334 4.4878776229018875 12.120852734472422 0.06394796360687051 -0.691855321456944 0.5072141190323587
P 3.3978749171218525 6.360194189553882 3.207902321810863 -1.0390871742639782 0.9496914600079643 -0.1650062018024771
P 4.21734913088706 2.399589315020165 8.688071790574668 0.37591379412275905 -0.3215403615782011 0.7029771424017184
P 7.466489057103532 1.178257374159841 10.767948252267587 0.8201063180172585 1.3403271337219305 1.2970158725288048
P 2.3293673839924827 1.4570582791582063 5.860884817291379 -0.8864726612576347 -0.16007996814545333 0.3652982233904418
P 8.906843425429594 6.198114785849264 4.470972516505098 -0.9694341898525304 0.1658783199947853 -0.11948739143507163
P 6.95641619002919 0.28162980821660444 6.4102974999104 0.5730557001175163 -0.7517604824530086 0.12915885308656466
P 2.464374286835816 7.917522723371152 13.13896592552153 0.002211405829021998 -0.6833724807969134 1.2629341003537475
Ni 1.8302432988081172 7.277636606401286 1.4772395979820732 1.7420956841242643 -1.3609815767474884 0.7863698449967619
Ni 5.89601262708505 5.541234662116835 7.559593942281266 -0.5047466313284726 1.3781534605410846 2.0511620816051703
Ni 3.625235263103804 3.3206813258308947 13.086139456592377 0.14781966272086156 0.579291396614583 -0.5159031621659245
Ni 7.679746997693863 4.700892257227997 2.649080237319729 -0.3179241049818525 -0.5234714614314856 1.018917898404955
Ni 3.5534973468913558 6.646865116406496 6.953286897153969 1.4706368125834866 -0.08159575859562077 0.14247253947633529
Ni 3.3164889717396897 4.915563245737462 1.4301383126087215 -0.39756376829236695 -0.25187837830568877 1.115396230539363
Ni 2.1086886023433893 2.6161973957101643 7.840107349062422 0.6351187879968482 0.9127853310102343 -1.0431793420554807
Ni 7.455671286278905 2.188839300537965 1.8745961591890876 0.4578764491394953 -0.7232276651206383 -0.03592036804569297
Ni 5.927857673898377 2.1603537517575457 6.6667058064604525 -0.6925065818876976 -0.8938147034450026 0.5896863666956619
Ni 4.982219804200972 8.47542398723154 6.6989055189435485 2.325239364605402 -0.46417488055369743 -0.2828208335208161
Ni 2.7787540540099864 7.779830093688141 9.468116352636098 -1.9031796680541997 -0.01373663285980215 -1.0880319795937972
Ni 6.114904043485438 3.391670607384199 9.361463051714512 1.5707802522743077 -0.1767358315345795 -2.172202676459975
Ni 7.771379879973056 1.6241161033461298 13.1168737167302 1.2111060599388626 -0.8427667357292519 -0.38045539074685447
Ni 4.390152726083913 4.823228518465322 10.037209704650687 -0.04087874049223283 1.224634947663233 0.22660623400246133
Ni 1.4040643032240694 6.928248810978907 11.572289752191528 -0.12849499425032065 -0.877248057335573 -1.5821506988947782
Ni 7.647611854950118 3.394028806560502 11.291940109242061 -1.6855321859069228 -0.40131655046657977 -0.1853567404343711
Ni 5.461589292317182 0.3366881442233302 8.565311614961605 1.0351873249889398 0.48740454050559934 1.2928812815351411
Ni 6.391159590642714 2.809522938500794 4.157725059252882 -2.331948658304777 0.4517443680998284 -0.5281282434772067
Ni 0.08182670403773383 3.6390943622312024 1.0308222001813985 0.5135878837691864 -1.0725166575670175 0.9181697352505993
Ni 4.553224070711896 7.431396807456169 10.954600652865274 -0.03240618424484742 0.10705250810582854 0.1891000095268872
Ni 1.5397169034609133 7.138259548735202 4.437868827671085 0.4522740153510534 -2.0576057803479855 -0.04286286080179715
Ni 6.980269561856157 7.800614063412619 8.514115298002736 -0.29137360818683367 -1.5666217500212438 -2.140528999505778
Ni 1.4079572034516168 0.045380361450645175 1.593329438782168 -1.3211359055054603 2.81545257820439 -2.2527026308882556
Ni 8.105486170415665 6.1249731796509215 0.4297780567078815 0.3745349114973614 0.15021515953623163 0.1364913821922359
P 8.365805157266418 6.767170706130893 11.095727644047107 1.3723821052749463 1.1385328165568265 -1.2123800415552797
P 8.143844338763541 3.3596664757058043 4.954191858355955 2.8816464004226434 -0.40683902294670576 0.5050461648467625
P 4.272345704534406 0.795387829400582 1.961910355278345 -0.24980426938547945 0.46331176122245377 0.03279776325631126
P 0.0656524522269335 4.064693165954414 7.727277812202899 1.1584377830108694 -0.8013424071461941 0.6059956453786467
P 8.481431780371167 0.1423556878161524 1.5380923662505714 0.22562047305042435 1.237008381626921 -0.8457857250612337
P 5.892559549719749 3.7079687508724253 2.1777089747431453 -0.7039173948278006 -1.320939473223938 -2.2351044581905186
P 2.550195892573405 3.2182400306603145 3.2466217063817773 1.5365223595327022 2.1076250496889055 1.77827419092735
P 4.6129838323780445 6.962751510832193 8.860288643357416 2.2752074968589917 -0.5776520612389471 -0.8721282196105045
Ni 8.680259787906504 5.985212446722026 7.2888324377287805 -0.7965082189823445 1.3081600620710825 -0.8486288509369836
Ni 6.994250314115666 3.9507041811665418 0.12770303595006172 -0.8235454256057946 -0.08408098691131971 -0.4168534697599144
Ni 6.9163361619652814 6.384861701572667 5.732346117903048 0.11631105058961903 0.3165066558090356 -0.34845492658085797
Ni 7.202848003952827 8.168174965185713 12.833813080521308 0.7364811876964348 2.1974305977888284 1.9718728596555395
Ni 6.568735731791608 9.351579202627168 2.647066410086632 1.4043002941397815 -0.14379228672902333 -1.2186658745639916
Ni 1.2279479996605063 5.750646492145816 13.621212042315502 -0.6184117596548123 -1.5228073239394546 -0.2711575382502749
Ni 5.525307459743553 1.7385449109962494 0.1634840294838364 -0.9557122122807477 0.21767936382647673 0.5456873354068924
Ni 2.8024202671721676 4.77495094088379 4.75825264481159 1.3010224225850369 0.5843464425399871 -0.039645125195447856
Ni 7.653760017088336 1.1701627619078494 8.713437404413106 0.36616057139073716 0.2347355479778151 -1.5734770823801802
Ni 0.49765956863241545 8.771752301187107 12.692782476051839 -0.49390866017270424 1.581126114285006 0.30869950105979094
Ni 2.831439218147226 8.951920589843287 3.197793882325775 0.9734343121508591 -0.144923315009673 0.6321242241448984
Ni 9.224779207234697 1.2610189357281807 6.289660639349331 -0.14749570372253953 1.9543901294897439 0.4645320067828
Ni 6.455242717465418 6.432325138962381 11.82745064624078 -1.285138918585561 -3.0196465059499222 0.04798578385065929
Ni 7.7106001035838245 5.284761785827433 9.294474286621007 0.17276784802576697 -0.07503867420339334 1.2738990840056836
Ni 8.845071708116997 8.589384898219695 7.2373338595262835 0.09105484712599157 -1.3454742251405087 1.764539357839761
Ni 0.32725254013814736 2.458806316558434 9.167810917053831 -1.0296265430717106 -0.5132073605013161 0.47001796959803577
Ni 5.207044150275074 0.7091338871473368 4.042950008072908 -2.4313300230185937 1.0405992400331303 1.9467138438914087
Ni 8.493288281785357 8.416094690494399 5.054858889384365 -1.878561098174571 -1.8339658280626998 0.22506485765727044
Ni 1.0982002552976582 9.422783716644975 4.693373157870222 -0.43147764743099243 1.7733903804724878 -0.4546124336762428
Ni 6.999453324996715 6.9430343454969945 3.5319422834679597 1.7693923150566881 0.564927157473111 -2.297350608614934
Ni 7.33719985146941 3.8642930256348764 7.0270554848793445 1.405521311031076 -0.05207255232552322 -0.30450628891404974
Ni 5.328285533323401 5.2968990252388 3.319101706700101 -1.2680644796017773 0.4095137415653915 2.665190881700939
Ni 5.144879399766427 7.77970844055603 4.43448593480508 -1.3574470812316686 -0.6377274292642888 0.4983278722863224
Ni 3.0244653070741983 0.6937812618749468 13.270463603400128 0.6608796990110359 0.0480775722335172 0.26218901620307744
P 5.303730316503487 0.3992515426879719 12.145931059760413 -0.15119243584783637 0.38067367740524766 -0.9643596035431004
P 1.6481659917711224 7.66502696870845 7.071499117212736 -0.9403508993333289 0.912088819163842 0.2691199389949559
P 1.043840021110584 1.9072965211004858 13.541773482840437 0.2477828680800765 -0.6124804817720421 -0.5661355759589154
P 5.352597443879094 4.581176217297674 5.657303915463804 -0.38083719956630535 -0.38729581070745556 -0.42261428350309155
P 8.992665031167183 4.26259473809906 12.827334583339741 -0.9087093611686479 1.170671863183216 0.5361894232187862
P 2.407047587811884 4.841401624816036 11.30510204234313 0.7291224333385186 -0.2407339316530951 1.0810288088030866
P 6.49194453162994 7.7850986101018655 1.330796364926996 2.4277006537961223 -0.6434561042179499 -2.103566049128184
P 1.6574397036112654 0.1796929056476221 10.354949905651088 -0.5498579218448143 0.5366061990412306 0.81817361977092
