# total energy = -340864.62003262335 ev
CRYSTAL
PRIMVEC
9.29065871017371 0.00000000000000 0.00000000000000

0.00000000000000 9.29065871017371 0.00000000000000

0.00000000000000 0.00000000000000 13.59781813651668

PRIMCOORD
 96 1
Ni 2.297514790585104 3.507706664624503 3.8529828357023206 0.012966330352680895 -1.0318382060110487 -0.6530635454007269
Ni 5.15908403465657 4.741329579178012 4.346651261062238 -2.186974435452511 0.7325021484440287 1.1026283893507332
Ni 2.1149161901630964 3.8241557807827418 11.950292407918806 0.6780176442429033 0.1872264466532582 -0.4830174671814972
Ni 2.309397542693568 -0.018037813306163053 0.23205370421291022 -0.5286779453330894 1.1525936655252667 0.09788395423268303
Ni 3.021024814390125 0.5725219595627136 9.108361757597823 -0.22082202322051647 -0.1609752262662131 -1.2102771362796643
Ni 5.421034148572238 2.591517676020865 3.8261263294318466 0.5016844474633811 -1.533796475961107 -0.20016218087831977
Ni 0.5916690774832242 7.080540844714473 0.9855511861731215 0.23552950463402017 -0.5179821561821402 0.03716786729954889
Ni 1.7472012208895307 5.315343618481632 6.587748528442771 0.0695380561001383 2.9573461052488037 2.020317842530804
Ni 5.393645287574777 2.616806848217299 0.996451915687477 0.7715227526816003 -0.9423545600269189 -0.10470611936083903
Ni 1.0124680817232712 6.637172043995074 11.9756800610944 -0.09259468080928569 0.5545147038905354 -0.2055198456458073
Ni 7.931927490897051 5.904575756263487 12.9100805983165 1.1945419849325942 2.9195046089209975 -0.30276668051512373
Ni 8.726538923526212 8.321354728878577 2.7426525326660762 -0.25389875116982724 0.16960821935086276 -0.06009773662284489
Ni 3.163720036934219 7.336145438935002 1.2099744726325672 -2.229431833285773 -0.05347174666589501 2.416200880686639
Ni 0.9669624368231493 4.977711801144896 10.122433406962942 -0.2828694273705645 0.10526379163652194 -0.18926995944584823
Ni 7.998634418292493 4.309601973448374 11.157512164062576 3.397705885660774 1.119630837446001 -0.7375307120068718
Ni 5.578733784451099 5.908663645964601 0.43584987086687377 -0.06794860012583137 1.2562116940282493 0.11570864111892976
Ni 6.404180912348431 1.5803688677920442 6.231226944423526 -1.7681075348069937 -0.9445384550521151 0.39454863561512693
Ni 2.7074743836563124 7.096427870598345 4.865271607718247 -0.9007610528558487 -0.11179130834239458 -0.5406713702495398
Ni 7.296065538547268 8.887629649725316 10.241305523207956 1.0525247878261228 -0.6279816627314346 -1.9291570659545678
Ni 2.149849065790793 1.2873229201726801 11.59037230105259 0.1559546331231701 -0.2301849524926552 -0.026871884690179523
Ni 7.160013136767483 2.333032977692733 10.850174396608613 1.0075348533789938 0.13665567568424206 1.098618753970708
Ni 5.62675719778077 5.510540351709798 8.244452232942221 0.016860266090448384 2.110101793364173 0.664104633706237
Ni 2.3137269895133836 2.872197757294361 9.678097448702891 -0.14253244617999322 0.4394971753013592 -0.3987207647149456
Ni 8.552794320570477 5.620569619278631 6.571974848591521 0.5291685118162629 -0.06664325105084652 0.6332223423050837
P 1.6822409372754734 8.531286446347574 10.768478849997702 -0.2732915538741422 -0.6131960197818279 0.16500131670647067
P 4.451293804884013 2.336080313651745 8.266453441126782 -0.9981636965767389 -0.058143441109951476 -0.37388133707376253
P 0.47945464705597796 6.132020364838392 8.245145316059727 1.9167990586098473 0.20057021495001587 1.224687398167723
P 3.1799322358624984 4.334315124823287 5.499609892088526 2.3561098289320133 1.5357116907059487 0.12166434448173241
P 8.652984780881404 5.918363093346334 2.9173707966233464 0.5471320382732189 0.6097916220859692 0.02934759992418172
P 6.337473984952989 0.6433084150666986 11.63154571193537 -2.2877017726712605 0.9016995055097181 2.2233555451847065
P 7.816630420008829 6.731611586749206 10.632785996698448 -0.04905124900069617 -0.9750535929218368 3.8476635941738255
P 2.6985646422395675 0.874177560332127 4.254403384627408 1.0332908792971753 0.9426782619149249 0.6235591081837067
Ni 4.196525369920529 4.106582505837622 2.294631899279978 -0.12382227136499964 1.5274638488748595 -0.09541440964626793
Ni 2.0632136761024227 3.5725368790207974 1.5567594466364318 0.34835748177104525 -0.15340101346338098 -1.60543152379959
Ni 2.741868401096135 6.7206021565314344 9.56786007038564 -0.2801111478991369 0.45911212131880935 -0.2544433108193876
Ni 6.352404073020465 7.9551727182429275 12.570121471047655 -0.16402198351233685 0.14464974963331217 -0.2097423683675872
Ni 4.2636317956276715 1.2526594736389207 12.533163231886224 2.4393107272312244 -1.9247288549798853 1.0203440893285203
Ni 1.8840990725847728 8.758257231343485 2.841427096635071 -0.6872481617022358 -0.9934092126108892 -0.43244901020532617
Ni 4.31622621289586 8.99446293080055 3.2807451702870027 -0.4341873330526716 -1.6223642949991866 2.3646191519546047
Ni 4.373363762127332 4.193524487253575 13.03901542668714 -0.2527962621342678 -1.1730915283683023 -1.0184466151954912
Ni 8.109499845118373 0.9141032357902291 4.398255294143748 -0.7879533874337978 -0.024277127379809804 0.8126583463796455
Ni 7.866530546337647 6.971988791833088 8.675815644862123 -1.196654403289907 -0.6287290824204205 -1.9235502612907518
Ni 7.850940821522947 4.0215544000544625 0.5783983010080641 -1.586068545891946 -1.1913749000585223 0.3853805959626137
Ni 2.585580945295839 5.494792685702099 13.604208914894766 -0.6211651540302334 0.36083221719928826 0.23559146822020718
Ni 3.878385353931376 2.4199099244998052 6.028973027065893 -0.21103254793392046 -1.2896638030391079 0.11794010155260978
Ni 5.0102941401944525 9.164677083559868 1.1543624495122833 -0.8167949942558385 0.09362749294917425 -2.960127781758999
Ni 0.8942128651967887 1.5902541283420095 7.823953316968868 -0.13603861092553346 -1.8274182567521688 0.7886750960911707
Ni 3.4563850675587067 1.531091215576804 2.344005245276858 -0.38989288201067046 1.7304632420916586 -1.1047989146394908
Ni 8.788581940399018 8.244288717354175 6.874933928736084 0.720489697364185 0.21075178346870801 -0.5357662196384386
Ni 5.872634472644333 4.852083518102951 10.428900639723732 1.319816158252772 -0.5112638636217002 0.9848278986997813
Ni 6.498081596914688 8.622334898781466 7.36956858257081 -1.072043574585341 -0.5906073358480345 0.3600012366575606
Ni 5.581298006172707 7.381205132231366 10.076622099401076 1.108386374880433 -0.9813448252471874 0.230360558838571
Ni 5.219380407747993 7.097775016068031 4.4804125864777165 0.0797443072091788 1.1585285429524628 1.3485227821588452
Ni -0.10222697263475318 0.6012616822932233 11.101353850227689 -0.8806326575370899 -2.071813182196619 -0.8101975435439788
Ni 2.2842012770812508 7.7654388921607955 7.159591340875595 -0.682620176011921 0.10541728649525071 0.7545804684003069
Ni 7.223068835407157 4.057620736008377 8.64527539253144 2.5419604782836673 -0.7515082572328864 1.2282172656978525
P 6.1406606771612005 9.208603316530013 5.1315855438898526 0.06177949520064198 -1.6395354074618345 -2.5060025721318198
P 0.2684340644211375 1.164221696218696 1.1637404401129738 -0.22318306725352527 -1.6409335733609418 -0.5743520503314367
P 7.0514332119108625 8.025410095834786 1.060580685373694 0.5511686702364378 0.053809075400655715 0.5850370408491086
P 3.2567195276345493 2.398838711222248 0.19639337003158358 -1.2015806369469306 1.0825655571625872 1.2267895321123905
P 9.05881003095944 3.0030473903636374 4.853605327950775 -1.247173237975065 -0.4478535176858545 -3.7577001803397994
P 7.050820028455695 3.0166396236198394 2.420343798247628 -0.20994368574511588 -0.9340702085309398 0.017378857598079746
P 6.545668349299015 5.695870405704823 6.178766312636466 -2.762692770003855 0.9935028007659599 0.32337201547030114
P 6.439634064847178 4.43104946020509 12.55936567580452 -1.082521591298529 -0.7048723025419023 0.7887247183821836
Ni 1.988646851690749 5.922999131893733 2.782711993605305 0.3840485074147515 -0.31381265391664015 -0.6428783773376089
Ni 0.6305142493680547 5.20188609795891 4.668756530061471 -1.0098539884304736 0.18694542507772965 -2.161130220695897
Ni 9.091002162355709 8.737529772427159 12.955307523464274 -0.2887217723862834 -0.5758155222508405 1.9134234572693951
Ni 6.445988875200728 6.144246871308086 2.6749895965200783 0.9169924271130465 0.276992142654181 -0.40727328227064696
Ni 0.20215915264183587 8.722237348681631 9.048476960674035 1.354010544746294 0.09691490545119438 -0.21934775266783516
Ni 0.5493222564430535 3.714637499426548 8.154706330817639 -0.41418672156102865 2.1287687736460565 0.7228419996464454
Ni 1.1662191877771946 0.7285725035735132 5.674436856749212 -0.22894645209986378 -0.42308171005781325 -0.034166361469063745
Ni 4.162698082643816 6.203028867078415 11.518195033984385 -0.5622809780995155 1.3486693350390384 2.6827016368911925
Ni 1.3181121621487937 3.207990024265595 6.029952262462478 1.7929387349180606 -1.7473625889501583 1.6339280885773861
Ni 3.88373677317647 8.750332299718373 10.991034714116411 -0.012296043758533663 -0.7576202836678952 0.8913734409933616
Ni 7.382385045849642 1.2561899238353367 14.035395804304848 0.33000057653041226 -0.6496969429213391 -0.2076489761736682
Ni 9.274771385737582 3.7146932433770177 2.403156080186128 -1.2236471298286666 0.9157361861084422 1.5688372696153239
Ni 6.400018697380024 1.6453756046981596 8.985274469631458 -0.6840959892264993 -0.36386843292245075 -2.3907806408413212
Ni 0.46751522193120315 2.770437175711871 -0.3215571201529478 -0.14852748742116356 -0.5360806655550638 0.9831664518369584
Ni 8.122330244384822 2.818590658259305 6.6629712733383055 1.1865821066555693 0.7980979320669674 1.4269010622584328
Ni 5.867803330270289 3.6307056913359594 6.925056101800941 -1.3598942572205805 0.6341893342040433 -0.9205518623295307
Ni 0.6798234898218943 1.5836670515281697 3.1919385537278364 1.0717905780342702 -0.17051196211205474 0.7184171311058725
Ni 4.384131635226401 6.364509800930807 6.5528017168274575 -1.1997461548413533 0.15475701327064317 -0.13487364408315483
Ni 3.4765736682871595 4.452668822328933 7.977553914356524 0.34425888622163936 -1.1755173642009755 0.7616144924289528
Ni 6.411641311052962 0.38087147065026267 2.688220423164068 2.7045218180900776 1.058813706158628 1.5998087782961739
Ni 4.513977877187223 2.1497747405235 10.548044972260207 0.29670247659891485 0.6380045941850754 -1.4218745555781191
Ni 7.363682950467048 4.666465453697166 4.555310158328845 2.282880954243849 -1.3550639257114727 -1.2102210862307479
Ni 7.460891109427844 7.462777113085402 4.812797969009409 1.6944423439123593 -0.39057036769366926 0.5702531976717147
Ni 4.314711835574766 8.865908090358944 6.186490566039888 -0.8632206327082294 0.5479388504452305 0.14887304368604037
P 0.3275663180135846 2.4724207258422894 11.178793346220234 0.4087005016354768 4.908328751718895 -1.429072615988455
P 4.256663801818955 6.625084897401554 2.7409393352549727 -0.12034279745683145 -1.8427885685606524 0.7227005889725747
P 0.5529567620136799 7.9072607928141965 5.095238630051907 0.7957055205753909 -0.3484484988229547 -1.6974505346110635
P 0.5412412417566252 4.938403025405326 0.4703795319195061 0.04910961304245736 0.45478958268405545 -0.26736721796990726
P 8.029878902530776 0.8319998292750479 7.88582352759522 1.0818240510108723 -0.008485925983824095 0.05757162776688149
P 3.8833651468400054 4.639364603110466 10.249858503341693 -3.4693417048302053 -1.7248986035196876 -1.576425366375227
P 4.51751761804205 7.799303342071155 8.398732906525606 -1.7379610931306004 0.5734560208797285 -2.1953513466622967
P 4.152301835881212 7.868109958267623 13.257723100091757 1.313665565270344 0.679600672459307 -4.670564701327402
