# total energy = -340865.7168075865 ev
CRYSTAL
PRIMVEC
9.32636753860245 0.00000000000000 0.00000000000000

0.00000000000000 9.32636753860245 0.00000000000000

0.00000000000000 0.00000000000000 13.65008161642241

PRIMCOORD
 96 1
Ni 4.296685389439547 3.7256598993966885 11.275717948685497 -0.9199533095135833 -0.26340463377773343 0.014083731786575746
Ni 3.163811554766837 3.77110728719911 3.2626831723145093 -0.20517171827776923 -0.1669820945819253 0.8952336952797162
Ni 7.40395117932929 9.456190322312956 4.793581181717423 -0.678228988922761 -0.7747949956749688 0.2255708507594115
Ni 5.784362214912076 8.780504338545743 0.3741981042153561 -0.8417784036740535 -0.7417632620309805 0.022359598642122783
Ni 1.6700352850868825 3.7950947038680667 5.4503001323276905 -0.16463313473377453 0.023129129818295648 -0.2929900607443341
Ni 7.210475689905684 0.35724370111951737 12.603529647172829 -0.17196592094976187 0.6895140749182771 -1.1879237082851284
Ni 1.3875023144144933 8.138253381511896 7.255578002118389 -2.5440993790035416 -1.1171404669239793 1.5468126857151165
Ni 0.48984505860690636 8.072819588607773 1.349771562907521 -0.43160723103032117 0.8632196042669649 0.33128664233168753
Ni 7.473413962902536 6.9199220433642035 3.9095879866258887 -0.3863234194918572 -0.20291737502595375 -0.5379390589200412
Ni 5.135899897263327 9.441920980359804 11.15704365547173 0.19697349873769301 -1.18204873756159 0.10528796000623802
Ni 5.081918883390884 5.672380522865355 3.9299269284111378 0.6437312122562076 -0.6797932480860873 -0.10181259986312788
Ni 0.9387268468042509 9.15848335206032 3.5652510451985058 -0.810865773255597 0.3125528133676101 -0.6299454713260246
Ni 5.781554978357894 4.419336445665618 7.777639131253903 -1.7381148450996453 1.4964889977599 -0.6252565504907877
Ni 3.0063544958158253 8.651613942602904 8.832762772379791 0.7675889648448329 0.6801148930915641 0.0872904949875529
Ni 6.269277355769678 4.075846338388135 2.1999697334883113 -1.1693590579090636 -0.8128187832169098 0.003116691252110761
Ni 3.524387566918943 2.0957186672879735 5.601870388245481 1.1312236844899226 0.34973173641075256 -1.2375300584583462
Ni 8.05472643606587 7.316143431297318 0.28555005049058796 -0.8187881134264673 0.058384096365847835 -0.922889766434088
Ni 6.814179691034252 2.037568767237061 3.629884635789177 -1.4147132619429892 1.0680326536537348 0.7881181951464362
Ni 1.3041245908451016 6.046796864075289 0.1903847313038186 0.751189954661519 -0.1783098608899187 1.7605693174484196
Ni 6.693365929164242 2.4812147328380005 6.168076011673053 -0.3526813059573797 0.2960221627024386 -1.7848356461949522
Ni 8.888298491679416 4.358024907103517 11.62394491790939 0.6614468843684156 -1.8751806117381125 0.47088134603959547
Ni 7.112586138833611 5.006310023773763 5.787674940573357 -1.006809545177195 -0.7174583667370289 -0.38001470366501006
Ni 2.83392861736494 0.5981176543825374 12.102571289303587 0.9032887043737088 1.1503272380885932 -0.2004555437490225
Ni 6.47375795859506 4.533929520553439 10.34534193115239 0.35130396599387886 -0.6316699102162993 -1.840988796347752
P 3.4511942364298394 1.045849501493069 0.8383592799433196 -0.11815016068088685 -1.6211507343070597 0.6541842892687314
P 1.9756789939030022 6.728237216460209 8.912916370777154 0.15778294458116052 0.14224191152276794 0.39481037391694584
P 2.197478660785248 4.75559861829363 12.394041717749639 -0.4164282092970376 -0.13448309351295548 -0.3090481426484613
P 1.197580170928241 1.3883043820014025 10.02247615249922 1.1889734897058812 -0.24279595638844637 -3.0775834874760224
P 4.861051853237602 4.029886000384783 0.19556086514956944 -0.2732445026862907 -0.7042783777116451 0.4869869933522065
P 8.075925268915224 8.03394728974455 11.615263935236191 0.18014742831928973 -0.23806692634389323 -0.4673964728147886
P 8.906410296955901 3.8492622450863028 5.012323665402124 -2.1142294423793007 0.40214598834641063 -1.0402917360950408
P 2.0097668663466406 5.856315138551658 6.293752541447883 0.22519109882248958 1.5369584186288563 -0.15244224909453746
Ni 2.50619074443966 2.2465540054633397 7.573133347236838 0.041112967990225964 -0.4755103601711746 1.495618936450121
Ni 3.670214645859772 1.3723469675688265 9.875042140474385 -1.3528327223881087 1.458569082785675 0.524582177997161
Ni 2.7613788062188207 5.188668483388116 10.28760239126222 -0.9074662327901661 -0.42210777618031814 0.05844297462824128
Ni 5.899850621059703 6.273642095661231 0.09653722781507557 -2.324090081492307 -0.16126730358533517 -0.4855137512407896
Ni 0.44759568214810297 6.866864339853435 3.500153934153539 0.3295372637407486 -0.33726985649831587 0.3493285874350629
Ni 5.060160468504151 0.29411165566247854 5.994050661231994 1.4436535991264234 -1.0477371366294925 -1.553833340007324
Ni 1.9711463794002366 2.8471534061816506 11.317514063694023 -0.5709913613893198 0.2973915322461394 -1.0493695300265928
Ni 2.5809695573680025 8.19375459325255 1.88003896262119 0.021704738666943266 1.1570082496531944 0.41086614182822784
Ni 0.34349103991421254 6.475520642012803 11.846946753535269 0.5095419958345869 2.2022953820802975 0.36018661319548934
Ni 0.5636977632633877 3.3319752833663565 1.0117709554167202 -0.07086037445598764 1.8869302960748728 -0.6055122779843249
Ni 0.1935612920026704 2.846006263005025 6.871710320297133 -1.762909792656138 1.60214873928326 0.6361230608916464
Ni 2.7406276389993693 7.582271321907228 10.93252721779801 0.303285014912439 0.033124293357794564 1.2073648477288754
Ni 3.7013087544034358 4.641882221931035 5.954793183399707 2.2391254064244532 0.19544523501862468 0.6602490074055726
Ni 8.953750937318118 2.524684930775018 3.1081238156803894 1.0866728944627415 -2.0976648531524003 0.961169635850893
Ni 5.972549654082456 7.206400067400111 5.748785854249011 -0.011608787883521944 0.6410932604127282 -0.3928164834153686
Ni 7.377641497205212 7.045828001774359 9.821356772445023 -0.5442182070605337 -0.12340215310844554 -0.8502643296578775
Ni 8.664297802116815 4.639326797293673 2.7822139107438795 0.007363639453922803 2.212766971035583 0.34659087678892564
Ni 5.156026197874373 1.553091965642072 13.081732601492076 -1.4333861557621441 0.5676059898568547 0.6262268848238569
Ni 2.652092434318806 2.7490959804983635 -0.20107554612793427 0.9102836476343034 0.7591883994859634 0.9987280537206413
Ni 5.863748253281502 9.336439766313964 2.6012683957739062 0.7677314039599682 -0.3941372591093212 1.3783252102322585
Ni 8.057216576132204 2.1237070955241864 10.972181066240106 -1.532589343026883 3.1338996455692483 -0.1840138532532315
Ni 8.12072913737466 7.702777313656682 7.512499835576694 -0.7574261653792181 0.8108968836038486 0.15519307236679725
Ni 1.4497371633382687 1.5146580060414607 1.948889936500237 1.967223533808986 -1.1065855742262685 0.13886425329978666
Ni 2.2564586075249387 8.2636650424557 5.3451807813326875 1.4346475389730713 -1.0537905419124238 -3.278773081177592
P 6.911435049130629 6.043980301153817 1.9333839182444794 0.803933564912138 1.615610778325437 1.6430771020665058
P 8.348628248464331 2.8061453692090987 13.219516621282319 -0.17168849891865917 -0.44612985012652845 -0.5680412776220605
P 1.5320237019347727 8.506896701369541 12.720073798097642 -1.5385802705029954 -2.3094522769744743 1.4329048452503514
P 4.995780555103758 7.212452879771088 11.716069841359735 0.10074430649961359 0.5175216716059539 0.48941180074361523
P 8.142273045813731 0.5063900341787297 2.2870304395003824 1.173184602302741 -1.456175385742518 1.5940114548881064
P 1.9639277711180543 2.0459718241650275 4.147918639529023 -1.3082235683191663 -1.262555119747774 -1.2738306926615932
P -0.35324268955226135 8.216221812053295 5.561438720771429 1.0950073824703657 -1.1471719802890632 -0.9967519038308769
P 8.744784351826418 4.033868359217459 8.619329789593083 -0.2796421786825184 -0.07771210727049842 0.3208158247073507
Ni 0.29701681907320177 0.9436511687331812 7.884054847302166 -0.5338402062603194 -1.7710470770512918 2.221579170010574
Ni 4.028487045291337 6.883474599996286 7.30503199730844 -1.2562939693294104 -0.012645199567836288 -0.3237329983541457
Ni 4.800766215077362 6.284982958285434 9.749161363255912 0.07257607159551371 -1.3931028827620653 0.29872207813210494
Ni 1.6267795935975267 4.349444649197047 8.166748231491937 -0.32358130326762985 1.1854978724524552 -0.4009967052333159
Ni 3.6230605328433465 5.225050642185007 1.4465540741823144 0.10422069508398824 0.6331650067045871 -0.7148854638035301
Ni 9.145463743323981 5.992312226369205 6.071242205378167 1.377530739355421 0.1707942692391639 -0.4471184392920428
Ni 5.040556444461326 1.3441720119868206 8.064167517673175 0.6491107314005661 0.04872009091352255 -0.05839386655786072
Ni 0.2416956062212373 0.9985181874981403 5.437919379750692 0.7632139757055888 0.8558711343216937 0.1440072309533068
Ni 7.288061739388209 5.943535325444382 11.901779264741258 -0.6577498951328027 1.007338935318104 0.37698491569975073
Ni 6.91351482903622 1.764492732996368 1.2358453232809095 -0.20228719764112257 1.3763282344068877 -1.9204520819814022
Ni 4.772815092310307 2.152618834122074 2.263756489929083 -0.8594665649824359 0.22549037523046328 -0.38866338047894355
Ni 2.8349451913995103 6.482216973726765 3.546195411552311 0.39999551766231106 0.17158668323347223 1.4969926768691961
Ni 7.203863295497328 0.4602963291231362 9.592266684252467 0.17224977073876788 -0.7541616356953333 -0.8477780729009141
Ni 7.871146222336574 4.880404065363607 0.3672676806824237 0.8913122487381231 -1.013601114177732 -0.4984186322279158
Ni 4.65553602364307 7.367494409594083 2.0779659271521416 1.8041209767871251 -0.8320208100666574 -0.22061967740172325
Ni 5.419813170294582 8.257836062899676 8.934551677615662 -0.15166551882951299 2.218512101049476 -0.2801949658621949
Ni 9.028091410983848 0.7530640552591775 0.2843460164734953 0.9716183419880429 0.6963159283314588 0.3928807609944008
Ni 7.0227265899979185 2.7297904002088065 8.399468141833623 1.8705845077269976 -0.9732489356129304 2.242469897416654
Ni 3.6091642455817814 7.730252791691965 13.588656103879773 0.05807633531744192 -0.07385082454287926 -2.02148435203508
Ni 0.24280264601851775 5.698279844828689 9.74038431899963 -0.8366719356854235 -0.9455789805014876 -1.3741952472242849
Ni 3.4669557971493323 0.3809513267697852 3.4996074090303666 -0.28509008917096706 0.7167078617242496 0.14218971812859382
Ni 0.08317067821556186 0.5840441661424688 11.482421024836 1.2721808157629961 -2.708834586532819 1.9602823266044629
Ni 6.27026595070238 3.4817474156707036 12.40905716908596 2.6307969776021016 0.21324395376294245 0.9913980957181314
Ni 0.2723579039593905 8.089924146216976 9.660244710153203 0.34503715914856065 0.9081745717111004 -0.034725062186011166
P 7.323837684311272 0.6656545431104738 7.153106406796914 -0.15384504297933504 -0.2199725307360276 0.8797502549321364
P 4.510986657020922 7.915259939616576 4.157800858309128 0.693868752342547 0.2065935383259603 1.1361817998261463
P 3.7634689923888938 3.9913587771112753 8.568497357317622 0.18764245114475428 -0.6087950625006547 0.2882502320665035
P 5.769262826270147 2.2285168111251736 10.558829006869379 0.5260165964508424 -0.5640709801204027 -0.8360916377019213
P 1.6181527038546086 5.255193461265127 2.3731351928652655 -1.9952220759044412 -0.6014455641141189 -1.083333031456231
P 6.125427466694253 6.6263280010863 7.793595613049749 1.126347330234228 -1.127841398281251 0.43931025610153374
P 3.1319247050035535 0.2026199925510988 6.793031220568262 -0.34474996692544496 0.7014324236224178 1.5822538001315458
P 5.062389470286375 3.369747070889403 4.557366681552307 1.4340281602215175 0.30781247046914734 -0.6887795107450976
