# total energy = -340886.6210446531 ev
CRYSTAL
PRIMVEC
9.12367049445568 0.00000000000000 0.00000000000000

0.00000000000000 9.12367049445568 0.00000000000000

0.00000000000000 0.00000000000000 13.35341400338380

PRIMCOORD
 96 1
Ni 4.833556242399306 3.2865649717469587 9.344291487079612 1.0593538949328143 -0.2742305207486438 0.18495770522373953
Ni 4.720550463383866 0.8411649847835942 6.523489878705672 -0.3921156006936021 -2.158353429281709 -3.326558061871355
Ni 2.442014192954594 1.7319463128129309 4.810340151225182 1.2677904000047844 -0.17646406593043157 1.5423258535883566
Ni 3.5694717371038753 2.8057475525548323 2.990897841257555 1.5870792465446473 -0.36062987138049507 0.03280367679358221
Ni 5.400984662737369 3.303462008945134 0.4989288168930433 -0.12425010293103761 -0.28628050993464244 1.745195920316143
Ni 5.405345777089814 5.078207458635299 3.0861206746990413 -0.4827500724527234 -1.2575530385474922 -0.8922396456483989
Ni 5.373759630880267 4.705615015277271 12.034736832831328 0.6395896792840081 1.3733131017296478 -0.8595910063754422
Ni 5.621512894982016 7.922265302332214 12.570636586082061 0.8791900115532922 1.0450647320036517 0.26552965054053623
Ni 2.5123303191351205 5.045736316416993 11.75418214965027 0.2349828881019308 1.2929730699179989 0.8750549063389961
Ni 8.25498730694509 7.54887909966736 9.23065435008679 -0.0653741545304358 -0.5169948525682064 1.089841779109026
Ni 7.582691421404097 0.13908305316221292 7.328620015693418 1.9846684687583107 -0.33743594976253494 -0.3138224241086531
Ni 8.921799866699848 2.6177543282198457 1.3376778538094256 0.18925864659193856 -0.36401215758916666 0.6896364594287543
Ni 1.4185482416696755 0.9745448317079134 2.777203237987764 0.3373048235013094 1.9324164534321302 -0.6922237605399563
Ni 1.815920573272975 6.788412065377361 0.5325878609705308 0.5569940186689634 0.4815372830915449 -1.0751615513890322
Ni 7.834449976720749 4.2999766384787526 4.150467967386542 -1.5689442275068335 0.12905703740137775 -0.8637361388920672
Ni 7.5690332871245785 4.208785554895729 13.333504057999944 0.8599391337434803 0.46449035491158713 -1.7498899833577024
Ni 4.7802283901188884 0.42101541054247393 10.406916230834602 -0.46817731684487107 0.01106988466091642 1.0677979119351095
Ni 0.8092011186280401 0.1798904928362286 0.4614807125842372 -0.11089605022163482 -0.17370218691457828 -0.3111178806932965
Ni 1.5918067386423222 6.696418098817318 9.850025649569911 0.9009351165398677 1.4120280018013425 -0.8752071156461444
Ni 0.3536179464568162 5.340622460737841 1.5072531251249972 -1.0617833303099133 -2.3441086907060793 0.5502831823076909
Ni 6.335148130169299 2.3816976093060336 7.297827628790698 1.2637514540487202 0.9524885631371275 0.05825656964904806
Ni 3.182546007872017 4.804561218524683 0.844656613366608 1.3574604509681072 -0.23696829396307575 -0.9260187989813728
Ni 6.120741880624422 5.998867894180999 5.112194042472731 -0.43615936917737785 0.593669519713126 0.4309667692328449
Ni 6.802270920401133 1.17322187383937 0.63518718176338 -0.015558002339257077 -0.4245138145186496 -1.8511613660053796
P 0.26518403600623847 5.788366575478897 12.54107224518737 0.929287956650948 -1.8751669848913575 -0.3412897762909864
P 4.138761386161392 6.43532602889282 12.6982146911304 -1.1789631566577308 -1.8244936269062064 1.350709762507835
P 2.5495275225136083 8.667751270164652 1.6235881313940086 -0.11710423591487573 0.24182459361411257 -0.3745431390274775
P 6.381642353474859 8.121471517334887 6.050551661092565 -1.7599797634935366 -1.3165359448396037 -0.6672421508939541
P 4.714492346375448 1.3832213906808346 12.720061319408494 0.5510221173562445 -2.4075187795316086 1.5412917558968875
P 3.7458140346018904 6.536671757401096 8.502492407217577 0.7962071428021578 0.5336525157295454 -2.2533009265938873
P 4.67425696082256 0.9813145949914155 4.228251817620365 0.7645753748294898 1.486315656771324 -1.0772780835114026
P 0.21957754581049488 5.901792043323233 3.7268979291899162 0.04216892005856608 -0.5013653735610656 1.1296103172562157
Ni 0.5774662822848411 0.19351669427007 4.916420152196813 -0.35966442214343214 -0.5432414449695611 0.7278649067823336
Ni 1.7363074271653758 6.867587275315677 5.0136994608998915 0.45995030094938855 -0.0731828519415772 -0.5811191938519411
Ni 7.1739601204100145 0.7245754281161872 9.438352877305478 -1.142851241426522 0.5719226149543376 0.693808845638889
Ni 8.882458600825911 2.204880880957961 10.4104543901356 0.15261605566824038 1.2910321441415444 0.23221278155596137
Ni 3.695715961569937 4.408311098355172 4.789963346215245 -1.104509665533846 0.5250855999961408 1.3061582011497055
Ni 1.3312347179188473 1.3765154930886865 7.1820400427332896 0.2629932572719277 -1.0857899776371558 -1.2612230311999115
Ni 2.090643406466412 1.3953467483678617 11.824140627959213 -0.8156251423174533 -1.0241200114311846 0.018462577580561752
Ni 3.988248198980889 7.0467487869034535 1.612251058811691 0.6062010765212333 0.17629051646704477 0.47620738623819925
Ni 5.458016725116306 8.21711495197229 8.20654061821814 -0.46549205670322413 -0.44823455517435706 0.9795491667993452
Ni 6.958167072995743 0.7727821643170495 5.093459498097604 -0.6443901859964452 0.8800965825279616 -1.2636573516730174
Ni 0.6559608664267301 7.654731921251175 7.181973439940879 -0.5958032782266771 0.21138633172891338 0.06554127623591938
Ni 5.079566885494116 4.972646594497673 7.3502266914454255 -0.2361756228584513 0.04558205950517311 0.13153840906233474
Ni 0.5915559661645073 0.2424514993523655 9.244181103515524 -0.34785817353712345 -0.5621807050762253 0.42076566033012697
Ni 6.368184939939596 2.273408767780581 11.723563112481221 1.55580871856614 -0.6159134187129909 -0.7065188370063897
Ni 8.186568904164789 7.48641845352335 5.019294095462483 0.5665400104861856 -0.24145923985489384 -0.05328714145891467
Ni 7.27935675848416 6.688672102823123 7.324987882589427 0.3179341322841815 -1.955781867630948 -0.24964177566568618
Ni 2.280132912713116 5.448947796944068 2.952226252775814 0.0187256014339613 -0.12294372541478828 0.38025150226616444
Ni 3.023821517517455 4.866638670520571 9.461868224861947 0.10680748197455797 -1.595548203247607 -0.4779403097689059
Ni 0.8398338413023774 3.421522301247717 3.9909478929911155 1.547851411392276 0.22583695993660463 -1.6702158672648268
Ni 0.6132338065440232 7.7731024183403346 11.848911392534292 -0.12281491314640784 0.7369121045862663 -0.10413250624555614
Ni 2.3000863794260797 5.721845896098825 6.995479234618666 0.43157354957890837 -1.0075538795423873 0.7818786419946278
Ni 5.563714444306833 3.022024154489355 4.93124246679301 0.03855909122012069 -0.5931419293444301 -0.11566364681360726
Ni 4.235846360689351 7.380118572100059 6.194021374883765 -0.5670112936956493 -0.40243060946636494 -0.35697042025103687
Ni 0.8457551032578933 7.651210184556523 2.641211284287075 -0.24107691681481058 0.35669428377151474 0.11316839119557928
P 0.3728214474798824 5.726362112844558 8.27906284785143 -0.6716773038471722 0.38263877155141846 -0.157851850145883
P 8.496208023188364 2.0440761937993037 8.056288368005168 0.00829180769514701 -0.3454063695625213 1.1266381220017694
P 2.1113632614756215 3.1518266103308425 10.636194062794717 -1.4582063001296177 1.7270207920690126 -0.2937282244619393
P 3.9599556977111585 6.434970205755277 3.983870662022096 -0.20112017391621492 0.5891173815660693 0.6032265672739417
P 6.9827553641669535 3.9408324849857945 10.581191104666793 -0.012199370279669313 1.179271689037085 -0.17607737201497417
P 6.1932750586619445 7.742985183031924 10.326808581802519 1.885024851522044 2.522389241019959 0.3745858193399549
P 2.367583291516845 8.651839589347365 6.158620622166357 -0.4305332812398521 1.0840262008685138 -0.5128975425703812
P 7.148432091208885 4.1934669126410125 2.0152700298976853 -0.6208789902483823 -0.26583715447862605 -0.1419824872137942
Ni 3.1745810437931796 2.357373904570432 0.5552446711617985 -0.3953970996583513 -1.1586720105088626 -0.08555191502989137
Ni 1.1560693738757797 3.511892254513334 8.143993297207293 -0.30502590886294567 1.0548961162717767 0.9956974944244336
Ni 7.668545157923981 9.036557390392419 11.594088196399678 -0.07643452610965547 -0.06762489823782547 0.46149990482469544
Ni 2.517311843060716 1.6498880230935002 9.242311663492897 1.3492030960553214 0.40382569004167873 0.5206530181460839
Ni 6.478189031461407 2.0715840594324018 2.726366147670145 0.14143972733644675 0.7103510662682864 1.2697588365850647
Ni 4.2167049006236 6.992289599519054 10.538647430554972 -1.7285164027779327 0.625779255763477 0.8832652100639303
Ni 7.503972394975451 6.351588983857803 11.404442675392668 0.7885989914375967 -0.3960254772709696 1.5471201896532065
Ni 7.713789438413047 4.2864827302627155 8.563089999908096 0.4418990998746325 -0.34947873985968203 -1.039252496197249
Ni 3.170229053110928 8.491135262560835 12.727779032025088 0.6778476943239423 0.5257358319856301 0.17775861637213902
Ni 0.2907540340902585 4.920203738226015 10.460970327262412 -0.9103996043868773 -1.5701742432591927 0.09002460608926431
Ni 8.7893150518215 2.789069483441299 5.959908910088165 -1.3669059126517233 -1.7926700546377063 0.5902376112134415
Ni 3.986268362548921 2.9427485841789114 11.640517641646865 -0.5923508009017023 0.8828690030667763 -1.1424308660596518
Ni 0.9282422054764136 3.4310109182488517 12.618268531060739 -0.5048078235837112 0.11219265754587128 0.08843412167369286
Ni 2.739026152430505 8.64568111196682 8.297758160444724 1.288256638278936 -1.2493681887438548 0.10222731880304331
Ni 5.684484466656857 7.90641748720628 3.466225548094314 -1.019505652587625 0.9587551128721293 0.9012863292316995
Ni 3.0237941465068747 8.667094365910728 3.894322751440904 1.1397672031845596 -0.9900050720253467 0.05940508143119447
Ni 3.653893057403396 2.8160481762031795 7.109143742622071 -0.5849992456326377 1.2378193075639907 0.1172721289513077
Ni 6.125577425826925 5.823985383913926 9.634834764388405 -0.9313718357631703 -1.9905100151407527 -1.9147671157814832
Ni 8.352008415781693 0.3071182489491389 2.3090321380507075 -1.5391667391340846 -0.95434927049495 0.2744716902251725
Ni 4.5839782442588755 0.47056332626176584 1.9226246332858346 -0.32659772149645044 0.37533632435273423 -0.3101002380620595
Ni 6.065698778347646 5.967008037865649 0.9027150886423025 -0.1773138155252366 0.2710834904792299 -0.7656187284923396
Ni 8.260972434591958 7.050699336097195 0.43558682420835143 -1.07030293774515 1.6947516476226618 0.5674555803219196
Ni 0.1630007545742084 4.993357325836689 5.991302546856632 -0.24955847192326053 2.1064770521273917 0.5559282964086103
Ni 7.441685098565115 6.607124738634522 2.8805452255343558 0.9868135616712425 -0.7474412862523644 -1.127957612144141
P 8.523971351586878 1.7435242502883541 3.9554413056994644 -0.19697658406148658 0.3854939816120264 -0.9887609152056004
P 1.8949498044881972 3.3809310925572844 1.8807351263268817 -2.1454665460167113 0.5950964819676396 0.11333705556295964
P 4.847652312848107 1.2791476847847323 8.456983540292903 -0.6128581768264348 1.0458805430367277 2.3435191367511963
P 8.837852977250384 1.515377753432219 12.49880866775049 -0.2843799504778199 0.48916291795760275 0.8499845936339298
P 6.428346421194869 8.267897300268748 1.378393144414488 0.5646965295195435 -0.5791898380397121 0.4693821357862497
P 1.849185474798108 3.483426403509929 6.005790935123749 0.7935733047237366 0.3470163943621185 0.21721090883049043
P 6.889639186173123 4.298644582630516 6.196024020491215 0.3141880349781879 0.2750195923088425 0.9106538864895285
P 2.2616209858907093 8.588357092141695 10.714231551059916 0.19155875548002493 1.0118571349034315 -1.1449742013067958
