# total energy = -340865.8967450392 ev
CRYSTAL
PRIMVEC
9.28113924791510 0.00000000000000 0.00000000000000

0.00000000000000 9.28113924791510 0.00000000000000

0.00000000000000 0.00000000000000 13.58388544125583

PRIMCOORD
 96 1
Ni 5.66056670221615 8.697141930828995 2.4023374547548615 2.2480113960601735 0.01902024985624466 0.09698329679528458
Ni 5.264893182542632 1.404431241098623 7.929905434487397 -1.030740859181812 -0.9752227715098495 0.18731129305758062
Ni 5.9534701692685195 2.208688344854223 2.5703427774801875 0.7253917626514926 0.06738809963667104 -1.045978759177489
Ni 9.009396572785644 5.634718729981896 3.045806249504833 0.28018596700113035 -1.0551331719832475 0.13271854541336497
Ni 5.824601553658958 5.730769237936044 4.5173345571996215 -0.6387602414041773 0.43269146523343543 0.7544195173424104
Ni 9.076397115535764 6.014335879111335 7.620940028207523 1.8402478044166695 -0.7450025949038847 1.1524070034357572
Ni 7.844093879125288 3.3663526610823378 13.404061387142404 -0.11130845516870508 -2.652042003023807 -0.29765866986459705
Ni 1.8612303425081564 9.280981263456653 1.66197449651175 0.7101050116957512 -0.6405607849480259 -2.5065486744432763
Ni 3.5842459623906318 2.5720078138244697 12.839216833679782 0.9797276013587386 -0.17968334419867765 0.44444140668051196
Ni 9.040460545161963 8.636034911371066 2.3067472912972375 -0.33670729912662656 -0.9443978157091928 -0.3085030687782687
Ni 5.872742821874067 6.648553234463423 6.827097290571872 2.058730380870732 -0.9398536479819363 -0.7944467084676253
Ni 5.054137077158267 2.7748749510224378 9.885197336852825 -2.1561690200358803 0.30257307644707887 -1.927076015055823
Ni 3.6266793300944067 8.384822320899046 4.559553530591508 0.8268726902068145 0.31578469004134646 -1.2963615267742576
Ni 5.978928333662976 1.4483124664930775 0.0760245942414546 -0.9370107792165023 -0.5314884181986911 0.8215402222503078
Ni 8.44848165359375 4.227568115143726 5.035994306557361 -1.6683811280489331 3.503771347262985 3.0986819600175344
Ni 4.027355383712005 3.1518284132465872 6.941908692987177 -0.6023968722837948 0.0947729194075271 -0.0978700702756121
Ni 8.934534905266254 3.1469743775271923 2.149935022257553 0.31360388033994374 -0.7210782228778033 -1.3636308414448775
Ni 0.576425558760254 1.8438096445247827 10.049290659471602 1.4907374399881035 1.43597319976303 0.4645906279348773
Ni 2.3514786690280145 7.186246743770179 7.5824427915718084 0.29642505456781204 0.5610015971664596 1.396573357809169
Ni 9.022770694146347 1.2708385257162662 0.25042276553947523 1.253469355396422 0.23914190457562687 0.6568860044706106
Ni 4.465982014875697 8.40938021480635 6.92764543850617 -0.6160041786545842 1.3833758852822886 0.044690658039155284
Ni 0.2210349668742888 8.101097900360026 7.80160575270116 -1.2328686484269347 1.1828028421187953 0.6237023186297904
Ni 7.5093324749898 0.40640994131825314 3.7154237253940465 0.1455190396121429 0.5613330123639494 0.2899183637975458
Ni 7.360063915764119 4.154961764411743 9.807129963908045 0.1478651712468163 1.3055529634655387 0.4040321496255299
P 5.939260745393962 8.194642500772614 4.7319330541477145 -0.4761369380115799 -1.0961078146233962 -0.37297836564351894
P 1.7437218410870075 2.866229202620919 8.409620596307558 0.05061602238465477 2.346365862171372 0.43647587197653215
P 0.9790766387661649 6.051553246673045 11.725623078082595 2.177905383271707 1.0988930906780172 0.5547702715447671
P 1.7238973280915433 0.6087118571485133 12.797473054606888 0.2722787963389117 0.8848371825367406 -0.014290448480743132
P 7.5155415570094455 5.0105157236570115 6.9731787066502475 -3.1937428429791255 -1.225894531101947 -0.6258715583669673
P 4.675216013457039 4.113911286425348 5.197289365754729 0.3592910979644135 0.8564169795228348 0.27736752371572876
P 4.3681588093643695 6.565774755340508 8.291916262852606 -1.1628266561071845 -0.32551940083060715 0.07107506156995501
P 4.625070019208681 1.0194867181586047 11.563255119211878 2.2269319496820548 -0.05047641148299693 0.6177679554232264
Ni 5.004176705690765 7.072506384800415 0.6589682969514814 0.7442104380198925 -0.6170207928445567 -1.7101633541920418
Ni 0.6615725845668967 4.328834623239939 10.019052708470094 -2.330654364973386 -0.29532410819414945 -1.0889429214438406
Ni 0.3549915029071239 8.323678176884945 13.068363516077495 -0.8715857168434731 0.3191278954819665 -0.8586360986613406
Ni 2.6079165407811415 7.066937701374724 13.404251650492782 0.7503785145038173 -0.09816009071220515 -0.3779758188581103
Ni 1.743341314386252 0.5660900823221693 3.8269468202464805 -0.2673368789526041 0.10781484019314981 2.1489383066153955
Ni 5.4017807022851905 4.668858433212708 8.390371513932749 0.2915193897360786 0.26070111880364133 0.05157144431938859
Ni 6.570638072198946 5.300681254691748 13.033806122965458 -0.2880082912590266 1.0939694281241545 0.6432673852459115
Ni 5.442710525464028 1.2024550932487659 4.5661143677808775 -0.6015738621618671 -0.04663158381561001 1.612155729897301
Ni 4.548528465522541 8.096847138678415 11.77912977277836 0.7864909439556583 -0.6699621209282786 0.9561266741103469
Ni 3.4004794093427884 6.489901443665452 5.657674699290408 0.4880334323388498 -2.3321949699876283 -0.12994561065391813
Ni 3.9209007188908553 0.6995834895167676 2.752122238658963 -1.4457346500251682 1.3647739539103851 -0.45413549403982434
Ni 6.846046592155598 4.508211197520529 2.73496605313831 0.9157747526558615 -1.2819538359893599 -0.09297674673905278
Ni 4.717872128497842 5.151152823572868 2.383945021513705 -0.522720442198074 0.68888826840882 -0.5678949818521831
Ni 3.3471499844027424 3.012351455711083 4.00447459162974 -0.5865686470022866 -0.8897539031120676 3.868447363688396
Ni 2.8735891458818754 1.195215804795366 7.88848835150881 0.8898932569034093 -1.2054861426489238 1.1933086267461255
Ni 3.7438722727880993 0.2564870617900541 13.512854899002344 -0.21711552090320668 -0.762530576485319 0.9824840810579532
Ni 7.314326462561101 1.9687987440144448 9.266057191875799 0.8502746140705227 -0.027604649091146006 -0.08271830223583819
Ni 7.472254324513732 9.024515548286399 6.0567831685236735 -0.3934602876469546 0.16576930522074676 0.6755465569945913
Ni 0.528917264227865 6.376411675449844 0.5376582409783933 0.004257746835089441 -1.460864563688071 0.9689924743294216
Ni 1.675292002924293 2.503011826180143 6.134944280972786 1.2840785956418466 -0.16804807395259444 0.1935981545075569
Ni 6.561486869102725 2.884132519834519 6.87445151819615 1.3124352924076685 1.467098974633557 -0.7469602328508876
Ni 3.849612289902952 8.1187135022633 9.621493261343074 -0.6828744581145723 0.95437318175435 -1.1027088648796814
Ni 1.48343229663111 7.005728589387323 3.0810151785776765 1.9663969241426327 1.914917011095786 -0.06591974262126067
Ni 3.7091236882117804 3.013938530487405 1.9847687999654258 0.7525454402481492 -0.35216631399417414 -4.571124201240876
P 3.752735760573993 7.79181322289708 2.07249319808426 -2.924872300990814 0.24089179738719801 0.773765783079506
P 7.0416651597611235 0.3219116671307035 8.001030515428146 0.840341928337843 -0.09527145631050045 -0.0496711419728822
P 3.67197128862337 0.8923323289302527 5.816836952735734 -1.1537046392012582 1.3100860754492016 0.21007558333728982
P 4.407046781953787 4.860040616355764 10.752392628799504 1.2956375041240396 0.12169365505777106 -0.9236469563150868
P 9.384994988709542 8.748290288093978 4.818271778207456 -0.7569808503116834 -0.16807352787389118 -1.2975804867830234
P 1.6611753904401632 5.199600369376391 4.422369942513484 0.8218981198103588 1.0249453355459575 0.712087846453735
P 8.370650021580659 2.6714273752511617 11.16433691332899 -0.901201225717061 1.7955556037156173 1.3257170971182395
P 1.5954278014608236 9.214537589049103 9.24170162679963 0.49118843302806375 -0.715021218050446 -1.0298440583991555
Ni 2.084376768514687 4.914734368735105 7.047089057417747 -0.061229536234442924 -0.8626714450729788 0.11131128338218249
Ni 4.338245698229359 4.830322409140654 12.954923866012718 -1.0238276770017465 1.2584354411524454 -0.0688212325387718
Ni 8.74050341243705 1.6936965016462058 5.636144312938874 -0.07327232633158995 0.401602971358747 -0.6644373344553073
Ni 9.130060661481352 6.7437127530694605 10.048394101440065 -1.3718133772556698 -0.7131867359448686 -1.0717568965828574
Ni 7.886109595572136 6.966144531369693 5.099227634970002 0.05410886602926165 -1.1519640023610678 -0.10831903352307796
Ni 5.9636794222156215 0.15360377927258162 10.012314601525006 -0.24508912329799726 -0.9172359105824203 0.8129177706886194
Ni 8.548801485507596 5.003387808872125 11.896712523311852 -0.7228841657382906 -0.5583299638715675 -0.363936824266541
Ni 1.5311280701721641 0.06476750069641775 6.288157324291665 0.8257591454276617 -0.6949517009940805 -0.7667199319763183
Ni 9.366803956185615 1.0906452111999088 7.96602484330034 -0.7605942786945546 1.3855667222860202 -1.5629013637468632
Ni 6.130424366258933 2.8327428529544227 11.707257560144663 0.7006415522900062 0.8789673540195249 1.8132087980210065
Ni 6.238391856744062 6.375316501042792 10.658513907381375 -0.3737790071679434 -0.1726305511169543 -0.2903173990081774
Ni 9.29060580464406 3.661121637082313 7.380219765423412 -1.3707710520340843 -0.6487235232644762 0.37947065823608195
Ni 0.8579791208771574 3.3080856701715113 4.11102670841084 1.9236114535459903 -1.6571274095119848 -1.0468940719029067
Ni 0.9191269773468752 6.826936726866431 5.655908498530559 0.675955619507552 0.3345545144496819 -0.3734285658070601
Ni 1.7427566026265542 7.9141293543424105 10.867665303825236 0.7862734286282136 1.1319708470685923 2.04056065194024
Ni 2.4114069838275056 5.865429284308325 9.806818117636206 0.9836462196868544 1.0735859793717961 -0.5530070089967573
Ni 1.3446142999676456 2.866841757797745 12.421960025162184 -2.202337548172143 -0.3933348178126839 0.08988576651855487
Ni 7.439380530024063 7.217561306900655 0.7735272523848219 0.9878885399029761 0.49358135874027254 -2.2123710211487446
Ni 8.810111955258204 9.141940519456162 10.02244867724586 -1.2193798699118805 -0.9747216635037148 0.7899182244696524
Ni 2.255205413736839 4.848374224578939 2.2811415567920004 -0.8789421572085443 0.15217845391018953 -0.033593776795045376
Ni 7.0574895018291315 6.78932027032588 2.831791536202534 -0.7281107042445525 1.0336541761738651 1.2918258436874333
Ni 7.534038867121787 0.8954480073069275 12.044735553677983 0.39967670087031165 -1.668396811778217 -0.7924561604001579
Ni 2.623156171089453 3.7712145084082485 10.730087267337892 1.9178133588069743 -1.2950713472079245 -0.04596258277304342
Ni 2.813354553493971 1.34387180884422 10.666284076988024 -0.9281628419075693 -0.7487044692355042 -0.37101995636556745
P 7.262027244054807 7.71388877949356 9.1261700079946 0.6677008356979275 -1.1735358149945725 0.09825496441885659
P 1.8237809464703763 2.15108959595448 2.3735390084188945 -1.4167092093270957 -0.18265014013648542 -0.38754855014820994
P 7.43187208853842 0.6692378773023621 1.508911807645365 -0.15433072436650194 -0.6604009596024046 0.3147331088483805
P 8.274896510075882 4.957409046053993 1.0646645186773416 -0.43253334238901636 1.5415118423274934 -0.05250115522250959
P 6.72363764931984 7.758549620567613 12.294638575431062 -0.3078849755782956 0.1180246908466161 0.6888155061893557
P 2.309379422329781 4.472942869157812 0.12156064672724422 -0.07913289887742501 0.19320503283419627 0.09083398936443711
P 5.380276303122975 3.4211949116863636 0.6293382605572773 1.1442679192683907 0.879835101336459 0.1873912543658966
P 7.753528524345446 2.7635705236682826 3.9211104726332233 -1.4983836436794518 -2.5568106559226225 -0.9835109796605707
