# total energy = -381163.0711586124 ev
CRYSTAL
PRIMVEC
9.26723660811094 0.00000000000000 0.00000000000000
0.00000000000000 9.26723660811094 0.00000000000000
0.00000000000000 0.00000000000000 13.56353752261271
PRIMCOORD
 96 1
Ni 5.76173748312218 8.97426208451673 11.18100702158728 -0.19730388549391828 -0.9336570322529211 0.4442007514246156
Ni 0.42855593811642106 4.082403022628694 8.934546415775747 -2.8110842739333655 -1.5804272884457684 -3.735267562367896
Ni 3.258851516654063 0.08378971880753956 12.789031950666704 -0.147530670725533 -1.5376096790596099 -0.0830682293760892
Ni 8.711461791872344 6.587281444944138 8.099194937566683 0.19675778318246115 0.4852270732383063 -1.093455978822846
Ni 4.471719627960191 3.1450591196803552 10.22696170502008 0.09702700554902645 -0.464429933987297 0.3405004476204716
Ni 2.598755528052367 0.6520928031609848 5.491849608003204 -0.826281336479719 -0.8608151085905303 1.1766314232007609
Ni 2.041034701057361 3.796777526486772 10.514183019287163 0.8752279415817508 1.3300663752258706 0.16167250944355382
Ni 1.839694720875687 1.3062911224545886 3.1358085642068514 -0.4365283224810224 1.8874658568633689 0.25586873041200453
Ni 6.883768142263125 2.5775428237056928 8.60902175961016 -2.32566385373733 -0.27324810223071655 -0.8054428024678129
Ni 8.015918623661198 9.110953822879967 1.4620270318236868 -0.31065353946236823 -0.9970699492919279 -1.0860483735048652
Ni 8.172933411667186 5.070735260795643 12.524557068386912 -0.46248052357041003 0.26246258157943836 0.5856674753442559
Ni 6.119619622248383 5.475602288972803 0.3678759269669428 0.27877725957906185 1.2080726724291777 -1.116832191654941
Ni 2.743074202054448 5.239093146276656 5.105803410432275 -1.0821881192185105 0.21269939411338207 0.8771462416503861
Ni 0.44692174741054064 5.816877540292435 5.276324268912202 0.830266289269396 2.8732972571269997 3.4217768105670494
Ni 2.7161992162067605 6.634006851373118 3.1584187678176057 0.03440753094559235 -0.4892423650452865 1.5211885573891093
Ni 7.0451477986602375 8.092002635319652 9.259528938606131 1.498888608340328 0.4157941752574646 1.5440713755245536
Ni 1.3350288228386156 6.112261436468017 1.5984768953142947 -1.0626953006012212 0.3073833533515287 -1.7705300282055574
Ni 7.417903852367661 6.125374576114387 5.971157566807508 -0.30725531241409665 -1.01976764799976 -0.8129925897906126
Ni 0.6109092041585289 1.0170977402604748 11.42493366037739 1.1091348230106832 0.6846863145123305 1.1807552155611472
Ni 5.839350588803001 0.18261367538773537 0.10195998941152594 0.7046151922257736 1.2949888147964472 0.2976488996725842
Ni 7.941113490639637 5.638807590960258 9.99012820904646 1.0867970787454315 -0.47312951864382385 1.2162066143902215
Ni 3.858664131828447 4.972150398917127 9.205247027535702 -0.29877067198185314 1.6159540205974685 -0.7420342563041801
Ni 5.034111142150795 3.656860789821813 1.0544113413008638 -1.5015612700764849 -0.7014154543415533 0.3629608335065168
Ni 8.665839186586771 0.6971936630316538 3.5590043327321337 0.9767302092933116 -0.4331558064643637 0.7700716220573706
P 4.2516876317596255 4.228065445923158 7.080518986930394 -0.15150071111687455 0.06305347681705915 -0.40735941422655
Ni 6.05923430921958 7.985281139794835 4.448582118592632 -0.8176557995942368 -0.369273405988106 1.0806369726813065
P 6.944644618826387 4.22723139463823 4.133054030438735 -2.9460751603206745 3.2671133854514767 -1.122226108977003
Ni 3.805331185775536 6.52311509942366 7.300560250367458 0.34921931555070823 -1.0829573932843672 -0.06426318085444416
P 2.5016348895407248 7.077462652332957 13.057156270679881 0.21358873869687087 -0.41030255601527404 1.0308742994358826
P 1.441435232322459 1.9843655498647377 9.529659615321387 -0.3184239274364064 -1.256543109225739 -0.5345058648687763
P 0.7064099297301107 0.5486380085021376 0.07483293473106034 -0.12866391572801714 0.5189419489922483 -0.04940451857505685
Ni 3.4060893701533925 9.170282670947861 10.487978054638369 -0.5060005583402317 1.4024012773448558 -1.2563155665959653
Ni 4.041756923343192 1.9042317558561335 7.388221820584365 0.8149738818866996 0.989925882047979 -1.4964578874116488
Ni 8.335193455531723 1.5374345352176977 9.725720977593115 -0.052973981093870054 -1.010744361455227 1.2108150110610052
Ni 0.2664599243379201 7.3638943980503075 13.238391908000185 0.3606239578432241 0.6239730557926738 0.5825088751106162
Ni 6.165937270271398 5.936471227314644 8.480723357344251 -0.2002791660721583 -0.3839700887683323 -1.9381320157596686
Ni 3.405051439665482 4.356055249213644 2.4739082446587606 -1.1987863620312451 -1.2420950521212093 1.1697012717398307
Ni 0.7240667954320412 3.9763673026048183 1.6121896251621648 1.7369928156800603 -0.009371928133203214 0.5586534086492573
Ni 8.7224249326509 3.4973345807245404 10.791869273920218 -0.8104477118815719 -0.5726571791275169 2.3057447462159
Ni 6.501077611028557 2.324111707162001 2.457659072181059 2.033919749584955 2.500647478467493 -0.7017306715891269
Ni 4.902942676741083 5.52129903215037 5.1686704893955655 2.128990916959191 0.1160318287863034 0.5057223649781807
Ni 0.506822383970436 3.693818528980633 6.24387936284794 0.6315130729234608 0.40057144477043916 1.3975593758715221
Ni 4.18667796771772 5.229798108067955 12.247467623784408 -0.12505742932368138 -2.4683590507474324 1.1666617135825585
Ni 2.2008945306686045 0.454099222079173 7.868235016086258 0.5586243551835347 0.558438978645606 0.09499531983097834
Ni 4.7911798045606995 2.1655400234241466 12.753536581427458 -0.3797799619463847 0.4434422759920363 -0.2761552485751825
Ni 6.9369342780590495 2.760700485875931 0.17705982055376332 -0.31610916326030075 1.5153143579965191 1.2435250996995166
Ni 9.123751876485365 1.5276205317650422 7.425941326583418 0.24564936667684145 1.098965081566533 1.0524098595148133
Ni 7.19629642596223 7.293704348805348 12.448967000433866 0.7836673584639342 0.7886298446755321 -0.5426241231005364
Ni 3.4863899744189824 7.016456434458707 11.127580476445727 -0.2966312570413472 -0.439192756687063 -1.0860910538173425
Ni 4.462962089468444 8.687061158169945 6.905169898234384 -0.3737029025143693 0.4922937502771006 -0.4892120260279833
Ni 3.2555153115143503 8.824503542689618 3.2714438376091795 3.2045358198295713 1.1480368993925196 -0.8094256983749608
Ni 8.10899874705919 6.685291738159704 1.2163590792953776 -1.19172174187498 -0.11344992699174009 1.2549785929520965
Ni 6.878022455633619 1.457421215283583 4.778326147536307 0.15374425573541264 -0.5097224872765093 1.2470513676852202
Ni 1.4481076426018848 5.718440954197907 7.250796117090391 1.1338192131312408 -1.5250655238460122 2.093908985654394
Ni 1.8891354275989325 7.703279133124103 6.396469045425558 0.5890060527991856 0.7470538210059586 0.34732878339621476
Ni 2.992993035964941 1.7231221529522185 0.6880431937123411 -0.6296796192591478 0.005811464475454508 1.6884359898172794
P 0.7564771016407021 1.6707344650222267 5.443264267208836 -0.5489279538313773 -0.21021288024610246 -1.0347687493942823
Ni 1.3256596467379218 8.076869238116453 11.351975487590119 0.7497910174314636 -0.6958526155417951 -1.0007939351107344
P 1.1101222602394696 5.715429102335666 9.775445261753235 1.003632175890478 3.1801460781312976 0.9234201850162613
Ni 9.031060977020342 1.9408466072644825 1.5339278129263993 -0.48748912979960557 -0.7515290831684928 1.4594242316971187
P 8.490799623589833 8.635146099301412 10.982138613379943 -1.8213005738902053 -0.37123207237637357 0.2763820198740079
P 4.163009445698757 1.6012116568052095 2.5105425572637583 0.017444677839008667 0.6774103496762076 0.5927783753574242
P 7.677228931324844 4.343118187060758 7.9450187041003995 0.9543621260107562 2.1393421782865283 -0.4974195015394401
Ni 5.0979624016303005 0.9341189046466154 8.927208617915678 1.3473472737935053 -1.5666675156575147 1.5085053054944857
Ni 0.4871072650420325 9.16472232904834 9.245679980381723 -0.3035475245452063 -1.5126496666801628 -0.5282367440306128
Ni 3.1125311195681546 2.8419834172104363 5.460680184761787 -0.30080647146495937 1.6968406689412068 -0.06538572449466158
Ni 4.8795058356346 7.486064376819296 13.051324398750932 -0.4968091216489508 -0.5212436005422313 0.15269961652098218
Ni 2.215786979722823 3.1861593135543185 7.8703507261790255 1.0170715892248354 0.25744018866418245 -0.2831771884189704
Ni 5.805497373871414 5.9650699191511825 10.752073906945341 -0.32540987183593634 0.2104766754304504 0.9588787829341873
Ni 2.498446960184999 3.7064312378560476 13.351892387024169 0.07838110831306501 0.9335117649243083 -0.34967877168563005
Ni 6.194026264100479 1.8944455541129754 10.928792693195936 1.2741713638304635 1.0228547715655159 -0.4090429725765601
Ni 6.587902349789585 3.3846635193672365 6.298974937282999 -0.6428575514020025 0.4084655028065352 -0.39335127287291616
Ni 7.897177522396916 1.466706986255784 12.463290441167034 0.17939640908587814 -3.508062004218539 -1.6593565559528196
Ni 1.610441824358415 3.696348484544915 3.852912884857042 -0.5278055700304652 -0.5988747180631493 -0.16967841046716584
Ni 0.035380455506655376 3.018598410412238 13.233156846101785 1.5332560300766045 1.3222975299137292 -1.9045932605722748
Ni 4.819231729443786 7.742618552063217 9.323887115922144 -1.0731185528170744 -0.3569359674686756 -1.2436361713560842
Ni 1.3424426120379775 8.460838647987911 4.348809196994918 -2.802570837145715 -1.1912136918903098 -1.0780938945444787
Ni 8.506312977489499 3.1994670651671737 4.525392681592622 2.3730893942091456 -2.7414677991868075 -1.0661490634777768
Ni 5.5787466312089276 5.688285366629501 2.788785772810414 0.49575239824966233 0.16247520785050726 -0.018615558218658262
Ni 3.7469475958305605 6.090177611890416 1.1872377153202835 0.4361891939740488 0.9877990655129633 -2.032243390323797
Ni 1.316929909955673 5.393559444245364 11.966932620651498 -0.2234640888290539 1.0935698786928907 0.7857250123239115
Ni 2.7935713737386023 1.9903985208257184 11.411600887225987 0.6039426195043599 -1.151542341442617 1.0643845153781861
Ni 7.743563810186136 4.446383003371372 1.7544166838863757 -0.7069404979248405 -0.9887354612843037 0.4723185927067543
Ni 7.001119158052526 8.16058018541375 7.017733459648297 -1.4322965222423913 -2.6829911431071536 0.7117705723236323
Ni 9.150988284556522 5.201495967799391 3.52930005958124 -1.8417742683635248 0.3652995089420225 -4.908528526434527
Ni 8.72082170073654 8.975967256032582 6.133852244063858 2.224679920423085 -0.25382238940593704 -2.310287628391576
Ni 1.425338042523344 8.726215232379076 1.7744904448672982 -0.5920031877542966 -0.6849256842166461 -0.7350961344234501
Ni 5.089788699038004 3.224534939897516 4.007822156730411 -1.5775031728204378 0.2535069150480473 0.13134891875934798
P 6.302137845100177 0.7434501472937732 6.898048953708396 -0.9936015311273533 3.17487737353319 -0.16886182810314146
Ni 5.986217752842362 0.35182878024492376 2.7901415695102476 -1.2609661779940993 -2.325951817291394 0.45398688427710204
P 3.7222874795061824 7.545476630015682 4.904208581246873 0.4518919494212862 -0.6367090153021034 1.9215810533795226
Ni 4.667147111255374 1.0137059317017667 4.954746528771625 0.8727874504610582 -0.1465726776876379 -0.47344190767792016
P 8.116727622299523 7.760337508249693 4.036386559791903 1.3155213875321603 -0.23349164826838498 0.3738995919062077
P 6.237118913821772 3.9639121367498897 12.045519712888385 -0.7178458319834347 0.5458058632626277 -0.52913483036485
P 5.790206433647731 7.887178174214277 1.622972054828987 0.5578332267408069 -2.195519496809045 -0.7649792951361277
Ni 2.113726904157106 7.528146897762173 8.98843446929496 0.7764854960035144 -1.206988181115747 -0.330855725441856
