# total energy = -340870.7235437114 ev
CRYSTAL
PRIMVEC
9.22923248669374 0.00000000000000 0.00000000000000

0.00000000000000 9.22923248669374 0.00000000000000

0.00000000000000 0.00000000000000 13.50791464938893

PRIMCOORD
 96 1
Ni 7.313216208401226 5.3350963311439275 12.80987948508416 0.9119972878913003 0.043638562625557105 -0.3650477979425326
Ni 6.0091164156669 3.4490565073335993 0.45277046066127186 1.9789724468147982 -0.6328148224540198 0.8679108390950472
Ni 7.03981865169484 7.675011354755308 13.306809054869188 0.08267845013683825 1.3933934174192906 0.3726371802540163
Ni 1.7378552655117856 6.635956663242802 7.820744628880702 0.5850874344710698 -0.3121874596083914 0.09294049418447864
Ni 2.9098109061709665 3.2540705106237517 7.747397148800607 -4.142477595500776 0.21625394423385982 1.7203935165604822
Ni 0.26091686548895127 4.294131188487437 7.667646427156764 1.5471137618953033 -0.47388747985577095 1.0314152595410173
Ni 6.7772562140369415 1.414702915968614 12.248531717739827 0.3019624394462735 0.9689346245082926 -0.9139564685002002
Ni 4.019220037637993 0.23112951733819484 2.2472978288282763 -0.24983692239562777 -0.23950108768725847 0.6849004874056657
Ni 7.547361838946443 8.860533967306546 7.820583117310558 0.838552440537588 -2.1238661941381163 1.7184891004489178
Ni 4.614237891279331 2.4836418625739625 3.6606855791542934 -0.2549778431666189 0.6076861457071921 0.17896214976193695
Ni 5.3138414085130385 8.579679190675819 12.032810404193325 1.5372039589807591 0.4698991846319843 -1.1109567067107706
Ni 7.900149254302807 1.6457752120648153 0.9538614914164556 0.812773017580639 0.2430857197147233 0.04324364117998359
Ni 0.537569572526172 0.8799944055421274 10.12993646015775 0.16176095539230206 -0.47418238538837043 0.679242774899256
Ni 5.051565077065108 8.243605915521167 8.599854293094891 2.258312777986182 -0.5076532634523064 1.866125957735012
Ni 4.8748345023977695 5.427730138545676 1.7408058511674933 -0.3491190425274181 -0.12708500127667144 -0.2390837976441818
Ni 8.388135697718173 5.427462490800866 9.730020891556764 2.145532880478273 0.1600426871496147 -0.3200087554250231
Ni 3.9166002005850853 1.1866024327630538 7.909316651024154 -0.7538546459778759 -1.1467238370080508 -0.6344181623853977
Ni 9.040254813329684 7.388148347715243 12.287987609941005 1.3350000650820621 -0.24299187444933637 0.022864563302999335
Ni 7.883038257100173 8.861327681308394 10.70209165885283 -0.8517337151145524 0.1307267117943168 -0.35693159659330137
Ni 5.759880989853986 6.38845633315486 4.585950293422765 0.926328874022624 0.030639836373044006 -0.6360384715976402
Ni 2.457070901977207 4.669973226827717 0.9067610258695709 -0.703010309632499 0.6089894378996479 -0.09524754505110047
Ni 2.015147558366775 8.995816058458766 8.70685063223706 2.8251070705750188 1.6572955596587329 -1.7794522703958513
Ni 5.932458409860491 5.404297117025994 7.1167258467808985 1.785807008969286 0.7341299138554389 -0.27158588403694517
Ni 5.722548744069382 3.974273674975194 11.4506996323146 0.034300573054082864 0.26400832880000336 3.243077427548195
P 7.031300070023841 3.1008467913367315 7.323802138170062 2.60563667628639 -0.05581684985930388 0.07421283586798831
P 5.786627305869755 0.9364625421573367 10.290370055935979 -0.028602494228041064 -0.17092668105197015 2.0710343950490655
P 2.553811717876891 1.8574199735808947 10.236135393605041 -0.25506268957094136 -1.5676715314419971 0.3905798807753661
P 7.785955959595043 4.760068995270068 1.2755953079121378 1.1592317396670746 0.3444542900618971 -0.08425325082312586
P 1.8764967973229905 4.9324526013924 9.458458106287209 0.9454311420697136 1.9784965356196444 -0.6794893436924232
P 1.8254037657621576 6.591877848442489 13.070677293472833 -2.5191617352215974 -1.4379182393045429 -1.115586492173298
P 1.3946754812708164 5.443779774001652 5.93399969170129 0.02826619393454487 -1.658920753966982 0.0785024643822777
P 4.695279782561064 4.791669887622722 3.7830532051578363 -2.197052388513803 -0.32090272799420216 0.05350877055141752
Ni 3.0912207017561775 7.17732498789875 1.0550138804892024 0.2756662247539059 0.5962298242411345 1.2658224776451361
Ni 6.99740109875886 0.12228456291032616 2.526236616775472 0.08570181034419434 -1.1012111972882326 1.769754069271481
Ni 5.013199157231585 6.333394731584786 12.887036792373125 -0.3572974645731524 -0.4385839194584705 -0.2657052568864521
Ni 2.682162655361808 1.2348805483870995 4.209903366119217 -2.5448663390765525 1.9579649913251955 -1.9034601754090958
Ni 0.8295871059619612 5.035349315422698 11.78562848262938 -0.2915479289811689 0.38239091720667046 -0.4279215546486178
Ni 4.998210883522266 3.296995671351612 7.588638658735581 1.2084082013917254 -1.4011573776354256 -0.023890690574668534
Ni 3.9449431738371294 6.403398460701282 6.1142632166001105 -1.1349808375395098 -0.25401959301840765 0.2840050836369044
Ni 0.9862727103896008 3.1303895648241276 9.785295688399428 -1.7045220967458643 0.502939660026721 0.7542099724347656
Ni 7.531967479003621 2.5082193089335174 4.428785691824242 0.0007517905643599956 -0.6797737077020615 -1.2149655428942687
Ni 3.2600879702656713 3.965736634839036 5.627005882558534 0.34868529742410914 0.4122277980624449 -0.8463773358986455
Ni 1.9327120529655177 7.244993721172599 5.006992498321784 -0.6989155707378351 0.8528716853737377 -0.539088342033136
Ni 3.3936534241580794 4.986582050471932 11.318673614416475 0.10021337369680805 1.757988444095121 -0.8626328785255595
Ni 3.1458485293950087 8.030982855351645 12.246451448716378 0.2830519756950157 -0.13181171732837943 1.7144046459668991
Ni 0.6165238113983924 6.115787885822265 1.5339861324440445 -0.5133258883570514 0.4275885967892314 -0.6603371962440047
Ni 6.7942380019834605 6.661549325186117 10.804886851324751 -1.3666703996021494 0.364432790066353 0.5704743125435853
Ni 9.106557620181748 1.8286063094672893 8.063603577904349 -0.8865317966303441 0.09373110840657406 -1.4541609264156505
Ni 3.8022869258537852 8.886228150808236 5.001467879699617 0.42569035132525396 -1.6224247159234768 2.2742908985819925
Ni 5.641682208206663 0.8567468915972969 0.765302732275063 -0.6516826058928004 -0.011894694555056934 -1.5007991950994797
Ni 7.756283976851533 2.2697728560061923 10.045620037156766 -0.44189755721273577 -2.011883338610206 -1.308082928976244
Ni 0.04182134451133625 2.591891531500445 12.414895095450468 -1.6016031511924353 -0.37145267302761187 -0.8260964741624224
Ni 6.850130234485701 4.510547463247186 3.1094678174893646 -0.8117103806440795 -0.6449290892190506 1.118771317659183
Ni 1.7172463891614715 1.1143929170600273 1.6186126576597055 0.5736354838803863 0.8197561337666913 -1.7390453273337148
Ni 8.559153377418722 6.42339820770134 7.265070070803069 -0.18557219887928686 0.7845520750617327 -0.8013177245558457
Ni 7.006325766663362 6.752106555257449 1.9189346545706458 0.7902874348836132 0.08976312489776155 1.2702915691600833
P 6.8767104243150365 6.78552560642829 8.576459111428786 -0.5012465885950143 -0.27368724665066413 0.07207470647906297
P 8.522467177914692 0.3794765101301387 12.785254969638446 0.9567334544564103 -1.2405320785094636 0.3137218939750468
P 3.345329162371135 0.7951389953584915 0.08253148942008504 -0.7848181842389258 -0.6590290189555424 0.9008821518147452
P 1.8693995174692548 2.985933616487756 2.7101198466920238 -0.4138648194452357 1.4875724119965605 0.593883435496145
P 4.205650535746523 4.154206793347664 13.29761027875707 -0.7940569292283743 0.800190810040254 -1.5282935438650067
P 6.269888382204351 2.239399451586629 2.444878162816258 1.2611183873012475 -0.1687903514352577 -0.6839643487446415
P 0.3106744270955115 8.04133805430599 9.075278828046123 -3.089655845259524 -0.9439697270328388 0.23528756382654314
P 4.5843628654190685 6.933950124773903 10.470808936253814 -0.6052734225006414 -0.22821240214731664 0.8945418114190142
Ni 6.743809475168361 0.909251995742813 5.965297865225332 -0.6910058289724551 0.31360747988436954 -0.18201996275165425
Ni 0.04327864033565987 1.5544888726196928 3.18808426644917 -0.09635697606519535 -0.3814979730787559 0.516624356602665
Ni 5.67420602381728 3.7211619714788364 5.427777207631832 0.8278396821057742 0.17792676651888711 -0.565193009539988
Ni 4.41310522567145 1.653195515058838 12.066106706570856 -0.20703962472444343 1.3084212861522693 -0.47732247367924896
Ni 6.195390016821576 1.1978897842079415 8.326062648157356 0.2108967936870045 2.3410146251617876 -0.6291468866841293
Ni 0.0716686826738603 8.610034136630222 1.4950018540276866 -0.3946111134219462 -0.13733933201482798 -0.2721528122840087
Ni 1.8284678709785946 7.476730522014534 10.54865474429322 -1.0468735030776164 -1.645924855927946 -0.5362164198019796
Ni 1.664344428015031 1.602102483498005 6.403237872054396 0.4257497438082797 -0.5083289493630923 0.5550201827720442
Ni 2.2278536816295116 3.234809102230064 12.416137350155687 1.3576630538972168 -1.643021823348538 -0.1184761765617379
Ni 0.24578000113509982 3.4155820807672805 1.1344904939254299 0.9080192770801587 0.4499682500360121 0.6087318133628871
Ni 2.4438454116905968 5.186856397449907 3.291946358207296 -0.0029331144863949487 -0.9874090291633962 0.38692248652843686
Ni 3.715587515000739 7.141700150141378 3.3308355755280843 0.8200394693350651 0.21874534319714584 0.1614475379169413
Ni 3.7389097857294646 9.219366530002567 10.344482892396869 -0.4679101792264135 0.43709730761061494 -0.4106314001096025
Ni 1.110627390167538 3.3508943896166525 4.950840001460798 -0.14158576599600778 -0.050361226061371334 -1.1234211577263684
Ni 8.996139081599052 7.583918829194359 3.7803250440072977 0.6682608219664555 1.0163465381333527 -1.070152271099899
Ni 1.4268855029737257 0.4742321181019439 12.286055931562087 0.609549424168176 0.09728051632072923 0.6275890552787062
Ni 4.177076831679988 5.092828975928635 8.54478253936898 -2.172212189541672 2.3856137519284015 1.9371557678893285
Ni 8.283208552520358 4.151022708107692 5.778524039664839 -1.593130337834734 1.7254603895604286 -0.07551561383981187
Ni 6.335092910379438 4.305003224466242 9.383354303247211 0.47494060371063357 0.08083368361861563 -1.9567851120844815
Ni 0.34960425303964965 8.859260333210557 6.934193776514005 1.3581829309564288 -0.831883770268161 -0.8998542247708631
Ni 4.216688697911761 3.0800902472651432 10.134569534912726 0.17034149797246148 -0.5588958636773664 -2.3472166402074417
Ni 9.190922035192147 5.04177286129812 3.5533246853252294 -0.37385408338025294 0.11843041092546701 0.26609092236064497
Ni 3.8228496560412015 2.776577704651425 1.5263674009495598 -0.4633073903470795 -1.0865271129134966 -0.8444140415246877
Ni 6.001354631067431 7.8279766555301 6.412760594230058 -0.13931291080143104 -0.3829681298663792 0.6238866667264545
P 7.844736941894707 3.8796463533362457 11.166831511246624 1.015448708909432 2.414025727412191 1.7554026856458154
P 5.776032146868339 8.590754269771375 4.45541018196996 1.6418972228257915 0.787002079264122 -1.85521316747725
P 4.283905198789207 1.886464368508991 5.6652601286778435 -0.48155656636525457 -0.37733330017810496 1.919013806872979
P 5.200026512341039 7.831852933213544 1.1654767193882805 0.7680473925384901 -0.28326589147803477 -0.1585905280841204
P 3.588002603819932 8.199979333117254 7.252237745824352 -2.4837573875803742 -0.1826588818872338 -1.4003839898045107
P 2.0516122562888937 8.597823861927372 2.7866966352517313 -1.0941833439071735 -1.6701541607889558 1.4592949052081061
P 8.883514756429825 0.945165708479928 5.41463385751518 0.6481139147049354 0.7187986828150073 -0.7872494193882378
P 7.838765628415687 6.42139546423156 5.033994464080008 0.5125679271451044 -1.368464515388095 0.8585149997024439
