# total energy = -340853.6972840903 ev
CRYSTAL
PRIMVEC
9.32332491987978 0.00000000000000 0.00000000000000

0.00000000000000 9.32332491987978 0.00000000000000

0.00000000000000 0.00000000000000 13.64562843636479

PRIMCOORD
 96 1
Ni 2.278965605215153 3.3880683531477276 12.365423457067466 0.3685997769598491 -0.060749768384546994 -0.523426467126163
Ni 3.6370197786293645 5.209156141838698 5.742353372110763 0.28766273499414974 -1.1895861835892159 1.7178802632203256
Ni 8.694168428854978 9.083072286660219 2.4668837479228247 -2.047585419997506 1.3577396727714228 -1.049204465203638
Ni 2.604088596354231 1.8410863209229433 4.516157120211857 0.2742747437230179 0.4762176706508444 -0.19340994975615078
Ni 6.823527167523945 5.913645229257 3.4034248018373683 -0.6627157237785102 -0.010626626475910731 0.3729058605343707
Ni 3.522156414014962 0.3029642444930512 12.054780522063341 1.1956637572418634 0.24319576293002634 1.1510695155712565
Ni 6.71532065699515 3.2417294431649624 13.295468018087261 -1.1381600065984399 0.6089539566760223 -1.0388254359621594
Ni 9.171075151805946 0.3998429150862538 7.2005661618707215 -1.6126974613333838 0.560806193326202 -1.6836239131406165
Ni 7.2879965748583855 2.465096466510764 7.927155258987235 -0.3707057675592583 -0.053494115263398194 0.021297990146827837
Ni 5.401720097418721 2.3000083498527104 1.1421474089068295 1.3692538440586095 -1.3086555136502624 2.723459535534845
Ni 0.2935281072100775 5.283388455885766 11.387441155638754 2.7652091086678054 -1.9896615510975282 0.9019424747584596
Ni 7.7149395988670975 8.815772557480436 9.139309651028531 1.3202123652499265 -0.5171226363953223 0.7800284761597662
Ni 7.9387273700391345 6.779064230361113 1.6026385534424898 -0.21242428607512448 1.0450739879750324 2.41881877792546
Ni 1.964694964434124 1.100618522137192 13.834210762098987 -2.2167642651204336 0.6984080349737972 -2.102439134612592
Ni 4.56345061885983 7.532034608038741 12.780140804938283 -0.06106781384559804 -0.3732190208994153 -0.9544695981228981
Ni 8.362341967005044 1.5368848711957743 13.425769876651744 -0.5841476962656198 -1.0663838051964023 -0.5811122518734056
Ni 5.932711428983985 8.092832609788442 3.3207315703075437 0.10203937116195332 0.8008811512390595 -0.30440035946380484
Ni 0.8547465909195269 5.6060221192365285 8.85294278978926 1.002286974716493 -1.6108231271288065 -0.6942623882365399
Ni 2.0653309350224243 4.326311846216378 4.401793485820128 -1.1406478060173 -0.009433634609074077 -0.2931870072464886
Ni 2.382454513268714 8.31574398840579 6.478985554970998 -1.3209261034874993 0.28883053005000586 1.2340955788555004
Ni 8.211919440650435 3.9190503613879417 4.8701926746630875 0.2754589938391062 -2.2033351361987212 -0.18450544817766934
Ni 7.051314645142377 7.527969638316997 12.000416213697548 -0.061190712576707516 -0.18352225832879362 -0.25867251840938676
Ni 1.5127094893414605 0.6567023848751913 2.3944937229056116 0.732482608060003 0.13957310644135318 0.9503550617338923
Ni 6.15450400859535 0.4607494006395417 12.571840009006586 0.1494759673773619 0.8053435578857872 -1.273990358167909
P 3.2366948476380326 8.620971003888446 3.2137641296778763 -1.4153053870010335 -0.6879202480685959 -2.5963858471120833
P 4.3398586375138395 2.2214779829576528 13.04931452245309 -0.5738851379973471 0.22154193210567652 -1.5507156203139485
P 6.537422291718574 1.2018791555038337 9.787790727874746 1.8998521463428637 0.09244298572276982 -0.1705207038628031
P 2.330020133188243 8.097615475539024 8.741485235815574 -0.5820712733525654 -3.172200083811343 -0.8408924015246744
P 4.26648406937136 2.9921253849298344 3.210215672163896 -2.1897463417706935 -2.6230430446882957 -1.7224568268474143
P 3.3907907640622894 1.308482054124051 6.480813859013277 -1.7866662716457873 0.24963149125304102 -0.0410296642478003
P 8.306877506283366 6.544452078806177 10.246762170427278 0.9420653109212743 1.931672376177254 1.888430020548851
P 8.985391810112727 2.1355076026727984 5.37978883990391 0.7225854035509491 -1.2588817846612448 0.7289051751213899
Ni 5.831870345244588 4.371240949631702 9.636775238046967 -0.6516054727979617 1.4088074379815156 -1.2331095607931473
Ni 8.68319487527128 0.23163428153400833 11.574454003484083 0.12391303130659305 -1.2469868329958718 -0.5562178026245711
Ni 4.34340150103279 4.504788257646045 0.6180310972333392 0.44606865787128985 1.350811321082706 -0.5298809645022552
Ni 7.265676534688996 6.054007887882799 8.651833074468525 -1.4237835996753736 0.25648502383976474 -3.0946869799255285
Ni 0.6885061112853089 2.88746173791999 3.385562243374322 -0.5564237479877902 -2.2814735323733615 -1.0129071734345008
Ni 5.753218775123882 8.56819166078113 8.0221012042976 -1.0081141229212314 -1.5885149505499094 -0.4419104127285422
Ni 2.84071458611994 1.8068417480147696 10.328526798782136 0.6192779643098496 0.17171909504627847 -1.0635897873910327
Ni 4.618215830202768 0.8769976384835474 3.3012868435835343 1.547356988254361 1.823311690782963 -2.445025518227815
Ni 0.2818711539002246 7.58680914270673 7.733141526361959 0.843596687829715 -0.8238853254437167 0.37160565366570836
Ni 1.6249063829916 4.191766942421699 0.9451464829355745 -0.6417648325584561 1.0597105069412847 0.7870555582098768
Ni 3.1028678398721943 8.691231581464269 0.9469169823625448 -0.10288783520517765 -1.1117030979584916 0.7383984593238057
Ni 0.4972334362246943 2.423141503786348 7.891853421018406 1.2047760039557767 1.7702544059466674 -1.4812991773933393
Ni 2.642127762557702 3.2392307920515973 7.008271650384641 -0.4857042699850409 0.2385335815676666 -0.48674968053041967
Ni 3.6645888508018314 0.20821595367374404 8.195223230151127 0.6259926573258638 1.3549932203745372 1.242480460485086
Ni 3.177771433322852 2.609617328108804 1.3486851640715969 -1.1565099698605374 -0.7108097510722597 1.0248576609281577
Ni 3.482905215555008 6.286289208175267 8.631610782435358 -0.273303123838368 -0.5468931827895356 -0.5626972397013277
Ni 7.0744458145911056 3.0045813471964613 10.8707350227149 -3.8191739713745645 -2.9727696388927254 0.9669031959005606
Ni 1.183745288281836 0.32873205026588287 9.159314709588038 -1.5521682936000751 1.6060020515910793 1.2516963226563993
Ni 0.5617238079271523 7.541050263361966 3.453790336089273 1.2555982288139669 -0.6529686716940755 0.01646354487266197
Ni 4.955832076908672 7.040900491061672 1.3347421314595158 1.6716410297471276 -0.6685081620905712 0.959128179940832
Ni 5.248360723673403 9.261427494864238 0.894492857939629 -0.2744835172997144 -0.1902734610096981 -0.6689048833083576
Ni 2.8388312744598663 6.420470502293001 1.5677049868131308 -0.7492451722303225 -0.43136091934747 -0.7259005839671112
Ni -0.33811504459607233 6.5467922333936945 13.449049286968764 1.5923253254349352 1.0878769420731715 -2.5495205500191123
Ni 4.012526018337942 9.139879306189078 5.047708783612619 1.1344046533210657 -1.577013634778529 2.9101159686172458
P 4.754550812407022 2.484442365989245 9.660586077891832 -0.05255951926427077 0.7920370705848682 -0.9362008817206974
P 8.851546155696788 3.064483710641878 11.728745709734387 2.093265438533124 0.6792859694323655 1.913009766770744
P 1.0057350431046617 5.879456596299126 2.3242461979848583 0.03168781802158414 -0.9308092783914809 -0.676689412349783
P 9.3683567098612 8.835155750259117 0.3359147398843029 0.011692091625947606 -0.4718611934543616 -0.1315612918804702
P 2.5399254733610235 5.566360694474381 12.948132205016867 0.003132889202026862 0.3400366206101757 0.4142563984566995
P 6.454733721851275 5.702024397275044 0.5487196341475932 -0.20051339357015144 -0.7787768631408523 -1.3128291854119776
P 4.991064922272132 6.1483785840375855 10.595830257291938 2.290410686961991 1.3981139628234114 0.3776019804584594
P 5.553783528982105 4.025317620306364 4.378882346842577 2.6965943357128848 2.6285904568690857 2.0829470873262514
Ni 8.385006970201278 4.097228426416014 9.449147983080852 0.3615145879782935 2.592487026278309 -0.49589560869574595
Ni 8.874789205046115 2.027627408520749 9.82216396266861 0.17795402021239676 -3.324544888096068 1.2762719551132342
Ni 3.3463837668497574 7.642376160003956 10.622043718002153 0.9723652474563963 1.480082788487735 0.6331693775799612
Ni 1.3337016483839503 5.757442241371473 6.0237807357386135 -1.017114526647629 0.4427475639178568 1.28249376765323
Ni 7.512297128908166 7.725745332599897 6.733271787046171 -0.8784359069960871 0.679846469921526 -1.0329000716166599
Ni 8.786292203672746 4.743344175697078 3.0067462232730406 -0.04956109875757916 0.8048481063066074 -2.7101368502840097
Ni 7.433477738936562 5.043704415503701 11.674817732980927 -2.256239954617553 1.5518366212922694 1.1175688127106496
Ni 5.2941475729933165 6.444170394569772 4.950975556890194 0.5624031054996765 0.9245393862223691 0.9860520009148696
Ni 3.8344225399102694 4.99691997040345 3.198985727141327 0.8021134809842637 1.6285364852481694 -0.5840363674987361
Ni 2.819923571258729 7.076590179352576 4.59863125360301 -0.18800420535954718 -0.9993718579522273 -1.161343900914071
Ni 6.743299955469811 4.425213678345402 6.341587713711059 -0.9186880696479145 1.2841071348869368 1.5184179366225075
Ni 8.723639459337619 4.196074318594739 0.019794351413379693 0.14399051878275848 1.140315876599178 -0.3541671464742868
Ni 3.1149042525115767 5.411229888969589 10.749180307712205 -3.6178062002239177 -2.501031344169473 1.6501622910480613
Ni 4.93007172979588 4.224696926497841 11.80975981042273 -0.10009973093707922 -0.8408620625073712 0.8544344018751672
Ni 8.225531495223246 6.007689609035042 5.253443800490593 0.2956496098543682 1.8238601070872653 0.5176615396179277
Ni 5.1714526153370235 2.0298743298577677 5.758645882635411 1.8487622696455839 0.2132508957414779 -0.9968151529686446
Ni 7.38548126157983 0.6334350948807349 4.638176136802035 0.2594952714209982 -2.2135940949225685 1.6614512336983194
Ni 0.5350236696493337 9.713785902958895 4.698544666499946 1.079787480196818 0.0917269334923517 -0.5355633595990131
Ni 4.948970109671967 3.653960260244979 7.499187601555542 -1.0530176683021413 -0.3101526885665497 1.1859935811419509
Ni 1.6488952983449163 8.154981894570877 12.543498033187486 -0.11915829023042702 -0.6275492031797063 0.633239054475632
Ni 6.718844873864001 2.29860985109523 3.4677231130437995 -0.19125356553478032 2.0357501179254744 0.3437297531910467
Ni 1.0995276931063573 7.197308592098296 10.455444290353517 -0.7769202695480878 2.010671577690292 -0.3935523331401286
Ni 5.01713293911157 9.208219278804629 10.174043964368309 -0.22355202055716986 -0.11551709393341397 0.9751690354537788
Ni 6.5508758497655375 4.1241541891600395 2.088600089681891 -0.08733343241034637 0.6689051404186738 -1.072079827139915
P -0.038956581388378174 7.835266431960723 5.396859848070223 0.2483305130534304 -0.29010759699021654 2.9075770042454763
P -0.0911252467049276 2.618306667055283 1.2227410276354236 2.5433365326955872 0.1857902284273639 3.618168725769659
P 6.734330916771836 0.6655026713897638 6.8216680965090015 0.3974580959524381 -0.056496906645463994 -0.7861466732423622
P 5.035872822461808 5.976344590217378 7.289521870836544 2.0050213213830497 -0.20376069686285553 -1.1129994481724121
P 6.623103648926883 0.6594798034075476 2.2046559075701717 1.5008485602801764 -1.105272768952116 0.4584732021832298
P 8.915858451890795 4.454265159200798 7.43967868242723 -0.3936742034299736 0.34524773249746993 -2.0980518041781737
P 1.8202207194613336 3.6354907533211858 10.113020937251898 -0.8631823232711262 1.2065652346457154 -0.6252619498074264
P 1.4677337693008863 0.841796492425257 11.562909862407334 -1.138897913205729 -0.7064687004947445 0.3604195551419019
