# total energy = -340858.6108824511 ev
CRYSTAL
PRIMVEC
9.36352000515707 0.00000000000000 0.00000000000000
0.00000000000000 9.36352000515707 0.00000000000000
0.00000000000000 0.00000000000000 13.70445800665018
PRIMCOORD
 96 1
Ni 8.492965240151912 2.276281017925784 13.066555868687416 -0.27546953536206753 -0.1698743285280558 2.0229655645662965
Ni 1.13764892417533 3.4855515047689534 11.985672346723815 0.3236620359068942 -0.348780942461709 1.209161534617982
Ni 1.6288310803874921 0.8265085259677707 1.5360638810386777 -0.376617505058003 -0.3322289516402988 0.8457633564637305
Ni 1.125663618878581 0.4672583632174795 13.049220248198042 1.0520424488730657 1.9775531978697682 -1.4379740322431427
Ni 3.89076718603623 2.42237065326944 7.273503498398601 0.42867745897803594 0.9048329089323771 -0.20126724101704044
Ni 4.607628895578272 7.228936889734221 6.181012020984703 2.5516944177419796 1.0816420169070533 0.30769239995151526
Ni 6.241282188643753 4.168264457735024 9.632794928080065 -1.0506229428177196 -1.3597119660064454 0.12086473139857248
Ni 1.421288664838708 3.5754693850538604 7.657324473359204 -0.41461378179611824 0.6530316637215269 0.4735084992497974
Ni 7.152764656461523 6.972076815593267 6.310326910672791 -0.07854540180507118 -0.3126458873020487 0.1557186058529641
Ni 2.1348450519043816 0.9672890456057572 7.699451885125301 -2.275798079255139 -0.4852576693659256 -0.26938013463487803
Ni 6.059217910370324 3.922649970829535 5.381630548122566 -1.404933042627774 -0.6366015431899618 -2.9943424799674947
Ni 5.068604337034721 2.0914825918815336 3.517509197720363 -3.1028633450887333 1.7709092659218468 0.5540411066882264
Ni 4.181129933889503 0.7673217175453089 1.9404143730798455 0.2177410703023476 -0.25167191872183753 -1.3353502493326292
Ni 1.684937290807899 7.8451969429416755 7.927877758801694 -3.674777989623271 -0.19708996971089926 0.04299501550428724
Ni 1.5195588047522877 -0.031859375993897515 10.53441105512347 0.7510459728844872 -0.22970492753244312 0.22215154066521742
Ni 0.6918742207022732 2.2242666656418457 5.888558399168332 0.9486532485514371 0.326198943396135 -1.991436383609764
Ni 6.181130937685693 8.531280763022457 1.3303810605148423 1.7724164465949925 -0.7361022070904613 1.2443727924117924
Ni 6.743719295611144 0.5560245305715275 3.131591730684805 -0.5083598026010278 -0.35925921628521357 0.1727809606518895
Ni 7.073633550943689 9.276345394090912 7.603767949370286 0.6901781908648371 0.39094420609332026 -0.5909672902906145
Ni 4.211917186870527 0.13750890583276454 7.641810993815724 1.5897128275127526 -1.288592167241484 -0.38765679359130006
Ni 6.3089804365308595 2.95199942162883 7.462680306284071 0.6670171793673416 -1.8628560287344884 0.4285710153071587
Ni 7.0329584210928475 8.077459050665004 12.042751426847607 -0.02969598440253595 0.024342690510422593 -0.32208774944123886
Ni 0.2392941110654063 3.24575176363634 1.8762639628309723 0.92102211709773 0.2732226483094198 -2.2272682499755514
Ni 4.606102641856889 0.10689394161538106 11.208369117111056 -1.3595862390618585 0.20485830080240847 0.3371911807415806
P 6.490510994177793 0.40690860564044246 13.2542935035853 -0.6519546286072643 1.4733871216351142 -0.6335115914107283
P 5.817910642555854 4.676076225046425 3.2107762082652878 0.5565129652674867 -0.49099765717349636 0.18074932356934675
P 0.9918401944245667 5.439568263008632 8.872937808489889 -1.9254737035657101 1.7760630422086445 -2.549430047187835
P 8.740246433575232 2.2561119963560983 7.436915645303966 -0.8582951703821541 0.2739541271588056 0.9838490797262797
P 9.040122517507799 8.043984467511976 6.681389153604215 0.42645371185383973 0.4023259655677006 0.8865456805874151
P 0.27029953405691043 5.252288504227164 0.7705427683438103 -1.3864403831402252 -0.41686041173844984 -1.3782905003395811
P 5.89091800614863 0.029893036843649617 5.883035795212065 -0.6999167583088398 0.11327560619740491 -1.0436269711158608
P 4.0251430581562655 5.026374862903206 10.152029253150454 1.0776958877751117 1.1651113383763032 -0.6211335294613497
Ni 1.1726123069706904 5.71003353136535 2.5442733807130704 0.5609188076446662 0.2941120901639193 0.3123170432077202
Ni 9.158084139483146 8.50376137843875 0.5857190607961997 -0.8866590662368278 0.1788009415937243 -1.1045418043233621
Ni 4.60255386786668 3.0874801890809103 10.97757240023065 -1.5531861933416282 0.8107755275346359 -0.04230056054042392
Ni 9.243779072354902 6.245317865661644 10.930825964165424 0.9936133582018952 1.3828184701169217 -0.21097624077468827
Ni 8.2421820903372 5.710361254557057 2.9869000688417775 -1.468542134837987 -0.14416149714298399 -0.43995406033311973
Ni 8.280460159128692 8.325966865177287 2.6789882122485302 -0.46191025288923676 -1.8974214254141841 -1.038219169836728
Ni 2.0371929042951655 7.267317957243107 4.068141277260329 0.11736957376112045 -1.980093704903435 0.941499154005159
Ni 7.705334048240472 6.565671967316078 0.37522151841018575 1.1196159250476654 1.3373107154931099 0.9735081028115878
Ni 4.533741361127767 8.756220598291055 13.6446792422518 -1.9423619946806165 -1.048302265104343 -1.3025177761836406
Ni 0.13630382083925546 6.426164886365871 5.2559749219578915 -0.9145421658003412 0.08793738454293243 0.03646852723967913
Ni 8.319131495750234 9.043952197090901 4.712798076853293 0.6816719531660389 -0.48858339130504885 3.275099231870431
Ni 2.128243770471406 2.4904528054668327 0.0064739375641971325 1.1923388066336886 0.7145936435947241 0.8593727197170491
Ni 8.847627278218292 9.068849796140944 9.18964762825253 0.7989574518537854 0.18367395341530948 -0.658194438869389
Ni 5.735736393115019 5.979581174785284 1.3894536339961945 -0.6860721391162635 -0.2850949742669735 0.008136513064205342
Ni 7.001946443637508 2.804729982795026 3.314519325480391 2.550189808171995 3.630836808155631 -0.08711437442100481
Ni 5.952529966189731 2.4115557879430765 1.095715337268329 -0.28968953561619143 0.10895975243087042 -0.10296136875559041
Ni 2.669848480607783 9.245005693443867 3.4312121905278405 1.3207309567575578 0.3000107150365414 -1.8452905090468994
Ni 1.7311275337991983 5.746804073474984 13.045465476773044 -0.031567490393635954 -1.0578960794403651 -1.1863620202249632
Ni 5.599469090002839 6.25675072329237 9.025056614208994 1.2169964572813685 0.9025988773955358 -0.38643886202379896
Ni 5.74232831102823 8.75887983790377 9.412797158542425 0.21709186675412287 -1.6228124382801987 0.2931564111188693
Ni 2.028260106441182 2.4022390857788065 3.5351744141053993 0.9439949238438194 -0.12863383382103008 0.23541149099891714
Ni 7.603618133054076 1.7959792716783267 5.527377478642893 -0.9508294302671495 -0.34817776166007136 0.529656764306591
Ni 2.9850058287937054 7.609554604583873 12.15018002544146 0.8743820486416877 0.8574767882459168 -0.8145295952604293
Ni 9.013829754013054 1.7037860560909897 3.4357076163660976 0.9108575178599023 -1.3351856987303068 1.3036266929771032
P 7.919543289860572 1.68263386494618 1.5416005302745903 1.006374771632622 -0.045711385994185796 -0.115135285113963
P 7.034990304881436 7.082856617910328 4.120656577851594 0.008081234346237696 0.7169408036706619 0.1334536238071766
P 6.662949574134771 4.93418164731587 7.264637181534937 -0.005429398545687423 2.901975341787983 1.0866685235873672
P 0.7156706698281781 7.990986945652913 12.258006573625245 0.0987334467171719 -1.9458741215989324 -0.8752024876604539
P 7.5723252500058456 7.587643968338253 9.919820517489773 -1.126812957016737 -1.0073942140360714 0.43937530501151423
P 9.36052343676105 4.030395992743356 3.7907900764698397 -1.1271878238576523 -1.0982695981614052 1.421055145000617
P 3.6119402945310775 3.0097348844880134 1.9759227127254173 -0.31188509787662416 -1.1679655199956467 -1.5066692807270115
P 5.34092358230453 6.215242240182613 12.853725873528418 0.02442213759810633 -0.4412599236287368 0.26578418975350354
Ni 6.212199096259611 3.6307047881363 12.595259955748096 0.7366107712957637 1.0946566839991665 0.8929693247255718
Ni 4.184276076529899 6.010789786155647 3.8782931050078475 0.03246660516913763 -0.41161998927511695 1.078040415598724
Ni 8.72185648076053 0.818078549125065 11.352197462431928 -0.5449052058252294 -1.2895195641517596 -0.24242803152606635
Ni 2.0909769618143272 7.655801028693751 0.5417676353802539 0.7707714763378726 0.6539911994213188 1.7889470972601642
Ni 1.990459577157607 4.329672811411087 10.172366818075876 0.9535897666211063 -1.0608808731003019 0.9571463736241128
Ni 7.665679542043806 4.299597185932057 0.8991507122897859 -0.8032221406674103 -0.8488353105208348 -0.1319685546212179
Ni 3.3916915826637863 6.391323229327431 8.262116087560832 0.43532041821585027 -0.9513698761516518 -0.47146858600163316
Ni 2.182271279504408 6.533592548607748 10.277287866077176 0.7793749017361675 2.229906973149979 0.6251778747340523
Ni 3.9992341989718088 0.9212074194437095 5.080667359545504 0.16161954471843132 -2.030391938937355 1.3733454976294799
Ni 5.440841701696412 1.6322862191800707 9.141791615095377 -0.8095131158824446 0.6150546702571213 0.7253583383103959
Ni 4.469900883383052 1.7339459532478871 13.111068168937171 -0.5005960994952088 0.3288376665705627 -0.4959308328090556
Ni 4.072063655689086 4.315674349365275 13.39128367042319 -0.048462980597393956 0.2790701082291323 0.20083323880341541
Ni 0.5792020510410923 2.227815439632055 9.870512222417368 -0.4144934541681701 -0.06582204070113179 0.0765967627191326
Ni 7.427190693678025 5.6761563168625075 12.09264868731311 -1.6867863700289982 -1.3397815456311055 -0.9651072803424023
Ni 8.217387490004551 4.155792249410594 5.955340894822609 2.215879034302003 -0.03432062765874089 -0.11709343728159835
Ni 8.438010742662366 4.410498714006039 9.605057373485877 1.406322723886449 -0.24053981336441796 -1.5942539099162156
Ni 2.641046293816532 8.420809956857578 6.018421991114538 0.23829729718714446 0.08928669948197526 -0.3477345034750656
Ni 7.816694388782844 1.9344938195336467 9.328267983881172 -1.5600253277506488 0.020990486208738043 -0.400509224073936
Ni 4.508928033755591 4.781031918070847 6.761368594012584 -0.9761766507826865 -0.23110103654902134 0.8482493561103778
Ni 5.100683755743051 8.142310788544133 3.831519514735308 0.11939277483873631 1.1822158592670737 0.13764555040133714
Ni 2.6669832435602787 2.4636263213455933 9.364763238509774 3.352421817011994 -1.3832221333132435 -1.1664118023552814
Ni 6.420902588259017 1.7783477639644374 11.388637472293928 1.340320705964027 -1.757720792256031 -0.09765641160290923
Ni 3.386139015444277 5.0990732303438016 1.9626564779250781 0.08596534841822615 0.47799147472181547 -1.1801517776491934
Ni 1.7438619206769943 4.635813090065159 4.6374105065367415 2.2238224575187955 0.1419719456908329 1.6457916727841913
P 8.51781602160314 3.7241152612928388 11.532794477158482 -1.9060598178154724 0.26125287754205323 0.26913073762823325
P 2.9633854616607413 6.062673049162902 5.907594434846685 -1.902034755816479 -0.0926101074282534 -0.4776752290329773
P 3.462685789507499 2.890911818694462 5.236486628274982 0.04690849162608051 2.2861390561698305 0.11337870743417247
P 1.5364412308851303 0.4874536026425017 4.9540519726051135 -2.0808611513315003 0.8331423252656104 1.263158557659728
P 2.9164648641279216 1.7433094730109724 11.28440089758731 -0.6411472535791152 -0.9073595320089729 2.3172761438942673
P 0.9840310189421537 8.125503270569395 2.3727758344922822 0.40089077578307086 -0.2212891926649221 0.14359302623402367
P 4.1350052355365445 7.5065652507096985 1.8862127025792503 -0.38684843875739183 0.25314696060546726 -0.06197618459248036
P 3.10271463573545 8.460857730884292 9.309245993482465 2.1809308003615926 0.41932789944233584 0.6903460839012691
