# total energy = -340862.6284300777 ev
CRYSTAL
PRIMVEC
9.31165092990383 0.00000000000000 0.00000000000000

0.00000000000000 9.31165092990383 0.00000000000000

0.00000000000000 0.00000000000000 13.62854237201734

PRIMCOORD
 96 1
Ni 0.5780170031865762 1.4258930979492483 6.783034830723818 -0.6252370101067618 1.612237748088146 -0.6157025882537654
Ni 8.791222704269998 8.774126513269966 0.6303531369097117 -1.1597647293524092 4.557422021163435 5.150481675206704
Ni 6.034461905514924 5.646436102049612 4.085578074039003 0.009065709746694066 0.1682283082842006 -0.7289288292704736
Ni 5.910123431428093 5.598350736949305 1.4561010245414063 1.556542511408371 -1.6817395516337101 1.1023926191908433
Ni 1.8639690248487477 0.30999510032742256 3.409711449999688 -0.8701615828024369 -0.31309557324495757 1.2530520653533452
Ni 7.6167534915014965 3.840059637840948 12.156931948076522 -2.298706094201564 -0.8378397307412796 -0.6141594121363616
Ni 3.1086387735373138 1.3677604615586183 11.674741144008314 0.2981260964193188 -0.23396010326437125 1.2332537996804953
Ni 3.5395447292657765 7.481902163580768 10.809928087475514 -0.48906033094146745 0.5267917840539702 -2.199816581522502
Ni 6.251618915488634 0.6750015716733561 1.311123276297948 0.31441172095321984 -0.8350739950706845 -0.7301994684527812
Ni 0.3997864185159866 8.696877057640195 7.697932463799031 -0.7844957679025005 0.03715835421785214 0.36683137220551665
Ni 6.187135733203657 4.832709555692994 6.472454027556579 -0.19722109597212487 0.7331932609737825 0.4716390501412265
Ni 4.9288989091953495 7.56861225649596 1.4522441387504408 -0.2833489381101443 0.39449284267652707 -0.01774729668109202
Ni 2.380030027796866 5.666754124251175 9.104192877050858 -0.4644566734601743 0.7114113892120005 -0.3533587916403786
Ni 7.553275967510639 6.875704380196755 7.460986333393257 -0.33406831884188276 -1.6722454961003457 0.8860988228579837
Ni 8.740129675938205 8.8770481903524 4.980046876267284 -0.36606389791187277 0.43512861392001834 -0.42930892191444775
Ni 7.509948856005657 2.8080214368025556 2.3398707399183607 -1.3380375663568054 -0.9959718311317428 1.0208781074551192
Ni 5.2323842343985225 6.390064540645752 8.70167442016918 -0.18333971000434232 0.7756388317325029 -0.662233384825453
Ni 3.770538852434502 4.114138769591998 10.00901995970857 -0.36712833462064515 -0.8326545869959144 0.8515817629177205
Ni 3.9955362724419974 0.11909228998584018 2.564878402741814 1.1906063973236143 0.24328600865098746 0.006947377852110616
Ni 2.182352991446284 4.224137301336754 7.009758630802884 0.1625428278636491 -0.6096939201658402 1.25524933011498
Ni 0.8256724632596356 1.3660378061473952 1.6273981539730944 -2.2588249417359103 0.9043857940926295 0.794821832418857
Ni 9.17370807546678 4.785685718792036 10.586215675288281 0.939071518400273 -0.8056338354326964 -3.019836767583857
Ni 5.373939950946713 8.541083826909517 7.121854146323897 1.2712817009874944 1.350281930941797 2.428256526299592
Ni 1.643329457449104 8.238389992030418 5.538625808259653 0.2890495880393474 -0.3219363114650391 0.7151523443116715
P 0.8380969990174472 2.5006810881385912 10.697083915224434 0.4904862647547166 0.3780987175892198 -0.7744057306563502
P 6.318839723129825 2.6679276494411868 6.2849518321132605 1.0981505560850378 -0.5440225461099598 -2.6435478495098663
P 4.523180969074232 4.467227258987528 8.155469741019918 0.07075598766763944 -0.7786465082105751 -1.9713403841908368
P 1.99777744787187 7.776587978710397 8.631010164035716 1.0997693226353835 -1.6095653434623054 1.075788900560386
P 5.176793678695806 7.792222240523606 3.6337786360851214 0.16288349903251947 0.21008046843329625 0.9098601869436395
P 5.38602647377789 2.155116412647214 2.6564752500343576 -1.1231203386564979 0.18397297271296703 0.11539702341578191
P 2.744953625450043 5.881052457407343 5.864430229436669 -1.0689037434047783 1.101150776363942 -0.1313193510729932
P 7.724098202747882 0.5539398675281986 12.658980778793241 -0.7545344456537199 -0.7367565528450085 1.112746965841974
Ni 0.7390638673389425 6.319426357134729 7.314806451022291 -0.18257326415196298 -0.5508539672094965 -0.485646420163912
Ni 0.9160494842880156 2.8602225515880546 4.154947079536244 0.6617582449612474 -1.1653375954544962 0.010538180527162497
Ni 6.879168314320945 7.727077931026755 -0.21196762694303733 0.31752506977122086 0.6404039476551874 -0.31248545046478443
Ni 6.734148663648564 7.3832824692009575 5.450108323910307 0.0677807070893994 1.4719997543692842 -1.741569379307149
Ni 2.9922338259929817 0.18616224888291358 7.8877644342903945 0.28130362554534133 -0.6741753876786777 -0.1923848509257461
Ni 8.889767905442838 1.5876085386341867 8.82270912052681 1.0083452650954312 0.6398671013151108 -0.7828404916872647
Ni 0.9690821294963377 5.091852799446195 4.947174886360797 0.3753707771350955 0.5228667379679512 -0.1780676629721256
Ni 3.132960805613611 4.008870556489952 4.8750254219133335 -0.2072311719099592 -0.41622174971318643 0.6054531426116154
Ni 8.720845246983377 3.981885392264412 6.542367764629802 -1.0002681445142516 -0.3098474986213051 -0.958678236887607
Ni 0.3406136707230128 4.7035662697564815 12.769876022516922 -0.3750547885565734 0.8182744070148424 3.2644396952740555
Ni 2.2620141646517684 3.796387995253722 11.965314934113099 1.454903975229262 0.3380514718593468 -1.736572697423506
Ni 4.41699090253591 7.042652968671463 5.857057264276634 0.46904840659591474 -1.5260847091391458 -0.7261692642474655
Ni 5.853201309650754 3.3777082371195086 4.442455474174138 0.13909462414303786 -0.8988874899822196 -0.9379749429019846
Ni 5.954446889576323 0.6510408316508719 4.557452500106703 0.8873018420271492 -0.14178965447669772 -0.8146388671447843
Ni 4.255340643407072 4.363756194503677 3.0499176408116067 2.934265826390572 -0.4912506537245669 -2.038764736382082
Ni 2.294530449494965 -0.0017608331797962702 0.7474220051611801 1.5418455715178285 0.05329845431282434 -1.1043245461062337
Ni 6.786666374563694 0.5577120172962339 8.798818217885863 0.6055670424816603 -2.7601185815187756 1.2377056648042621
Ni 0.8014556528381859 0.9415196429167662 12.414375815545679 -1.6204387958416997 -0.08972970055666482 0.15537124981587433
Ni 1.66682275259784 6.204501962078962 11.415130455381366 -0.18062051130096635 0.07452316801955554 0.09829533073848878
Ni 3.693922589063991 1.7664667285735138 4.2509874466246576 0.1390259756886315 2.066401010042112 -0.6234302959153264
Ni 2.874227274498756 2.355000310254336 1.864671123324457 0.9401755500977291 0.8617386488460642 -0.2999181553227351
Ni 1.6316060890019146 0.5271502479709597 10.048487391927326 -0.6930526841991548 -1.17485427669568 -0.8575490362447489
Ni 8.35466457646255 8.685265429003463 10.862220456439553 1.3068146037867816 0.152237332172583 0.3013790561389777
Ni 8.334430359118832 2.212625168429455 0.3871505082833926 0.42731194608907697 -0.22865488900137396 -2.3965859346691887
P 8.459169234193135 0.587813791068457 3.0412633924916563 0.173951583921223 0.28906784287179244 -0.4256546129913121
P 7.6347249776834465 4.4696482882141115 0.5545618858064132 0.2706106646078694 -0.08059868478967411 1.61617307858681
P 2.3516294926388617 1.1399136763844517 5.9076735360838075 -0.13563803305300512 0.8999290438728565 -1.1896643451253188
P 1.6462998740771053 7.801319723425039 2.1945773267103585 -0.588476919768593 -0.4058568615390945 0.024859996466473314
P 3.6656617286690585 5.773372526729585 12.143862114913318 -0.7972944623290655 -1.2743451704041666 -0.1697869110205721
P 1.3688685480123242 2.7012819828628167 -0.18562217313236792 -0.24491094584892018 0.10661182102398413 3.034804187526967
P 8.271688455546819 5.837986072126762 5.514394099196808 -0.19090620949769055 0.4074807702957628 -0.5657648228830578
P 4.730942523318624 8.66607411655735 9.34982025956411 0.9521833731918827 -0.17733695545368813 -0.9989710229693827
Ni 5.673253656559465 0.18190496210447435 11.163288477076492 0.38740636814339086 1.0452195124139612 0.905984248928001
Ni 6.493880136211848 7.315177054726976 10.52740794420947 0.18366109789950305 -0.00012958359932880908 0.07003864988564067
Ni 2.2626380452601573 7.015304650061936 0.22051386011287877 0.4720509408676644 -1.2034963659124047 -0.4058059536965011
Ni 3.9120852573318214 9.245966486229442 5.483144198872132 0.6083487189918556 -1.6575166745306036 -0.505979218183993
Ni 8.278830491765243 4.273023468412007 3.833518203103736 -0.5664752186865212 1.5296251181922367 1.5302300987660873
Ni 2.161811489623806 2.394761059475542 8.49668773788449 -0.9024227568289876 0.5701953478505858 0.9264047215658819
Ni 4.479434833280034 7.922054588624607 12.789610204208842 -0.2853590265616376 2.190693793285627 0.8981405845138662
Ni 0.08050108411409157 6.713048462773798 3.4853090187648594 1.0627760332404859 0.881372878137224 1.4085300159504128
Ni 0.33525760914173924 3.882306597844839 1.96805652062029 0.7911145587705988 0.735379984212456 -1.2282977412268006
Ni 5.883547979840897 5.1250860814064945 10.734221572395144 -0.028363124523725344 -1.1639977935971504 -0.6295173826496706
Ni 3.5956381141155527 4.618783688571685 0.38637764126106 0.1078310381430659 -0.003362488714329693 0.6013838576382481
Ni 0.05371425805211415 7.431637872176537 12.988164398071518 0.9251407672517938 -4.117583660472572 -4.4018090876504
Ni 8.070119149131962 1.733997001984674 10.86888480496827 -0.8788951060206928 0.7011807126229278 1.4440114966864743
Ni 4.053007781620752 2.2235477349016977 6.934120090773878 -0.3616716823814481 0.6736112876450915 -0.7727687092735595
Ni 8.692789242907617 6.368191472748653 1.406206405676772 -0.042853604830416524 -1.5852247098344119 -1.599991069510309
Ni 5.595901772770107 5.985715413202741 12.837092174332678 0.7338532631552845 -1.943597923970246 0.45837832847657833
Ni 5.714997787416296 3.0003256506002955 0.4244660179857488 0.035399719655532576 0.2287191665804061 1.0906940998069927
Ni 4.843855601786152 3.2550458601895444 11.875625112919034 -1.0951781037202752 -0.2520331587159982 1.8000432071733257
Ni 4.16187960361006 1.4928159327625523 9.612360393555225 0.7998840774331127 0.6457410435973847 -0.38084105622104736
Ni 6.030243727670144 2.4018006675343786 8.150904238597633 -0.8387936100141168 2.374852142536523 3.7365556850517
Ni 2.9912467910006053 7.147930493424381 3.8658175264816275 -0.03425917829318616 -0.41935026803983905 -0.7050383958061213
Ni 7.271524035441493 7.372061929900829 2.8529995040070504 -1.3560057207994518 1.6109251999243095 -0.23897735397330452
Ni 8.152750738965446 2.0213173012749635 5.342538270712832 -0.6921445705625886 -0.5764395289880846 -1.7474474353544809
Ni 7.183761725977823 4.646374110103871 8.803383720308148 0.6629352959884841 -0.163422402255125 -0.154174915514928
P 2.401707551025664 4.595066913802033 2.476455897231357 -2.820631294191852 -0.010000305745821485 -0.7448534709205301
P 7.69703854531537 8.939026538552952 6.956934566574083 -1.270968797732766 1.5505053040753554 -0.7358461252155972
P 4.455317657522909 1.2197703942582372 13.358424502839137 0.2786852140858878 -0.34170449523090185 0.5317635262369487
P 0.3601253039591053 3.9261458501477517 8.317853758237428 0.5428781480928715 0.08869431731361499 2.2644399739298424
P 1.6234118362350152 8.39622247430195 11.846664947543653 1.2338736926526814 -0.6727674515875576 -0.23257864953581234
P 8.601786478940674 7.376438405810422 9.16229199149835 0.014097615743646687 -0.5816416420143145 1.317752333745208
P 7.9678027293561735 6.010242301598212 11.827407522376351 -1.1073800451031057 1.4816290499289324 0.28038908415087194
P 6.1470863228054355 2.63699434524614 10.463259050190779 0.7174761073488417 -0.10700802802113829 -1.4509143944538947
