# total energy = -340888.33561435825 ev
CRYSTAL
PRIMVEC
9.10929586135565 0.00000000000000 0.00000000000000

0.00000000000000 9.10929586135565 0.00000000000000

0.00000000000000 0.00000000000000 13.33237527483378

PRIMCOORD
 96 1
Ni 6.393869254056688 2.3894957722382 11.577860992892854 -1.6778170766508524 -0.701402855936063 0.9230859416052942
Ni 4.69166072733188 0.5673305751629879 6.190688237028933 0.8264353455590799 2.8076577647503194 -0.27372607030839957
Ni 2.689246254032043 1.7897944041467917 5.118858453267506 0.9036903106875017 1.2786494542064752 -1.080389889667507
Ni 3.8066835481927055 5.1298633933105116 5.135124011533205 0.08146694632724033 -1.203745248698417 -0.1859720054208668
Ni 3.5488631541548057 2.926579842212217 2.938415550016105 -0.11074435513511895 0.8609765738690591 -0.3524985005226123
Ni 5.206754957670258 4.717248738738886 2.7693342702261505 -0.01003270164565369 0.455488408523293 0.03345262323149077
Ni 5.531838390593642 3.301600433744787 0.4438303888149598 -0.755454386364828 -0.7255180038167117 0.22436371782518783
Ni 5.763387576052759 8.615772205409849 12.446625447680947 1.3329737786806528 -1.5622765856786707 0.472467973800425
Ni 2.4387315150843594 5.726094119769286 11.33089250273148 0.14543856408319467 -0.2379219161255967 0.377683227318356
Ni 0.6192462727816431 0.23826000354510507 0.22216661096669435 0.7157935774400963 0.23793220053824182 0.0037196149434323036
Ni 8.274738395849345 0.4571818834106334 6.866159815188809 -0.5186478147905971 -1.461720226820147 0.3234643180737913
Ni 8.76469097026628 2.8759230492487586 1.3867672832191218 0.5379431726850993 0.07577298126625659 1.0630997351284919
Ni 0.7138636154955699 0.5439105761144262 4.576818015544628 -0.29126305075089837 -0.31408030575573004 -0.04102786447558741
Ni 2.0884335518745423 6.790433329739335 0.22811953565678966 -0.07633373886573305 1.066995470638472 0.9979430959255006
Ni 7.914101382106615 4.316421512704341 3.9767941783881398 -0.543743067196328 -0.5077890176992222 -0.3869517971044756
Ni 7.607455163525622 4.1165635667201155 12.804252750149603 2.034285617564806 -0.04914098050102505 -0.21562273840776416
Ni 8.38311168588464 7.432019239108568 9.336048765024511 -0.22508722625477365 -0.1152574125141241 -0.21475267709798498
Ni 7.156417500013183 1.2411597473219091 0.5072265317081784 -0.5758790284989243 -0.5620567779038513 -0.6353291042354413
Ni 2.156871689895485 7.089063368171462 9.05677597979277 -3.4344862877139177 -1.2282175228081689 -0.08177830692007207
Ni 0.35279391021071405 5.389414553516917 1.6587872472752632 -0.446060944561806 -1.101958102756586 -0.8622045327388893
Ni 6.601379008364831 2.223925214981624 7.064851771333199 -0.9871987129248031 0.16874330024740616 1.2961668942649482
Ni 3.573968372893754 4.617037377582437 0.6242099279670035 -0.02424858813471953 0.34397066555725925 -0.029036753551982254
Ni 6.129289762665994 5.914319495242031 4.864597061029789 0.14312225724519223 1.176158083108768 -0.6316544835973315
Ni 5.426890195712865 3.2844749579722095 9.379552028134668 0.4984697971808254 -0.5733863439840576 0.08713931412166928
P 0.5213450289953686 5.807576769123383 12.56661673335472 -2.0279704739800555 1.1094646955462761 -0.7524875904270202
P 4.069550492006142 6.453097894202059 12.768201801789202 1.0323123174339899 -0.7521343208526595 -2.5154511191392293
P 2.6167635887541727 8.84576370131731 1.2573779372503646 -0.46428646643089716 -0.1992260422172956 -0.44615324716529614
P 6.672568153664134 8.044610260507527 5.812275343806093 -0.11705564206512745 0.33655149027505266 0.5119516337173441
P 4.744685937157504 1.3291646523425835 12.787067153025909 0.42101197201297813 1.6379757762841987 -0.14197760211778773
P 4.012553629288581 6.203211696652411 7.850769004282763 0.6446053873310447 1.9731499265957504 -0.12921156070137102
P 4.602344083741391 1.3680977818383255 3.8781477942198452 1.764177346514652 -0.36678200702481994 0.5440729397319211
P 0.3403752074869085 5.960713137853594 3.905199669433581 -1.0463124883678239 0.1970830277323638 -0.3504699001283577
Ni 1.0784039624130597 7.572256845235603 2.438624936325562 -0.3269237373773015 0.9835798852252932 -0.18078146235886286
Ni 2.1214092020323774 6.863426115572134 4.542246416793518 0.43478460031703836 1.275475684464184 1.0177411044880342
Ni 6.184920231039999 5.949736436627021 9.117730831458834 0.00045945613492178936 0.3670450308782195 2.324177756110107
Ni 8.406294843246984 2.4473215808575195 10.630956089315003 1.555944729923372 1.3161047708394558 -2.075343563947381
Ni 2.195048747854459 5.7669584199372546 6.769926483431236 1.3031536099954266 0.26180283650825237 1.1825516453399374
Ni 0.6415731563553595 0.2238910006282629 9.199872082886525 -0.4690430072792761 0.17784783365183562 1.0259730054795235
Ni 1.5078434860016805 1.4075319225933716 11.53258414992476 0.6540166533426156 0.23169264738643322 -0.2964998736698055
Ni 4.295661427977904 7.080382209442065 1.4149514438788846 0.46887691401505704 1.3012605067377718 1.0055247649275005
Ni 6.042204896503314 8.34188301389172 7.93916287622657 -0.7978827307323678 0.24256892797930485 0.12440796866514058
Ni 6.9363824642224365 1.0657511507917246 4.840505706893761 -0.6395703960102985 -0.2574144776325696 0.6845341052051824
Ni 0.5579288711497554 7.447969615745686 6.51311813213713 0.02702872198301797 1.3502809025005327 0.38310336989266275
Ni 5.423601739992705 4.60945844362351 7.422653061348267 -0.9800587594459123 -0.19184029127618574 -1.0466608728461781
Ni 0.8297748476594841 7.721977228106921 11.25461763768546 0.23997982709588997 0.23469543876849902 0.6004981125991852
Ni 4.721275047404565 0.865092497722175 10.621503373246279 -0.5913912652019105 -0.7928384834402411 -0.041737488948102315
Ni 8.306739351375443 7.908790662757991 4.376511892215715 -0.21640306821721442 -0.9675745109359722 0.5661743996166507
Ni 7.357960665687794 6.42180746373461 7.184283746255678 0.4714333618883235 0.4992395854673144 -1.2117619483553066
Ni 2.5685480870178687 5.492814168141663 2.5507102643275172 0.6090611716778479 0.04093761875462627 0.8728301307735356
Ni 3.4715525621963677 4.702919816722787 9.316450115490095 0.48586007883661486 -0.2774968502047414 -0.8136698183632955
Ni 1.2408409219750791 3.8850234905566228 3.9754341605515195 0.05145471623586622 -0.64936681327543 -0.3616187176563256
Ni 1.538049910289907 1.3137881613297588 2.304407663676238 -0.5485985955164165 0.4892950726600928 1.499879768609004
Ni 1.186321787667167 3.758677560255747 8.016450694945949 0.6612442814393065 -1.262685217567735 1.1769391842491665
Ni 5.466925549979076 3.1205896204060197 5.105473254278024 -0.9082738162931261 0.17541634139220758 -0.5912889352960914
Ni 4.427354514809897 7.551451214031046 5.695137089521665 -0.8973247734807901 -1.9641271542718497 0.33162988460371917
Ni 8.393213894731334 7.488460434793083 0.4899443760508735 -0.21998255803835662 -0.4884226973574685 0.055693951128194405
P 0.42379449309060685 5.8570766815426305 8.302403326658556 -0.3965448401095493 0.7196427759828574 -0.4265490997811235
P 8.463346361738287 2.0877321361115166 8.403902742216196 0.9170762450761044 -0.634480640192217 -1.0075312538345682
P 2.216628669187031 3.6031636653677483 10.590079036133162 -1.5230322954660673 -0.8918323829076511 -0.22050346353883316
P 4.244057268269579 6.695760420322103 3.5969283525133178 0.28712074644775065 -1.754949914379113 0.7027488284409962
P 7.020907618314854 4.326806109715372 10.704617497446582 0.8951447351103358 0.4184794353991116 -1.842652300093104
P 6.450465307766807 7.957297661954255 10.307566074448067 -0.4634464870281051 -0.1875817731101479 0.13790523182062703
P 2.394041310754432 8.931026708355247 5.738920918937033 0.4807659521431592 -1.997925076657901 1.1979916340440915
P 7.032348893618235 4.272797095962388 1.6378285799042285 0.5121814903399632 1.3410907513608321 0.5237810222521043
Ni 2.8456619691867897 1.9079237497950796 0.42548153464011823 -0.283544341950402 -0.8997632077189537 0.2836991223607114
Ni 1.437902314202825 1.1190314208948118 7.281876184920309 0.3639154841103023 0.9093338821265243 -1.3830298147967794
Ni 6.921333907852066 0.8707502812340621 9.546047178897052 -0.44046056765589303 0.24161607714773226 -1.14218326882522
Ni 2.5917403536758377 1.7630495121955754 9.319770453744939 0.6763047753168546 0.6581098495753828 -0.09059230566727623
Ni 6.448433934842718 2.3324351444512725 2.669088293746333 0.2567369919495708 0.06628252527731811 0.5525321262428677
Ni 4.155250745234017 7.0866585141268015 9.935219061181057 2.285300619428935 0.7428171572167916 1.54028079813387
Ni 7.5654613107003135 6.577093626232017 11.693665646297971 0.5977555168570415 -0.4489665482443752 -1.1022350105670564
Ni 7.8536612056432915 4.226940901792625 8.142974256511486 -0.34939440767599184 -0.7333840368283499 1.3798326480157204
Ni 3.3531317190881214 8.656955330924648 12.273371199565771 -0.8168425596643222 -0.6274211622422742 1.2519061246743601
Ni 0.0778380201750505 4.805472266854529 10.25763620327538 0.638086098155288 0.7111311389674204 0.9018969662325047
Ni -0.34472762893591774 2.6860762191549923 6.021273557019151 0.6534762074581133 0.25838686884816786 -0.6156028294511076
Ni 3.721393213267897 3.206144124903916 12.110609038149985 0.10681673794593863 -0.43433799969792297 -1.826876782426402
Ni 1.24504030725761 3.7744548602760153 12.671728895556726 -0.0033884568562586805 -0.28175151171603735 0.09864782898190108
Ni 3.3146085078954464 8.52800414207539 7.79798610172073 0.41763328534873234 0.6587436265046396 -0.0412068132556129
Ni 5.886946061892779 8.354654246356164 3.6966942691137663 -0.4819262909998474 -0.23514306782887892 -0.9422329468473901
Ni 3.428265189392492 8.683463381189647 3.3139881648634715 -0.9808254624086077 0.5801097787508203 0.6889787712400973
Ni 3.661007692578315 2.9495625950708404 7.238292760008662 0.3802273338964484 -0.3782087608045228 0.2986655138625566
Ni 5.14316296492113 4.8475481033404515 11.334985309255215 -1.0536298479648434 1.5496560687011829 0.6040554909331404
Ni 8.376817162608654 0.16923340502687048 2.376202577134518 -0.6819619736026319 0.4727549089132245 0.4212845089480745
Ni 4.833465132306193 0.6886190245335788 1.5136779898486674 0.1176235987534555 -0.5846632024494577 0.6292749276215615
Ni 6.2074839562999315 5.941109933671366 0.15103212144113298 -1.0563197360921808 0.5645944567240405 1.2538408798032277
Ni 8.048827864381305 0.2725829185256868 11.55743613024537 0.30330069864172277 -1.3107432494172264 0.441238326362182
Ni 0.0693162741190686 5.066052777466414 6.3030404673926625 -0.5280457110657293 -0.2905518836164867 -2.7348865464248644
Ni 7.4557034077302164 6.405565589637533 2.60462636326514 -0.7009976500778443 -0.3051632057717583 -0.2162413458283695
P 8.449955697171431 2.100803975331542 3.8197790715813533 0.939433529725382 0.20752067812592004 -1.1528152946177694
P 1.8506444989131832 3.532703263718342 1.6217370091849423 -0.09854575618639802 0.05380136209117186 0.34113499588067697
P 4.66476097735506 1.370803242638568 8.552158350351222 0.9917117703038081 -0.22488153800187077 -2.244721926675624
P 8.863982292564733 2.0769467300930424 12.626985857312182 -0.4704743404091639 -0.8339167415377897 1.511848510935106
P 6.502206106909486 8.160699123936103 1.4663479116469884 0.5964787070271469 0.05191725769458156 -0.42507637189033887
P 2.114413262993367 3.713632093396495 5.977250153128879 -0.7323504533575129 0.2945247522213057 -0.09055116801669566
P 6.988460307303195 4.428310990850387 6.068844120625295 1.4787103336202403 -1.3170252257711963 -0.23267506590436057
P 2.6369042413781987 8.880041980749336 10.283847290503047 -0.9510204632320329 -0.2872554722534021 -0.7875926616602694
