# total energy = -340860.70891810703 ev
CRYSTAL
PRIMVEC
9.30039415036847 0.00000000000000 0.00000000000000

0.00000000000000 9.30039415036847 0.00000000000000

0.00000000000000 0.00000000000000 13.61206693731429

PRIMCOORD
 96 1
Ni 3.1091310861012325 4.128268284060476 2.686831806188327 0.5731703713185098 0.2773657239435159 -0.39242876105864677
Ni 6.26242974432428 6.289410187938805 10.84092267196432 0.005805293827867421 -0.13337289116791223 -0.3385685207050814
Ni 6.93021664967078 7.802612227723098 8.686172929029203 -0.7284742582315583 -1.7494544384821809 -1.6108267266732321
Ni 8.858253472971901 0.3121723819866854 12.112984090570592 1.3963468436206599 1.8000704608668352 -1.3655830800752415
Ni 0.5416335681108874 3.7055374658560454 2.4237106333251752 0.2632735075165079 1.511828713440764 0.9722150950317773
Ni 2.422138866703026 -0.06782870504139951 6.012585814240893 -0.1369716642627641 1.1292169384725392 -1.2582971158023684
Ni 2.412233946865222 2.9959452885180604 0.3355535730404319 -0.6917311371742538 2.3696011785502287 4.824151091328711
Ni 0.4848267602523816 2.639414676328175 4.864449358416582 3.080089027506695 -0.4841343543947597 -0.9887120642455359
Ni 4.9951859299208055 6.483593118730838 7.3932442159252 -0.30709976067283884 2.0776138480387965 2.07354713416859
Ni 6.053477787520571 0.7154802569148055 2.2900537380377863 -0.3609453457383848 -0.6683071018233587 0.06531964714341654
Ni 1.8018118730300603 1.8773217736527206 12.280752041716305 -4.948536177175717 -2.1085460188412783 -4.321785044417273
Ni 6.440048673021356 5.394377450369853 1.0439711105892011 0.8590868130455139 1.0729205778736555 2.5654220517407174
Ni 7.743610526830111 8.252165382840419 10.602139700719524 0.40038066891587176 -0.7461917301159795 2.128954150183985
Ni 4.92412161773239 3.054063451960726 0.8908810415918667 0.6169989384676857 -0.4449021483670144 1.5738516921107797
Ni 6.2940417842573275 2.1058603606709037 12.664898314445525 0.6902496675327209 -0.35828014020139587 1.242123077145667
Ni 0.5026258546989448 3.9675016696789878 11.926226594518937 -0.4934869992542534 0.06132672393393954 -1.3219907973065876
Ni 3.8373519530496605 2.022482326543283 12.582273612249232 5.009372848847114 -0.9310545616330675 -0.8389576463958067
Ni 5.389215731581139 5.820075094328518 3.244749434528333 -0.15801614363788913 -1.5671573108097399 -3.512151858017196
Ni 1.5618710027056353 3.432189579515289 8.596796140633618 -0.043960721851666225 0.05589963938109728 -0.3404708799341169
Ni 0.4676387017056716 5.53802203900355 7.627249574662314 0.6383660912895522 0.08316593129621805 0.6022850292962789
Ni 4.699442694312976 8.908140787535265 11.603156940631825 -0.09589854837153808 0.5826060628101127 -0.6973320283007991
Ni 2.868390381874412 3.8246011125824024 10.75022522759036 -0.6421939496760746 -0.4842508253679661 0.11841009921049285
Ni 9.114163120161594 9.546947664511253 9.199184533946811 -1.1419017330290593 0.1130190101019086 0.7944649633000704
Ni 2.530348953381761 7.38031852804672 4.089894857533921 1.0492869976151156 0.46630478241250656 2.599268310866201
P 4.568679151665531 1.9671356805763602 3.164029453067046 -1.4286383566645138 0.8033481247223132 0.0027608505745887937
P 3.1790421494071244 5.110836331970662 8.06015409409733 -0.8320629761585024 -1.1531770488325623 -0.12811987029908903
P 4.326989807228893 7.953483222660996 5.889301648620267 -0.9756040661086681 0.5613037017879107 0.24168112605771278
P 8.499825580362382 8.701281419429685 7.206636456220389 0.19807238822882664 -0.4516278971266222 -0.0845332439573899
P 2.684623892601947 2.0707792736960697 6.980199758294547 -0.5917239659509809 0.2778966567463214 -0.19126025040299965
P 4.802435259837712 7.660725413595828 9.876494112928926 1.1024062460375983 -0.026545097478380086 -0.7474880803298998
P 5.854207541093533 4.485924243950243 12.974723276932624 -0.3849265391443306 -1.373233397531648 -3.021371716171145
P 2.972750105348592 6.517186142631449 2.2248923860569336 -0.8801081524921875 -1.5796001645587827 -0.8277592065768261
Ni 2.3831702149467824 6.94917085307871 6.65057053636837 0.7712934102796136 -1.4934491824923117 -1.5327238117222184
Ni 3.0185824480346946 7.103464393087324 8.858161399069184 -0.06199058277018356 -1.1315383875168643 1.0383083871164247
Ni 5.254387916662219 3.006082718211212 10.735497123313227 -1.3452572240336962 -0.17149438062998207 1.3228096936634572
Ni 8.591983186627925 3.5169719731692077 6.466113027805813 -1.2913381054177373 1.2728313048628015 1.3285499385813444
Ni 5.735525210529947 6.3247144843747725 5.238848818009634 1.9568915557553588 1.5613214208542532 1.771609377312665
Ni 3.5994664698465075 9.346245157375275 8.58351052749906 0.28465994361208397 0.644004263411936 0.878621540644332
Ni 5.222943283825021 4.606652661240888 9.120357182708053 0.5701056163502568 1.3058224150768414 -0.5029831116701466
Ni 1.3831360267028907 8.566174592684348 7.917649733794258 -1.0688394658257465 -0.5296909599786362 0.42404201708855366
Ni 4.294810443248796 2.870585274908892 5.289268115122033 -1.1797617412996262 -1.3781442045697039 -3.5638109769543846
Ni 4.056804054920862 2.541109509487245 8.722054779945854 -0.040374804272620794 -0.13620290441753963 -1.5101847500794379
Ni 4.588730801590702 7.7960647501965115 2.2506330871227465 -1.5647623282150018 0.4418898439032518 0.456690142140878
Ni 8.172033186293449 9.371263217810666 0.6131433691821487 -0.8610711904653945 0.38832219508944094 -0.7683497542702573
Ni 3.875297561442376 5.896226722151938 11.039577232294397 -0.1464621202517026 0.7739832984069509 0.8642182207348085
Ni 0.48697515131579266 1.639836207400765 7.133962245793547 1.21548747683601 -0.5127980408780394 1.0398559341092026
Ni 2.2900639684714217 8.933214650335943 2.3281667535263515 -0.4262449382771433 0.8069733801797264 -1.076948725196442
Ni 7.435218755091378 2.2215107627207593 1.4519170921117937 -0.018382359161929634 1.1212917700881915 -0.9258434497457733
Ni 6.61577962169301 7.844138487888165 1.617154405991904 2.813691115428593 -1.2231023130687904 -0.6417195811428175
Ni 1.0745675474740919 6.536437958654223 12.070950028881448 0.16043606593329143 -0.798067078829032 -1.922293506065515
Ni 6.215323247630873 1.0819241592972875 4.647567885506102 0.21581737091707348 0.19795566014530425 -0.37778324323133006
Ni 4.836158489257317 4.31601534205649 6.693624851302781 0.8551260286255532 0.7797605672103604 1.7937686870185234
Ni 1.8717973394896634 8.754200662506781 11.479369623684226 0.9973088047756115 1.183626366461355 0.8179090532556237
Ni 7.920513325172717 6.007245527883271 3.5443783748387303 -0.5553464557632113 -0.09379410043402557 -1.4636238716007632
Ni 4.895950723658485 -0.1549241067363158 0.3160329756248756 0.1418511038422525 1.4705982460360671 0.09347914029676804
Ni 4.581820608689773 1.059742719097134 6.576112510331302 -2.3648204693321335 -1.4724255290527932 0.2759076513407506
P 1.2372872446404992 7.566921637554426 9.955253571289921 -1.2228027795505005 -0.4156427372812648 -0.7563031075183685
P 2.3181139574205463 4.81096372133186 12.762877967488972 2.0332458634463824 -0.31725304705675683 -3.238919953736396
P 0.8082349484888804 0.06347147035218702 4.13281431675223 1.872478639425917 0.9659683427911171 -0.557675103896388
P 9.250878915105936 2.355492241766213 13.390203507807897 -0.7753297851325163 -0.9460651761092869 0.9617409349733307
P 0.45633965277520355 2.0039931428460487 10.130181895940918 0.3554275012439492 1.6681816104436173 0.43104235966578663
P 6.571128429072073 3.8565851682840075 2.560742641672789 -1.268141612696616 1.2067410981019475 -2.1532641876842593
P 6.543236546824584 2.6087419762107307 9.021778584277232 0.27558163545989955 1.5251274874321992 -0.6052191722239383
P 0.6146714239514925 5.074406687834812 4.405681372712128 -0.02871408010524087 -0.6095558519260792 -0.8259668905630936
Ni 8.74802520074875 8.615689891479157 2.558687254551517 -1.806296130061573 1.7791262545150004 1.1856590806206675
Ni 6.3110243040919105 8.941891918137511 6.632316652644747 1.1743061175016936 -1.899644658317748 -1.886418389435461
Ni 8.115300781588655 7.079394972861748 12.74975604129258 -0.49882795185119255 0.48430327587245625 -0.4208214532687269
Ni 6.438700115860341 2.1532179680080863 6.758431858264084 1.8825691908926996 1.6417660965645662 0.49632344026178393
Ni 6.766864525697828 1.1870651158854353 10.57589584832674 1.526900777282538 -0.7881328504344555 1.853549149511266
Ni 3.322891346713527 7.46383606808755 -0.017707020543845625 -0.2826082032893778 -0.1574546147074643 -0.08924736160360758
Ni 1.4549443704284184 5.624552906769683 0.7641854913735824 -1.096751875965298 0.6592876719335677 2.1383042239403176
Ni 8.488311692325572 0.7826886256621378 5.486302546780048 -1.5588914712565218 1.8877707896982974 0.004775052791140163
Ni 0.22484912063352855 1.5286871961504371 1.871740607084959 1.9100185453529042 -0.7096591824075843 0.2594618470799015
Ni 2.3109619542700566 1.9600394797911538 3.1744291538770297 0.13388016982163395 -0.4637532196352464 0.531620315790865
Ni 8.678058335077575 7.968670766412296 4.9442978929400265 -0.5561213862560228 -1.566508107261515 0.08424733728585491
Ni 2.0868503548976904 4.530752144061244 5.932860044921071 -1.430534288135646 -1.1852567029759264 1.748917077921472
Ni 3.994742524331503 5.205030724569048 0.568405682895022 -0.4214860834359193 0.32029106255213224 -0.05427701617600974
Ni 4.144264962108386 -0.018345957626340607 4.0945776060206205 -0.14242471695753534 0.2824544513203329 0.01641932189828785
Ni 7.860274671849282 3.0764960028046544 3.8666305240744414 0.036835423660794626 -0.5173344952958123 1.2927049038582767
Ni 3.6614535972821556 5.2844746919441885 4.715696063241189 0.48602051567387905 0.5429478249885423 -0.8796412401580981
Ni 8.411620641637747 5.8604109040342065 5.795378827532927 -0.05016633644174586 -0.4578810771251856 0.5207417212051484
Ni 5.597786372222076 6.876720782152423 13.098742173696147 -0.23869710372872438 0.8139058456335015 -0.48310462757866474
Ni 1.1116854207817697 8.085930136661156 0.11508772819991475 -1.2050619106273117 1.507080400122501 1.3008478446803855
Ni 0.7395050352481539 7.015445462246967 2.807080323137535 0.7129316825112689 -3.754213250232463 -0.571577572910093
Ni 7.319763661320013 4.014226850209624 11.169449797176147 -0.5670976827618684 -0.9308581293515452 1.7624775902147258
Ni 6.060015964652944 0.5698621246289188 8.591637211963166 -1.3682431434059081 0.37877080395557994 0.07660421891830033
Ni 8.187778753697582 4.186395747897356 9.037595764716814 0.11570427024355558 0.14401134471836488 -1.4025424309084105
Ni 8.397716552287966 4.2972006445617685 0.3108842773880601 0.12604344738603454 0.21178690960144173 -0.3458506561887915
P 6.783084413206871 9.079258740676824 12.626839241243403 -1.1105635850374098 -0.5373795868721455 -0.7638418390975749
P 8.368020393562979 5.775544806832362 10.647808356467463 1.4493809885285038 0.8249142809288631 -0.06828464330901142
P 6.394746452805445 8.150093556342858 3.9065812974596734 0.5828989114601832 0.23848575904886668 -0.5210499964741865
P 8.486163301262161 6.437546866977817 1.0922578273083523 0.9559454113374762 -0.10318814005441584 1.5758211571323246
P 6.16279462111076 4.182461681144876 4.823231871339416 -0.6313431230044998 -0.4041000267489879 0.6666132590607035
P 2.6700687756571924 0.7071945357096414 0.32391412968173505 0.04977064366522396 -1.7512017601905903 0.7719991780973865
P 3.279616612436247 1.600011919376842 10.424338484295856 0.01628819563706227 -0.7957291747244748 0.9465608847987826
P 6.852967575330121 5.421209087676957 7.1648748960817095 0.4652328895045665 -0.7634350905774594 1.3612515425794232
