# total energy = -340886.0266229932 ev
CRYSTAL
PRIMVEC
9.14187096613336 0.00000000000000 0.00000000000000

0.00000000000000 9.14187096613336 0.00000000000000

0.00000000000000 0.00000000000000 13.38005223341931

PRIMCOORD
 96 1
Ni 6.539884045986014 2.0719318624310845 11.290101543902836 0.6393189421211248 1.5386602318113114 1.6357836537288861
Ni 4.991735666130925 0.8082245621678948 5.568308881146665 -1.3156905661201728 -0.9360319602430007 1.1421752984054199
Ni 2.9567552451270536 1.7970449519227045 4.43270387264179 0.02266453147705129 -0.4129556773674049 1.586280661902752
Ni 3.8582534000059114 4.402432396145518 4.871101368559125 -0.5567726466867765 -0.053043915099857036 -0.7828736589180453
Ni 3.9934159585168834 2.6800948117000987 2.482013327997936 0.14670380394886345 0.6745947346042833 -0.26860263303890514
Ni 5.646074204377884 4.562022033205108 2.452924809572095 -1.12688314813304 -0.15777677393357345 0.7504913859325977
Ni 5.556995816137715 2.9950962509028414 0.5511615569911914 0.04916592020168952 -0.10884610967114157 -0.8388360332162779
Ni 5.857937058181859 8.211301410552764 12.544387232207866 -1.4155786952670781 -0.20474182982920225 0.48217928755091793
Ni 2.1144141356404513 6.724138450232792 0.2918011997039837 0.526779442758796 -0.3716604181630438 -0.13823407591495546
Ni 0.7850261510432792 -0.023979126883617047 0.04367071640222594 -1.1792323511587175 0.5117852833428089 0.10597495877093363
Ni 8.334003599280141 -0.04993289784152356 6.737752524100533 -0.43810569427047125 0.4334293718407245 1.0269168574500314
Ni 9.188037161410337 2.5458738658727005 1.3824272901074157 0.19361563800905365 0.46545863236212737 -1.4543347329893535
Ni 7.209562643291573 0.8399623947267408 4.817447729336879 0.5590295610417534 0.2919204818292392 -1.3643278675119017
Ni 0.9761232455197142 7.842829169542064 2.6000650470929467 0.5227374114789385 -1.9609983788348806 -0.7501070060099855
Ni 7.664708960544582 4.204181787835141 3.7015242542928277 1.1334741710869964 -0.346225523029707 0.3650079458435327
Ni 8.122652690236167 4.0678216442605954 12.210568166326802 -0.41552189543268436 0.38037182989411267 0.15151562351521003
Ni 8.159805252819096 7.594627379648735 8.88903765270591 1.1515310285887073 0.5173992870954767 0.7702803956340669
Ni 7.272806104893122 0.7937886341229388 0.48860647825442954 -0.7234912031946702 0.6662188518357623 -2.0767581849067205
Ni 2.214810159824928 6.8271216238294175 9.186100913193048 0.08161221365585299 -0.051600240674795 -0.25878924649290913
Ni 0.45231050895743197 5.166967043982687 1.5751662645641396 -1.3878992270739388 -0.5310047936940532 -1.7159357378994446
Ni 6.826024599343701 2.1101540238875858 6.965574341610465 0.8340625230870347 0.08073958124291257 -0.19260082359129413
Ni 3.360588242060679 4.664822369387446 0.2212670962077781 1.03625124747708 -0.7357147418440555 0.42490770752295853
Ni 6.134094688719527 5.726988902070182 4.908793301514196 -0.46982436552999085 0.7641390586230196 -0.4219717648230862
Ni 5.749121371069509 3.38058151331286 8.78416485443264 -0.017426423006563538 0.25786519201674296 1.4039832771199947
P 0.537445094171451 5.993702980159974 12.535368776748205 -1.1399852327326367 -1.4768961632296371 -1.0471360127103837
P 4.426219543744135 6.182528319763905 12.430884507980291 -0.2711128010552686 1.67398587583022 1.1485233521106348
P 2.564815821992737 8.568611427421303 1.124726182354854 0.9293290943015285 1.371952216826379 1.9157035115528236
P 6.554639025318899 7.892752925512872 5.704197304192352 0.28096089749394193 0.192430616562017 -0.4008249555421419
P 4.856646242585668 1.3268785410860957 12.542687758442076 -0.27018334726246374 -0.7091197649643465 0.761190774627973
P 4.3807113113283345 6.542068953086732 7.655985787508993 -0.47394610100784823 1.3353363653755583 0.27673040435236207
P 5.273341851614318 1.1743829957008056 3.5112069613883232 0.0504337311705196 0.9840061741294345 -0.13615405345747522
P 0.07962020879915148 5.866347579239017 3.530005390138144 0.9311473784571898 0.4394429250246561 1.1911026202337422
Ni 0.7640382442573822 0.13745076875076148 4.927097155058373 -0.4599379596542143 0.6273368300585841 -0.9422355179505514
Ni 1.7667305086340754 6.8748421889580795 4.666734848740878 0.3205312035873964 -0.6560046303069218 0.20930682349206534
Ni 6.186386189205341 6.426131748687939 8.927063263942054 -1.3829673369899602 -3.5485689631936497 -1.6233847658439007
Ni 9.137510041972384 2.9373470536005883 9.96036525403145 0.24409359215394738 -0.9898865441696113 1.0288562405645894
Ni 2.4723092322347036 5.684515770731529 6.886538298349958 0.15677584347288484 -0.7381274650506061 -0.7007477388505674
Ni 0.3120202751628079 0.2349268794290898 9.545302383112375 1.097094861127014 0.7914380035482886 -1.1302178689332276
Ni 1.3955339901505122 1.3517809969118575 11.330655796578556 0.5167338855973359 -0.07713643727268651 0.6996483351388014
Ni 4.43933812821916 7.1491257359993154 1.4212829832044183 -0.36322719979402607 -0.6535474270156809 -0.08331479816925651
Ni 6.027893576631468 8.776771823585984 7.611175994015766 0.8621034883846509 -1.745423977166549 0.2161672980573245
Ni 5.882418987954763 3.070233286303698 4.962273245192869 -1.0286089004404735 -0.4038760836636399 -1.2275001850261698
Ni 1.0762541554534761 7.78220942483552 6.9911304411923005 0.6733161250021759 -0.18522741394535844 0.19839120502082608
Ni 4.992640711331641 4.568942429335835 6.982407268156712 2.082242862170375 2.6405298886191493 -1.6956152811745377
Ni 0.9427005661882221 7.773826329390504 11.293553514284557 -0.0036746206381098 -0.15480252179659792 -0.013577995794750808
Ni 4.966979480236592 0.45933146566601674 10.377474989803456 -0.15611224174695693 1.1239225228428193 -0.14537351517321417
Ni 8.14949322265336 7.751291618079747 4.206220425004431 0.541093802498939 -0.8419735504039951 1.035931402243816
Ni 7.716022280863965 6.470305267979453 6.9547905909158745 0.23327721826473372 -1.0097354605747384 -1.2076145018458364
Ni 2.568088611708457 5.3022484468129445 2.4260979899609727 1.1935739645923702 1.2027024092561998 0.6584019268945048
Ni 2.6444963671386024 5.398311224278841 11.393809667847105 -0.6158792230409458 -0.005239651132384525 -0.9983040788093451
Ni 1.4696197104192246 3.4917923705523575 3.5104710407958213 -1.2225029889218946 -0.34824075368752283 1.369448733678235
Ni 1.5151553684471681 1.0460859820962758 2.4801803829197184 0.8814024458235789 0.1999462082127718 0.34867012791545754
Ni 1.2627483180252594 3.7113983888513467 8.082715513833662 1.4432671623212823 -0.23902106272704643 -1.0775598764178798
Ni 4.052006207924852 2.62517959431928 7.007401142689617 -1.6380763064178048 -1.5025264622032317 -0.3861861225830446
Ni 4.306159355653192 7.457151927847044 5.5088081014155525 -0.28776377934838826 -0.8341211442391119 0.9740128103621483
Ni 8.319742280965828 7.347915714681836 0.47583254230533384 0.7000622827477685 0.37037512369271697 0.41341333373011385
P 0.5682833666520097 5.877025284233324 8.026492094753626 -0.6032211679573031 0.7515889898721507 -0.7498542665692313
P 8.853197862757558 1.9484434728222781 7.830380684190398 -0.459971126884995 -0.8647494106479301 1.649153647277889
P 2.5081087979519143 3.6587046460541037 9.933524721614255 -1.411269269258447 -0.3095225111817186 1.8760046503013048
P 4.041035963067688 6.170168510558167 3.6526207310937346 1.1766057121691478 1.2391958761965431 -0.025085482213718084
P 7.227837242849466 3.993031999946882 10.150013361999667 0.6446663224759671 0.6828538892892819 1.1119663789222074
P 6.413881641930774 7.930618554011516 10.156864279912964 1.3451695494158962 2.48023909001447 2.536847582537134
P 2.7031323259001425 8.942614500214155 5.594078900503214 0.42024861148439235 0.38897576951303975 1.1753381583106337
P 7.53736270149434 4.0251565336369435 1.1545021694584106 -0.985888992974444 0.3944169951332691 0.5082960392426278
Ni 2.6653489742379275 1.5911243140830271 0.3577625394688949 0.6042773771359593 0.9830106429853845 -0.26205274773552933
Ni 1.6157890812702167 1.2141684170494527 7.28292249902557 0.8763584556417681 -0.14026781851553263 -0.8652600317357614
Ni 7.189706500100107 1.0319800755841062 9.386186294955786 0.39294066769805874 -0.2605219129132997 -1.5101505544073925
Ni 2.9278212243162844 1.581296803065151 9.475003225693525 0.6458307750977136 1.1294637643760224 -1.4692563872961921
Ni 7.125119183503555 2.1513472933262356 2.4380327021784955 -2.0389830230404753 0.27984118206720193 0.7716135126231937
Ni 4.2725721226488425 7.440532006888441 10.50257783378041 -0.35869640180320805 -2.253554951586222 0.4253077711748546
Ni 7.689876530621058 6.705004514827755 11.766859243524458 -0.3471107538481377 -1.7242134045272046 -1.5853496654480503
Ni 8.091488052971108 4.20951149846158 8.169578826799757 -0.681616160227439 0.576598166053136 -0.8566784607143375
Ni 3.0598938305258216 8.91080079012838 12.361361495385088 1.5143429952221854 -0.7316755387776753 -1.0818680168749304
Ni 0.22575118379314377 5.5130417017433455 10.10667540969144 -0.20046068595534508 -0.5596060023705137 1.0069566122780207
Ni -0.10643605816541678 2.5182928419276482 5.603083643156802 0.15603408021085385 -1.3266666055157021 0.6470204245304405
Ni 4.018510393627645 3.139263552067401 11.739068870740047 -0.8860851960112288 -0.2427162521904465 -0.6221331743704576
Ni 1.3165025178253618 3.4992064277016572 12.58341662084844 0.30245609125324036 0.32991290191261247 0.3407817263063163
Ni 3.6310413452726222 8.671155791223638 8.030907618308635 -0.7370967097932467 -0.035340327172506875 -0.3013057796988811
Ni 5.759588813037386 8.11985527779759 3.6154635975754497 -0.3050667894032101 -0.1787551759574534 -0.8304778910595697
Ni 3.1971315936889395 8.503932692117607 3.400192654369183 0.8102350816501336 -0.0985195309341529 -0.10993034387425583
Ni 3.8920417541659758 4.893094881123595 8.97037470482521 0.04781609104201443 0.49620156997193904 1.3481540859655168
Ni 5.592091457809925 4.919843994833646 11.239122816051596 0.4041717605271878 -0.4533232825511741 -0.9323226297122137
Ni 8.367535981060204 0.012161430611237423 2.304526650640956 -0.6334457711697993 0.3059857016730537 0.5754360274242348
Ni 4.73587298857901 0.5255899162291428 1.4683535613252934 0.3558805296209677 -0.26616188480789643 -0.7472114296297454
Ni 6.229215853501851 5.604423841403519 0.31243897284152294 0.05598114335131004 0.4064929524611967 -0.8169803707937672
Ni 7.883647622281427 8.995317384882114 11.60186950343393 0.8136412791182052 1.1634912862743767 -0.6322841467615304
Ni 0.22880639698586386 4.691562341226782 5.417422305007093 0.9852981534679806 2.424753655352656 0.969449616471498
Ni 7.372470779420455 6.271862680384075 2.443438290331863 -0.4094157825349465 -0.028623063053331354 -0.1945407209264843
P 8.912693157366242 1.8032065727841449 3.594564366935481 0.26157683654037533 -0.37627477700660356 -0.22280331531660338
P 2.1420500108097893 3.3668869909828336 1.5031950589916456 -0.2833509949926733 -0.39700378202383885 -0.9695756005264011
P 5.246501319197124 1.4387750386291658 8.279870011845395 -1.7277754108468504 -1.280556698531517 1.1319345945140185
P 8.720320771925161 1.8621076457963999 12.371932240492038 -0.16973883139145604 -0.05963108139907149 0.2640684926139774
P 6.468358049517306 8.056419836911042 1.4151944973086925 0.19218276221726902 -0.06847387650168207 -0.07714569324406714
P 2.2637191681464497 3.501610739699519 6.02075560397774 -1.1802145125663288 -0.3273610820250362 -0.7069376697113631
P 7.234300545444477 4.233609469664483 6.125240786932725 0.16770457457024668 0.5898236636044745 -0.37507587160249595
P 2.535040749076251 8.76826988382168 10.103959359902223 -0.42799277420618553 -0.18523924101990033 0.39407400997155356
