# total energy = -381161.4265933215 ev
CRYSTAL
PRIMVEC
9.41492938292687 0.00000000000000 0.00000000000000
0.00000000000000 9.41492938292687 0.00000000000000
0.00000000000000 0.00000000000000 13.77970082756708
PRIMCOORD
 96 1
Ni 5.559289810397847 7.0358802516922365 6.192198078109327 0.18341401488570347 0.5332419105546881 -0.7561326433787752
Ni 9.029049035403439 5.668474745824831 3.886674891518645 -0.4077918737782783 -1.5870033990013894 1.3379316369065604
Ni 4.171519812392081 6.757603185518626 8.043183540588764 -0.6623349434003238 -0.2511183602112127 0.26999565673168985
Ni 8.365663699961452 1.5236745028681031 10.552411904110755 0.13260156021952646 0.3001464692834573 -1.5400563408278896
Ni 8.076813668151512 2.592852707314008 3.434769581647754 1.0937863655790712 0.5193756940955572 0.299983975563664
Ni 6.090724911295626 3.9124115423320625 2.4528969583614564 0.22241713562177823 -1.5117976030925124 0.46598468006892657
Ni 3.061716187892072 1.7988446423631848 12.359798711854031 0.7090236057061143 -0.8500964366214456 0.41613561775728336
Ni 2.265457954831647 5.265289812245012 3.074843423855325 -0.5823957465715195 0.06361037776179368 0.3800774385821454
Ni 3.6086011878185373 1.118851371585059 5.885833453268878 0.8092490635877806 1.0580094650897778 0.4394215848684174
Ni 4.1457982254655885 7.894474731839155 3.7806533723461637 -0.06904980360981013 -0.3754980467415791 0.0012297586420430434
Ni 0.5553094786899446 7.040597131286005 5.457698956967535 -0.3726299811651647 1.7907846646895351 -0.5988914302336975
Ni 2.9550638684545554 5.430719535482706 12.315938322082525 0.8106572567892169 0.5618881135364711 0.3114454392360443
Ni 1.5791190216858584 5.898669767915869 9.514400881715165 0.33962807231784736 -0.06513966992212653 -0.10627757761301697
Ni 0.5161254843160923 6.030977769774574 0.6056595792478447 -1.9310571111907584 -0.0223570275389615 -0.7750279376213813
Ni 3.2591001812719735 8.305511716479257 6.142397809424232 -0.06859883211532056 -1.1785504946003444 1.1224937608160925
Ni 8.468484143162115 2.394743764375783 0.866903155279652 -0.22359238687680202 -1.6297040231937094 2.376143093433804
Ni 2.6285917790464244 6.086563512532263 0.9680449165809766 1.7152466822522203 -0.18387449946188977 0.3021025645685636
Ni 3.71478276078961 1.3355265551598294 10.113542505388628 0.260990367909286 0.757949899093172 -0.03798702076673458
Ni 6.898186910257414 5.534396737252297 -0.013999999912039776 1.1530261250769949 3.3940621182606003 1.097084833824685
Ni 7.971639492618629 3.2334633287094423 6.052210318397057 -0.0655333058161194 1.4339245447641176 -1.638272738699327
Ni 6.340324102733478 6.826096796386205 2.7770369697748243 1.2786471402136301 0.06669467311407222 0.0644614129081793
Ni 7.156325442596558 5.362969704032109 9.375804648557702 -0.3636606877870189 1.5695900886209484 0.6271817925379586
Ni 9.542878218456218 4.680274348536595 7.354625508600159 -1.3631598153457298 1.2836831599756409 1.6548424701325501
Ni 2.223674498470092 8.209903109144514 8.66741783390955 1.0000573140550262 -0.37636630827914536 -0.008903987357849181
P 6.157392025873403 7.450400760184024 10.694990652374335 0.6206915568279245 -0.9604124459698944 1.3479496832641946
Ni 4.198258211686091 8.422313329733303 10.88894007953506 -0.27242380655720827 -0.30939781267839617 -0.9014521653856024
P 3.5174646719150107 3.3324330658145946 6.50711899072386 1.4516201622716678 -0.6696936977582403 0.08022124684559732
Ni 7.728207079891191 7.743233307100079 4.689438840745324 -0.3495898115162495 -0.5270509512526278 0.547531844814799
P 5.919956923128459 0.3703767293474824 6.6297032535717015 -0.05976632142535514 -0.739102684479682 0.1584509171824626
P 5.423780732567324 1.3218560777743003 13.184431658925824 -0.6827757277531789 0.5038698851504742 -0.5992213027692906
P 6.745561490906993 1.419451235197437 2.1996259444853417 -0.12226932505558298 0.8967161933625137 -1.163731684419957
Ni 0.7707117638194508 1.6124949461567266 4.5626517534450715 0.04667349279713898 -0.4286646034622295 0.6395670535761888
Ni 4.4459461724701805 3.5541264067216565 12.323833681817723 0.39146871113822257 0.41219925881735464 -0.34914706755187613
Ni 5.121024850138633 4.604324113640546 5.3532892736961575 0.3192865325470179 0.03803561461648288 -0.867990286182731
Ni 0.6457549387807322 5.375067888219715 11.986368720925192 0.6591616878786648 -0.7761317122085214 -0.3128400055907257
Ni 1.2915211754766591 3.4076112765056763 6.023796061682506 0.7752107430561488 -1.0824187471720779 -0.4474249147888682
Ni 8.208020123278738 7.55646935400315 12.679157822154195 -0.7148281282030334 0.23151215594451094 1.0024011316968542
Ni 6.523312669169527 3.524290495678446 13.337648335838098 -0.443461559265746 -2.5293939544725665 0.0015899701949391972
Ni 6.176174809884511 0.15568244690350783 3.712168234914981 -0.8422059781297753 -1.8175789020642439 -0.07465172317761982
Ni 5.718034933812039 4.8334175890001045 7.476176953700623 0.37083380849669034 0.4109396753786406 1.9439943880777166
Ni 8.858064503861709 4.144649604087466 13.39115432070704 -0.5754092879513575 0.30884425416777134 -0.6897485595265863
Ni 1.9451620590632588 9.65962334213429 11.221278611408016 -0.5995491184223545 -2.056269320924749 0.6767796580707441
Ni 0.9735413523231747 9.456260868630551 6.759411793442704 0.8967395904012814 -0.418798252191111 -1.0469547499375131
Ni 4.885670446775371 4.899387998807544 0.7973720192000311 -1.502537517946825 0.1690181511753476 -0.6074128374411475
Ni 2.492235357576302 3.879666418126229 10.517549362298858 -0.6060704644806401 -1.2807173924790973 0.05174113712803347
Ni 8.925390663492506 1.775825140154081 7.480696119778483 1.1856171716391388 -0.46186268748075293 0.5652405749484718
Ni 6.395118991427541 7.891800891909755 8.661740631524237 -0.3463188540744616 -0.5711302009600292 -0.41562191134565846
Ni 2.457861450596573 4.318693987661082 8.043170359687704 1.5610537690151631 0.8234878328949817 -0.27452362650903045
Ni 5.938739707139568 1.0837431001176776 10.767844317014115 -0.21410115955691514 -0.18602265615314414 2.5326615694802443
Ni 4.544454578038219 0.7011815692327629 1.453290374191286 1.295835993288091 0.4623316566973715 -0.466611515019648
Ni 2.9837417431903144 5.957955577899806 5.476149393973335 0.8016596812762967 -0.5259705737042555 -0.4196333464978967
Ni 2.6744989744540275 1.389342291203689 8.141418913206264 -0.2517559937952116 1.1895661289845576 -1.6250040466148787
Ni 3.273081351325356 3.1478157166046503 1.8858348233902746 0.7187770855484524 -0.08499655674705361 -0.2302667135731841
Ni 4.494715506393763 5.404847309686953 3.2117590921275827 -0.17634836628817369 0.5566453770802929 -0.04801586575764633
Ni 9.139147218975324 8.789768606510036 0.9481313995574693 1.3007414010095082 2.365160626280372 -0.7049363230106181
Ni 5.8819394384984545 5.357377236010756 11.74501794907237 1.140315876599178 0.0051162381806428014 -0.7177303894514929
P 1.6659058402394444 6.4441425284430025 7.042529074784291 0.9096478138225172 -0.44231664702802537 3.1546222228285803
Ni 0.41798990994947804 2.184385998380689 12.213624402079756 1.8947428501407562 2.258379369558059 0.3511417293844017
P 5.2505083731986755 2.875422981261587 9.700978419211381 0.4554732390146414 0.8181558791591071 -0.17056569816812558
Ni 4.501757873531762 9.274392678784638 8.297171030586806 0.009253914498100193 -0.17400429153602937 -0.614134215325381
P 1.0198816344799064 3.875495604433537 3.9501305737023413 -0.667465836868986 -1.6299793883422833 -0.28418223264471704
P 7.10450567157042 4.808919942886368 4.331744962696771 -0.7550926321500351 -0.6611558354905582 -0.26464519105305384
P 1.0036879560342384 3.022813699905153 8.80265199580367 -1.1120707657105557 -1.1733980038651275 0.5904605258575251
Ni 0.6905944812024408 7.144688589946066 2.6971833051790233 0.8571320033119884 1.6968134152476972 -0.3544430258434928
Ni 5.875678510494751 2.5440551286024395 6.699401033900443 -1.23269895561829 -0.3460823125836233 2.380044999591372
Ni 2.6976408707444066 8.591010033448118 1.8269811586625329 -0.9448415881148309 -0.04245071296504302 0.08675236309589575
Ni 6.7610678795116534 0.986355071139776 8.768891942216184 0.4869831366974645 -0.23079661793472508 -2.0613991859521468
Ni 7.620067201619713 1.5571539915615888 12.741717203065782 -0.9237071201290608 -1.1356747782827408 -0.6860669969099411
Ni 1.0407168730847107 3.8089508839370354 1.3519621972892495 -0.016531936216752172 -0.17389990474768113 0.7447336575132142
Ni 3.313396078711606 3.1532669606860697 4.423931243220468 -0.6228883073689273 0.6047879982237907 -1.1282946837685859
Ni 7.737151262753624 0.7282833847988675 5.348080934791422 0.5592974699911594 0.19400156059356266 1.0217666807076597
Ni 1.6521882882072711 0.7780601161606391 0.24614579536002038 0.3283846381935441 -0.5406646853813205 -1.426291453698892
Ni 8.07331131444117 8.641050382831098 10.447535240344667 -2.0077559467053936 1.2315918385970401 -1.0336346357898392
Ni 8.429289792366001 3.894551421395183 10.903298788254531 -0.10518511587978659 0.06099042364044334 -0.0014228484894556143
Ni 3.596503003630931 0.913154937100692 3.5458751626578286 -0.6704434314400712 -0.15980408877624738 -0.05253226557076114
Ni 3.863661038267139 8.922519110047197 13.205666090534173 -0.4611561483320316 1.3436330581667117 0.8376337853780607
Ni 0.931779550299076 0.5886402115000341 9.252628186655073 -2.5357204109112264 0.7077653078189811 -0.11161775887900775
Ni 7.58279349640669 3.255748466430893 8.571360134445818 -0.8723128248174847 0.38262694447687656 0.3939662807490957
Ni 0.1633527898277437 7.224508360796284 10.922824410189689 0.34549867216601143 -0.2576065390387176 -1.2213210527986516
Ni 4.582575626890841 7.227813000990719 1.2632792119688276 -0.043581227025060426 1.0407293378530917 1.60593160336446
Ni 8.28059981347505 8.79928710006153 7.4879305514747925 -2.1032793711257005 2.3444372776900915 -1.0733085573406933
Ni 1.7569952814963274 7.591539965753216 13.055549749849897 -0.23736347251896542 1.0399325529834091 0.21643880655115624
Ni 8.964566184429962 9.256890325162257 3.3110141015914003 0.005814806909564179 0.6334059190707995 0.21724433317158717
Ni 7.732933374414287 6.471803590811242 7.240750055381529 -1.2065719195139348 -1.1563888709016408 -1.5646414863664215
Ni 4.49029048960919 5.168108911712346 10.010153400456499 -0.38537313976344595 -0.95513294273851 -1.1718674261532143
Ni 8.119811650396493 4.896121018330424 1.962987344761621 0.5194685109196796 -0.19296026381324188 -0.8666301726104108
Ni 0.006019905812883815 7.287334184207879 8.314947358652658 2.3078594785660576 -1.238453341603564 1.6720459784950301
Ni 5.1736731349457115 7.126640170422609 12.991377591544275 0.8493891261417759 -0.5460645162406531 -2.0203443248933657
P 0.08276946820895446 9.586751789128785 12.453170331980234 -1.1255184065750292 -2.0700308934852156 0.40862542542316727
Ni 5.905806284347157 2.3502393934381822 4.556698693630423 -0.5611244958975691 0.191438942072709 -1.945835297941197
P 2.1978681771796404 3.421677180923018 13.305637576119919 -0.20180023070237502 1.1230313784871173 0.13906479934636695
Ni 6.562224572085776 9.01764755598617 0.23706321303645295 -0.06358826627460662 -0.1419855725375877 0.8232060399885047
P 2.0521627308859434 8.859034241582583 4.484093583124924 -0.5409745033122554 0.6201341416625578 -0.957100607987842
P 2.194168109953392 7.342656308944359 10.98430954766485 2.4465884918395604 0.1738004030553394 -0.416094994327335
P 8.136052403488804 7.104053754962634 1.1790626691220247 -1.953640395807913 -1.9624703353947173 0.9917539363956532
Ni 1.2275279008282838 1.3657108185882083 2.3008797434456802 -6.376335839989018e-05 0.5163803589126591 0.5007647638625893
