# total energy = -381179.1485214951 ev
CRYSTAL
PRIMVEC
9.08957609983953 0.00000000000000 0.00000000000000

0.00000000000000 9.08957609983953 0.00000000000000

0.00000000000000 0.00000000000000 13.30351341055660

PRIMCOORD
 96 1
Ni 5.404716328970973 1.0944121992665596 11.450733137661997 0.825913668727655 0.05259602892916103 -0.7126992547854887
Ni 1.3353223171985125 3.175761453126143 0.39921326171746035 0.6629142129425615 1.2130870949246333 0.8792026099587827
Ni 0.7656540577616768 8.525731266842659 2.324296345736169 1.2710880969194498 -1.0872771037056437 -0.11414875283097758
Ni 4.616995507954564 6.208016682968643 2.4360326835611725 1.1870469621071298 -0.20520180018475626 -0.7463264559216308
Ni 1.5679700106964118 1.8355307649767079 5.628649846115818 -0.5100837272706699 -0.6469864859687114 -0.33696646632528415
Ni 7.010898916477902 8.015024358974989 7.442291094566578 0.33279176612230427 -0.311772740668476 0.7593128408789698
Ni 3.3365196913446953 2.9229167221227805 4.337890083406182 -0.10423303637916242 -1.1402989073183136 0.9714280803541077
Ni 6.112203464091465 1.3484567542801482 7.084067275077239 -0.31925053710275986 -0.3827614131722118 1.093412784289736
Ni 2.6287507793733162 2.1828889055128373 12.09941162608735 0.43263027297819684 -1.3467525776322997 -1.2824523728923332
Ni 0.8611591400180465 8.075951785797276 5.023034132166558 0.6284012667673565 -1.234812402416867 -2.292626463666387
Ni 5.3319088265322865 4.3072500322238385 3.79478701830484 -0.26291123908108266 -0.7596342287741304 -0.3085280084789332
Ni 5.41377863607851 4.827873667327538 0.44883961890403906 -0.6306016168527849 -0.5684228293311953 2.7851480136835773
Ni 7.955133143797897 6.610266771972591 5.606100426384245 2.6353020645613063 1.3514016463685372 0.39199630150691844
Ni 4.3150670674419755 1.841011779205238 2.5406518835073393 2.6222051221680327 0.23944118098360054 0.1317456399771344
Ni 7.572425642839289 5.291014824850432 10.871869863310433 -0.6609612029812487 0.13430877271862032 -0.23644815979354766
Ni 3.165163007702484 5.855968321301632 9.858103107725116 2.0945286215162637 0.5758209215674792 -1.2639345165938038
Ni 2.2112665612698383 6.218251545358901 5.953414936956367 -0.43714153058498906 0.832087915859167 -1.7625488097722934
Ni 0.8003762374515372 7.595349553095265 7.49710123685188 0.6014455641141189 -0.6399254653568721 -0.14476622060651842
Ni 0.5270117890005671 1.2405180412390244 12.433915288477564 -1.015557209462838 -0.9081038663741652 0.38236623461632213
Ni 6.360457959298132 3.4575655727399495 12.00886854327933 1.6862860333538119 -0.23381612148733924 0.4785296066134726
Ni 6.2780155064743015 7.505835410271772 11.575892052122608 -0.054748299385473445 -0.5856615618069849 0.46306956330466054
Ni 5.8161832478716535 3.592336713646117 6.389318271531973 -0.5802046524574717 -0.384281449361164 -0.1081601393477105
Ni 0.11889619671026665 1.4585678759458467 1.455896449607928 -0.20894995437327885 0.3636380620791995 0.010866253290542577
Ni 7.315236094586777 5.969288063237101 13.227098035613249 0.30728488010045146 0.9555353203832512 0.00045559948017986055
P 7.858601848429752 0.5115122442866535 11.387820547477338 -0.6643422036383397 -0.3524637906299349 -0.318930948979812
Ni 1.1005931108343883 4.738923078205818 2.500062382615959 -1.163517254416306 -0.4392418647574436 -1.534212994673235
P 4.21219124814097 5.0596669406969434 5.675344815095595 0.25936877314546297 -0.03304510338042696 0.19897895920349604
Ni 6.950307803961512 1.4814736070501524 0.2847745929966983 0.7802771018354626 2.9889395637843683 -2.2584045663690397
P 6.105668059066071 3.1405484363411906 1.8118324228595863 0.03888819242476528 -0.4771409537960622 0.1196992503355616
P 0.6883026763630531 6.120056857612942 4.014015770997467 -0.2951963243670335 0.6973014321731797 1.1499785964999225
P 0.6024625400920836 5.11951270799486 12.615229602447064 -0.12935579958871915 0.3116020194185666 0.05083867991842212
Ni 2.3869680621611997 3.89939167492967 6.397193480035455 0.14984054980563224 -0.25985111209852024 -0.8042873487071309
Ni 0.7935572376600887 1.6923244976956213 10.115871661958321 -0.45558611044342184 0.6020718848442083 0.15986425259022147
Ni 3.2063933236902344 4.40916235648633 12.721750341657922 0.3975941073096701 0.9982608842762356 0.005264076612416741
Ni 8.1647478521298 3.7213905113520434 0.3628076925829502 -1.1560836809563961 0.3185640525586965 1.7462948098072764
Ni 1.778648199401015 5.435139139290858 7.973154136848453 -0.8957407168231217 -0.9881178823049629 1.4085359294876838
Ni 5.33701716815158 8.854528493523631 3.366719807056622 -0.4718935893541938 -0.967911839670733 -0.06681551496265267
Ni 2.610480731944882 1.0591900929057723 1.3342097531163033 -1.3801360381887522 0.7679334926684452 -1.5020994019681422
Ni 8.38876044858441 1.4736929301353565 8.217553742943478 -1.0583869030338546 0.9167759402268664 -0.6036731678930571
Ni 8.877497851658783 3.291735351205444 11.59772339536321 0.14125666479136317 0.5329032962683469 -0.4965622957454674
Ni 2.7980895771801486 8.740227077397979 6.170182232512864 0.16668744615964198 0.3459311317177397 0.9214435209058648
Ni 7.13081769046961 5.260255700224651 2.415784744431033 -0.7601813595268522 1.964965848123061 -1.0702813404785956
Ni 7.726293982574881 7.754389861480995 3.182346850818631 2.1145464593990875 0.5383054411205245 1.7651240266986374
Ni 3.465691653536477 7.373009438594305 4.210522402017657 -0.48504786734796473 0.48034069168028243 -0.23379838087552637
Ni 4.60640615210674 2.3810598378684222 -0.04844743920077376 0.11973935954487766 0.821848754629662 1.312231918147611
Ni 1.4773651187727137 8.344176079113529 13.252986056549032 0.7998920478529127 -0.6390001253291253 1.3673427430788259
Ni 4.014311182212106 7.034222768070618 13.15480591212441 1.088651358345351 0.33528573618875157 -1.2293467513166054
Ni 6.191619088162227 5.779325017860558 6.833256791145758 -0.9394880371124013 0.20789425941525488 -0.8049463224473684
Ni 4.522209411146747 3.472163431531027 10.768448669459325 -1.4249025437711653 -0.12655098315007235 -1.0605720836106314
Ni 3.590137036294037 1.9723834187490998 7.1352061376827685 1.0205317798592939 -1.9738502950968844 -1.2577708109852532
Ni 1.8255685898615017 8.589658253690509 11.011942953801181 0.21752869718122536 1.0975697438809031 -1.2038007845267011
Ni 2.5419362405728307 6.015163152476558 1.2836335352549626 -0.24554369433691264 0.35959577368902584 -0.4365918287291062
Ni 8.923018447440672 4.073238902350683 9.276486600853117 -0.011178385214322684 -0.20597313113314206 -0.5436196542445864
Ni 2.704030646439134 0.5915823178175385 3.7795810668903984 -0.9378355891106429 -0.5834375575724726 -0.06514738323161037
Ni 3.014066988596581 5.090380617443551 3.8317843188262115 -0.5880678572556324 1.133217832101816 0.5393979028537549
Ni 1.9904898538125033 4.03478090699262 10.715687317567241 -0.8586155298360503 -0.540345611479005 -0.9212213775927295
P 5.07512830919235 2.2497245566279007 8.874813699914695 1.1752083176009889 -0.8357175421919542 0.48124777687558407
Ni 4.006775923844856 6.259527309225826 7.575538822562792 -0.42066358753462396 0.9273244051666738 -0.01072150018256218
P 5.231578088465093 5.34790648000196 11.79022515927048 0.025835730116181312 1.6010146256788171 -2.0461373746970697
Ni 0.6254646207002409 6.277061101011622 9.807589607937036 -0.44723645292714587 0.11675713698810214 -0.8663244684445338
P 4.424241962796664 0.7863419323622324 5.090975075703162 0.06882251809035245 0.3842966188698156 1.1057926460113279
P 1.6527121262065083 2.6645000811325366 2.8484812766520378 -0.07064388756980737 -1.0716931332244577 -0.07035643823637562
P 2.6041634767395276 7.854947838944065 8.831204641930913 -0.011104851663909907 0.05249909833998056 0.16399910069420143
Ni 8.820006284502142 7.217941274848488 11.632950955469498 0.16842422634509058 0.9481958492990444 1.096781700761969
Ni 2.151702570822808 6.418113138819803 11.661221354231648 -1.1342138774664983 -0.21815887456605654 2.425895225156267
Ni 8.13127094432934 3.3961927567017463 2.884215126132338 0.6324445835987946 -2.809695878226271 -0.591762018277768
Ni 3.485843243162765 3.9036001485412943 1.8453838651818935 -0.244820700127959 -0.2677464556861969 -0.37565179871062404
Ni 6.112276180698146 6.51026325863546 4.36525516041516 -1.0449485181407616 -0.25597697385509466 -0.8516211007960881
Ni 3.464000992431159 8.121890502067577 1.927692701240949 -1.1489689242884857 0.017483758607060213 0.2648516506369052
Ni 3.072140288606664 1.3230059419420306 9.689893235236996 1.4634361810699892 0.6616101494191573 0.045499527093695834
Ni 7.061764182850797 1.061126172558636 2.454032770587306 0.4871353460046127 -0.35512076863680775 0.752119408454324
Ni 7.8090909288562775 8.53828397107085 0.23202142172286513 0.5260664758521714 -1.4792672345649749 0.4055318740995081
Ni 5.026735407446587 7.763415810285192 5.889904252681761 -0.9822624519654503 0.36613357480754366 1.387395805074959
Ni 1.5227766396445834 1.071070168522172 7.843059582709413 0.1584372903357078 -1.2945879798136026 -0.01948561952843741
Ni 4.202156356419084 8.291720136969502 10.501434198686717 -0.5348105405933886 -0.7527986939095358 1.3948700019648168
Ni 7.277359832082157 2.4031202384200694 9.971808247675991 -1.1868407596335948 -0.73216070594421 1.1006761507203688
Ni 6.721359567828474 -0.016884796071173987 5.303857486547764 1.779363310226471 -0.6570425846531329 -1.4679536093243686
Ni 5.192574718556927 0.22614046615759298 0.8653812479934234 0.5606480704817829 -1.5866915241879254 0.7974870379558459
Ni 9.005688139660379 3.9330321950951603 6.8578150071368755 -0.5416687011658026 0.06235439386750552 0.6388607715377836
Ni 0.21294058412994502 6.528251529213007 1.1225607977125178 -0.5185768523433456 -0.3511864665794081 -0.23905500128877538
Ni 0.5611767776917395 3.8960376214465393 4.671488424043225 1.7373517416813755 -0.37620278611808755 -0.3625430292428079
Ni 3.877449438863879 3.8988826586829077 8.28361859802773 -0.43703920067916985 1.5295217598451532 0.9330417672664253
Ni 5.620521038446539 6.659795870697735 9.248615234470128 0.8613491267171295 -0.24424091636508902 0.524136091598678
Ni 9.225101410742457 1.0261131264420544 3.819012555820394 -0.8433061531724895 1.2385389593388347 1.0820220259542914
Ni 4.695302203773451 8.872762182648726 8.352597571124695 -1.020535893624352 0.14509300781831785 -1.486845046912233
Ni 8.78153010999241 0.20578436107501646 6.353199024036267 -0.6363994544814846 1.5757391389414799 -0.14776027023783583
Ni 6.31792783396597 4.3275834133668285 8.856853607022234 -0.047491103602427885 -0.4782241595579118 -0.10574304526578564
Ni 7.501308801505922 4.501657880183717 4.766968055487256 -0.8860180902187191 -0.43871041773400576 0.9892370835110706
P 6.380045995222647 7.452861362305147 1.764458462564931 -1.4522485398842861 -0.6655436801456086 -2.303816933065568
Ni 6.20952555255726 2.052008103064068 4.398966579272163 -0.3182359797953165 1.1038604619856216 0.3929990317398199
P 1.6843983875674648 3.0915101747111384 8.501516636818106 0.11987974177748388 0.7490263713512971 0.09183363427354507
Ni 0.045385161101948124 8.632415618418547 9.349389543838072 -0.7351719819667081 -0.061510043589339224 1.0082110535104118
P 3.7292439048735195 0.25891111391566984 12.668270004317284 -1.4713538932551693 -0.651618071203452 -1.2072920855094111
P 7.741055453730989 5.968215493288565 8.192023851295595 1.5918645837484326 0.01841372662049732 1.4261443865980663
P 7.816944322377754 2.2833650767933915 6.0053654986839655 0.3555383157902006 -0.1146956264733831 -0.24762834478008316
Ni 6.656532712972955 8.837867301017999 9.633313352536609 0.5458559997742728 1.086141961659936 0.5212243172685217
