# total energy = -340891.3845364489 ev
CRYSTAL
PRIMVEC
9.07216515117386 0.00000000000000 0.00000000000000
0.00000000000000 9.07216515117386 0.00000000000000
0.00000000000000 0.00000000000000 13.27803072724913
PRIMCOORD
 96 1
Ni 6.343865495740405 1.721334413651428 11.319122347062576 0.4902386675202847 0.2025455935088318 1.2666349462441024
Ni 4.3605632499804985 0.2912954194078656 5.891077377115895 0.20521311303866593 0.5026103017117601 0.28952215680039173
Ni 2.359089458032986 1.564576477268189 4.786902379211427 0.35359739001374585 0.7199657065399149 -0.0871421423351467
Ni 3.308645736025028 4.115623871288961 4.623157968679873 -0.42958608683523436 -0.43235902159468115 0.6841360984358152
Ni 5.010538500410336 4.489224691834026 2.4379655808581955 0.9534511841607128 0.9755266759035136 -0.06383714906061909
Ni 7.478403214953249 6.3085475579928545 2.7427767114544257 0.11393020906226829 -0.6391731605718799 -1.0453526955577157
Ni 5.036176438266637 4.486820568149694 11.607441189184295 0.22955966020383045 -0.44674048712733383 -0.2911257538420857
Ni 5.638041998515312 7.77713145901988 12.463555983690018 -1.0901809076159998 1.4200017640354383 0.2487963969462554
Ni 1.8344098762986119 6.541257658471265 0.29684123377855104 -0.0918572884226289 -0.9538373638555379 0.4720653390453676
Ni 2.795061411897963 1.195738543267554 0.47549574723538157 -0.7586039877374032 1.2329869191723541 0.0015478041030941086
Ni 0.34589987240266146 -0.09102012268877828 4.84332126517553 0.44914523991408456 1.6036266093803673 -0.3949476708257585
Ni 8.660923614039406 2.4487496632112693 1.3701336753289375 0.3914679398072742 -0.29957285616817436 -0.46446901475534846
Ni 6.901368169889536 1.0324305038651183 4.819008770603307 -1.6900897233706182 -1.283479528605267 -0.028951392927027562
Ni 0.7310032907566448 7.334781773267791 2.569657125770465 0.4398260193956876 1.6320077316262216 -0.8602186126571122
Ni 7.7085640371097846 4.099493562191826 3.636785938524117 0.3079860199325341 -0.7603068293611228 0.4281642667870433
Ni 7.574912904590665 3.905222224168174 12.79838781497991 1.0452470232177868 -0.27447786087275955 -1.4447679152365247
Ni 7.836971458347609 9.218045257264981 6.899516541044358 0.17823195646413173 -0.5873726309608207 0.19635386287582313
Ni 6.759325284887372 0.5918988799482737 0.4112394180603596 0.8925990858703465 1.1294804765465707 -0.1108474563718865
Ni 2.1254902853996147 6.592070853776694 9.128738866515711 -0.49885546265501823 -0.7315490405021401 0.15135235846446837
Ni 9.173682371165436 4.879028398794998 1.4650847670457183 -0.296874740510721 0.22862043621901268 -0.4539182358226957
Ni 5.961891067041992 2.1378828625799784 7.028168003516554 0.8856442518190683 0.1786793284141955 -0.6739527301449103
Ni 3.4850721257955497 4.249048199686919 0.35152915068993507 0.3493090470510371 -0.001699499189609976 -0.3342742642051017
Ni 6.1105475602172765 5.755653543585763 4.970989304978362 0.26560112720842 -0.5268156953133701 -0.942798589542873
Ni 5.228551693837364 2.8968783179706 9.246142659011177 0.23534978452304628 -0.20496603002486638 0.642384468420326
P -0.051049978807924355 5.700186327714062 12.577467899936051 0.3308410701538367 -0.020488863981971164 0.09591654609366707
P 4.064529438873288 6.229937249597648 12.702162084102191 -0.3296748177598774 -1.2412339896724944 1.1851908827349975
P 2.4464181168457104 8.304369391240975 1.6192562292312112 0.7717762634533031 0.2768175647495297 -0.43290280991329316
P 6.160580549345905 8.07530630103087 5.721317214074606 1.6010663048523588 -0.2905760519862028 0.27500596546208766
P 4.730698503554188 0.9819801951535497 12.824279773451915 -0.009860437733847533 -0.8797749375224848 -1.3044224494055214
P 4.217939746428158 6.046280344444439 8.076627208232527 0.3530489737094436 1.247169124210007 0.651766166745542
P 4.780214379286563 1.307090294593897 3.9639436255703266 0.25379667837432424 -0.37135291422495403 -0.22626273462011354
P 0.5283737672598823 5.661747565259303 3.6364538972907337 -0.45252006992358845 -2.034960532144644 1.2052539720334599
Ni 1.3072082327369017 0.9636816386580932 2.4617337455396266 0.5071930359864363 0.9376242444307852 1.3267735634072118
Ni 2.2385385315522592 6.4649063191228455 5.062819571987935 -1.2692538719241884 -0.26156835189994304 -1.98478673950373
Ni 6.17173931210714 5.537948803763517 9.146106618897914 -0.7258134235699435 0.16393122357074347 -0.010316551434659652
Ni 8.629552068000095 2.287600799042308 10.412923759305082 0.9211594140065427 0.04870594984613547 0.36964750149807307
Ni 2.4786968793696738 5.171950457359847 7.025617817978194 -0.06087600954976612 -0.011670494359392804 0.2946900741545763
Ni 0.5917863851041768 9.152272062127617 9.114650701725532 -0.09339532233371012 0.2372089492189721 -0.10804392548482038
Ni 1.4017039017783868 0.6310579722918478 11.59691203466341 -0.46035859213140073 2.537817145539255 0.025399928130343356
Ni 4.20895830323009 6.993223838960679 1.7596579596126363 0.05558725034700104 -0.5098705828185993 -0.5529208770408541
Ni 5.757213955939366 7.915427539940425 7.985195209259715 -1.0921421451074287 -0.1897525555092216 0.320014668962294
Ni 5.547084473763975 3.213832541213914 4.745713843591684 0.3974133587574317 -0.15937034367293842 -0.30990663399401464
Ni 0.6968892292842278 7.464495586243515 6.984947302971188 0.06762978333383192 0.14851386057440874 0.08174642524087213
Ni 5.035976850640014 4.449787991246148 6.81015571730601 -1.0153258101783222 -0.08390769455824905 0.8110030701644098
Ni 8.046765270423679 7.436308370065338 8.952845012821681 -0.29265324623020567 -0.5700248837109925 0.6918036422834022
Ni 4.642535205575583 0.2959476255411676 10.552077159803627 -0.9288045892566261 -0.40570850888668836 -0.2383255793219186
Ni 8.36038093700347 7.070936003036079 4.825581554034619 -0.4135372609024878 -0.6117122361474497 -0.9136116835662716
Ni 7.437387957682075 6.5431900295835765 6.801856500904402 -0.6992750109597827 -0.7130334981964559 1.5469229860407359
Ni 2.438833787034009 5.183263446923473 2.3022641390837593 0.23842173858015067 0.719080218611168 1.396833553449091
Ni 2.544043682759249 5.134400767060048 11.425120613912979 -0.9992348181537307 -0.1396679801480046 -0.013008239334209854
Ni 1.0896940083764328 3.5156816099877513 3.5018411152978812 -0.4628587328454351 -0.8439638413611465 1.151690951205339
Ni 3.800810678949429 2.628033784908449 2.6239912282528337 -1.0683710108297602 -0.7588387294560286 -0.18381690675107695
Ni 1.280372769120858 3.2842779012472407 8.249547206289863 -0.6040922577083467 0.31072475901993585 0.7178838843102217
Ni 3.438332332506213 2.38503584949407 7.268619382258511 -0.032569706405905195 0.7031478636516277 -0.38060657161273803
Ni 4.254473354265145 6.850056005517547 6.0889195192231425 0.5208779896726965 0.7027871378780993 0.15670462391531723
Ni 0.8286007329591594 7.426074968118448 11.42416531495464 -0.7505111834269397 -1.6775591950037756 0.07220017631333372
P 0.29721682140319755 5.6716543692717165 8.31174143239527 -0.20803052788280302 -0.016453260460016824 0.11737600151902366
P 8.560068357440501 1.931599978299517 8.251220113487564 0.6222542733293541 -2.4789579093092016 -1.4870201390375164
P 1.8363059587515373 3.142616047168632 10.469740006089465 -0.4754221713327425 0.9551617390939164 0.6742748893710194
P 4.227102632923155 5.8793525112682365 3.8545859360772514 -0.8953828192630708 1.55868038368698 -0.06776785157359297
P 6.904507138926435 3.6805954225680235 10.66685274614305 -0.8929770380350557 1.755513757302383 -1.594526446851312
P 6.149684879365219 7.82318176778088 10.316472131522685 1.4934080448417313 -0.3250928548161498 -1.1737715851544623
P 2.2762333764896026 8.526020522771464 5.704268801895002 0.5445663344285718 -0.10421066778165924 -0.03940524127049987
P 6.909741778042886 4.059666758515547 1.5109336737471255 1.0743729940494657 -0.12324094494023291 2.040917778169343
Ni 5.555439937587632 2.7661030617078306 0.44396815996071104 -1.1562423180214474 0.3338983689229217 -0.44638901732518604
Ni 1.1785649352130676 0.9546639068006397 6.890567757639738 0.01900945122296726 1.2971572832026756 0.8605168606238212
Ni 6.811490232754935 0.9131315361332129 8.988509507266372 -0.38910381045047177 -0.6918486365887246 1.1256749867575517
Ni 2.7304403816961105 1.455184313548697 9.504002614877146 0.15806628014953422 -0.5365102968933146 -0.688030548394215
Ni 6.535451472969484 1.9319810092230716 2.575593043229551 -0.21888289721627466 0.5864984558859835 0.3149511383964576
Ni 4.140517891627847 6.748574769544231 10.617179014742344 0.6880320910561118 0.49608407055746817 -1.5973250926423717
Ni 7.891495169075272 7.603580945505708 13.16170170780549 1.431951994418779 -1.032214872624177 0.254072300633214
Ni 7.751339294361187 3.859326142209565 8.272849968914668 -0.07291597143343571 0.8128002712741486 0.16950306123156617
Ni 3.101990892985859 8.165284031978782 12.448989715812425 0.6668274319540387 1.0025659394094926 0.011478432953244747
Ni -0.05920041170604936 4.740206132313354 10.502377119124866 0.3101596305450852 0.3493424713921338 -0.2729753081853041
Ni 8.529622172215538 2.337325334566154 5.709605956474217 0.9496852893603773 2.0373226046189172 0.6686601142874032
Ni 3.4924205793212417 2.520410693334031 11.722097022947745 0.5331272393536948 0.09828607476710816 -0.10179074548625694
Ni 1.0780907095377175 3.539532331369286 12.68535226985805 -0.05387669541379753 -0.5060157278488834 -0.04070827635263957
Ni 2.8914894520517596 8.50392072920531 7.871149932190438 0.8073533892269644 0.060806846874727524 0.15272738443512407
Ni 5.74276199733884 7.640540945090482 3.5723209495576245 -0.7589423449134285 1.0670558915627624 0.8371558173003776
Ni 3.353743467477142 8.671728562371626 3.6185291139869546 -0.4029905957348931 -0.6640562969668048 0.6147363676857542
Ni 3.5064461461739813 4.506280361745508 9.257589009398048 -0.28520656014417334 -1.2181046027438827 0.6584752033346014
Ni 6.984950024620641 6.109876220018633 11.376922016516321 0.936691962424503 -0.7890404498503895 -0.028940080073117904
Ni 0.7224491465228492 8.956095569486195 13.787773618297685 -1.360467099004915 -0.5021752710568707 -1.0515372271018728
Ni 4.679059741247723 0.4371014383883704 1.7119891766430146 0.6164602923553963 -0.7930007200497182 0.6727116586489575
Ni 6.090824673840915 5.738280347904653 0.41949236642125043 -0.4330514196760155 0.43439147864367766 0.3982759638680431
Ni 8.036132693223543 -0.19660560603866487 11.035225278087058 -0.7593146406511826 0.1095243666850888 -0.11054843707422897
Ni 9.249616390930916 5.123786334189604 6.14893642576538 -0.2858367375290045 -1.4554346509217515 -0.6627036395936523
Ni 7.97062259086673 8.869284024069723 2.9128816167598837 -0.351144300487563 -0.40034467347161373 -0.9783721157721087
P 8.663599902669132 1.7437880216465964 3.556387506437659 -0.7075943294587556 0.5083294635837246 0.4173417222502426
P 1.9612931738422188 3.1371364596013263 1.563103157697112 -0.663159239073832 -0.5037863242977324 -1.465608763241276
P 4.634034587114381 0.8117165269632773 8.241129144528767 0.3042939157929275 0.9123569852235642 0.29937848076918117
P 8.509926502333714 1.3999348296333127 12.507466168763722 0.10978121989090125 0.04541930867506371 0.8111064285114934
P 6.491052298210553 7.854816406600739 1.5357904982101405 -0.6943948000493461 -0.44130337527216257 -0.2273917060182342
P 1.7339265784584152 3.340316663504274 6.069308220474393 0.14046116547326135 -0.8672297538676226 -0.9615648144067828
P 7.039845694107011 4.229660983409878 6.198423270570247 0.9104458842437803 -0.5723450472037369 -0.7694707552485781
P 2.3566490456892693 8.36579701941685 10.250772420920581 1.5599543653033974 0.6579779519832087 -0.23535775494284625
