# total energy = -381164.7504098461 ev
CRYSTAL
PRIMVEC
9.29443963151431 0.00000000000000 0.00000000000000

0.00000000000000 9.29443963151431 0.00000000000000

0.00000000000000 0.00000000000000 13.60335189708129

PRIMCOORD
 96 1
Ni 2.478390144735139 0.6301165179552406 10.583829075029387 0.310732986550052 1.71018803678239 1.5596422333796174
Ni 0.9986038617247438 4.499382338565149 11.118903444188184 1.3502243382309842 2.1625533262956687 -0.7635759870306978
Ni 4.426727705909996 2.9823067647510593 0.03710619034785319 -0.3098143313905245 0.915170029192327 -0.39607972754767273
Ni 2.03757347368888 5.75127826234928 2.651823454173785 0.2799424835317566 -1.1183722824485514 -1.7199703129801347
Ni 4.313047417819273 5.246274192925576 0.45683470787853403 0.26939864657763923 1.3088876842657264 0.04920525808005719
Ni 1.1821783339739356 8.08615296857499 2.9739650054050184 -0.7424168364545795 -1.1413294054653569 -0.3341775907262374
Ni 1.6785571636504248 8.73331548835824 5.904738750998281 1.6973716017440124 0.5263346419118935 0.4706036668981767
Ni 2.1864518037221723 1.9224897252513582 12.629746166952184 0.7487090972211945 0.09246612565122139 -0.4482381547187829
Ni 3.663960949083788 7.809531863664835 2.2604550595317665 0.5258677295778039 -0.07205953697041138 1.2637936201405655
Ni 8.605944491056688 7.401561741397304 7.516028339059809 0.08974152763120674 -0.0853480265492014 0.22644888248899064
Ni 0.48274574598983455 5.398795943196917 4.573990662378561 -0.05061139439896445 0.261548297295285 -0.3197724710445009
Ni 2.537753729072924 3.886646422255698 4.605496023554354 0.1077420779736854 -0.06943058398799655 -0.5120344232391375
Ni 3.1381931020789637 5.040653310460441 9.762989731495663 -0.18795843972327628 -0.3994347600628347 -0.09543549269219048
Ni 4.844698644953394 4.924333401585011 8.066841911869398 0.9002193214197658 1.1445157736131386 -0.016610611973487524
Ni 8.404766350616521 0.8109946733394894 1.4565650556564702 -0.25205964107855944 -0.7036973083971945 0.2918166092615232
Ni 5.32824185384227 7.891666824490419 4.218862216333921 0.6009776233387649 0.20927468470254923 1.2896208656163144
Ni 3.7107770402548264 0.09511557486756768 12.899473586172133 0.3620714889230281 1.4881493675459534 -0.2642050181918418
Ni 2.2243452330857467 4.237669514424966 13.333365899878226 0.24064548570434685 0.6119914579507653 0.15404276081243792
Ni 6.274778266144708 6.637512351936273 6.636735336803873 -1.1647974066803102 -1.199111863691464 1.247064994531975
Ni 1.2333442227761129 4.01375717525453 8.635652307655853 0.2096690919274905 0.09293303798531091 -0.395858355565486
Ni 7.533226769693696 6.452645952612875 4.718281257132516 -0.38990368064394787 -0.16608940756432683 2.168631928389581
Ni 6.923009646456977 6.264340610717851 11.12405906971381 -2.1419564759809244 1.5761044927006984 -0.3167449970720867
Ni 0.13856614953810317 5.333604745366132 1.1284862165475202 1.6075321150823605 0.27373635472104474 -1.7214096165298223
Ni 6.452590185976579 6.608541584380163 13.581640823558791 -0.24645977839327876 1.13954403143016 -0.7959646877740485
P 3.49553641302852 6.480436326367373 6.696915902363404 -0.4019683251179659 -2.3956425969193127 0.9557764898597796
Ni 3.6262534085078695 2.397324044438575 9.147342796771527 -0.5500870071364848 0.6152446747807404 0.4118557594350068
P 1.7268789540014726 8.794686671602705 9.157599210630417 -1.6977420977095539 -1.789270542037854 -1.515530330662067
Ni 3.248350797643615 9.187525446555078 4.2619168478867495 -0.25198636463846286 0.7767541762838688 -1.2708746953570629
P 5.48471374085129 0.5610355972427644 7.310971629065209 0.30371207514752857 0.6510197754978206 -0.370743048555097
P 1.5169547461021133 1.6932052001176785 4.787767415402081 1.7757408829825352 1.3956307913902415 1.1724767776024387
P 1.8887509102918847 2.3730469687707663 7.119708796558586 -0.6978156528054369 0.353785594765152 1.5681795814266672
Ni 7.094101686615102 8.686201975126952 6.073882676661776 -0.2864849126359647 0.6026429268563298 0.5190849023280157
Ni 8.60330487027198 5.060050805452294 6.729659282864983 -2.226597963381404 1.039029067332533 0.24423680260003103
Ni 8.629013289604737 8.124901486361779 13.231204210514576 -0.08624457022154179 -1.1767576643659798 0.20208613737391
Ni 8.94407619580205 7.182798521644925 10.382798716175406 -0.8220559855444616 0.7261150139707624 0.18226627443450544
Ni 1.2773162154960218 5.98407608556965 6.70690091859232 1.6314019797214225 1.1020642893171473 -0.44710686932781707
Ni 5.962420041807783 1.2165863485689692 5.053699915022043 0.7109509046358143 -0.018544081550774517 0.7702755105380605
Ni 0.052120427726788154 3.293967906134275 5.7470623046452545 1.1846676632416757 -1.525119259902083 -0.9027364314146648
Ni 4.915568745247054 4.951900708794321 11.531343262354893 -0.4103202966270869 0.7829407647105548 0.7576930458873596
Ni 5.073713631344973 4.207388230915885 2.4250010260326023 -0.019055216859238153 0.6358718641127888 0.4671596742136342
Ni 6.385419272557264 2.195058454590622 1.5904765499516795 -1.008071442608754 -0.11690111876513415 0.3964684783456591
Ni 3.4216920921323712 1.3881895828931465 1.3032885969072487 0.3807600664714668 -2.3288885313222147 0.629937758016541
Ni 4.711397795325633 1.691699500937669 11.189818157790883 0.02642476985043191 2.3208533197225645 1.514244264860792
Ni 1.1183441242930359 2.266569871201694 1.0251729461443448 -0.8476929693862756 1.2394542720642525 0.11241377241774188
Ni 4.463477919229488 2.520902910471953 3.845640285142832 0.2154229636921322 -0.5978663314032929 -0.3855819133401424
Ni 6.823205956364737 8.735313792825536 11.770939038539824 0.3235026275108945 0.6084225096525844 -0.0940355270208703
Ni 8.288297730710966 5.115250480946595 9.73281719292736 0.9203600580336987 -0.921200294546807 -0.6897328757973025
Ni 3.405240934424859 7.3005311853065376 8.843566128316718 -0.23460724993006693 0.8645002707516015 -0.9616326915302407
Ni 2.405540328852948 6.803408800479427 11.329306315715757 1.7061249224566102 -1.5119477555171317 -0.7092961426412108
Ni 1.2026539839341894 6.6071288295939805 8.854720385019986 -0.2562883344479263 -0.44174946167064566 1.0502771294425266
Ni 6.382370696439713 3.4960011349976585 10.149052860137994 -0.31254432872717786 0.7708149279812982 -0.9056685174597952
Ni 3.598844106768065 1.697805947612152 5.881654151903283 -0.3402654487915301 0.9332837080739023 -1.370559964464543
Ni 4.21118965662344 8.315669854693239 6.378760736183443 1.6904915867947274 0.6128219242718607 -0.9059806493835751
Ni 7.015712384860776 8.48373190761258 9.338047962915184 -0.1636106070065311 -1.3776418110119886 -0.636782034631884
Ni 6.1601964174338555 6.6824137885944594 2.4087729348702775 0.53684068364954 -0.028698910596589286 -1.1684290898956264
Ni 7.658692406921777 2.0884326459914258 7.0912231987382555 -1.5178679776563084 -0.2545690377639745 -0.878101406474804
P 3.410445820479213 3.476064562521606 11.310873583531837 -1.2160181525284992 -0.47698000273816565 0.20477268306713767
Ni 2.9796299662088197 0.4533632347690675 7.590670122854999 -0.708776779802631 0.23736964316655249 3.2566657077555914
P 7.234438426855624 4.277923731391765 8.062706815788001 -2.0720720922849605 -1.1487598936014733 0.549979277914027
Ni 8.872834317933076 0.9838071142273658 5.3087755799989855 -0.6372348058985864 -0.3343380275635016 -0.6259700316180445
P 1.2485406311669502 6.3219382515729095 13.059421593510312 -0.19158652339416682 -0.0751929403930705 -0.08211923519925858
P 8.37197556847409 3.313681412065141 1.3503872390355236 1.43148173965058 -1.7473083386734554 0.5948578835942723
P 4.5387164060330525 5.934490251462544 3.617946968031483 -1.4899108303217503 -0.08130342416618257 0.002610698149969697
Ni 8.84970045830935 0.3852247702100047 10.37730291416837 -0.7674560388113945 -0.12562178646758368 -1.2742616095514248
Ni 0.17132440114269418 0.3931854575413516 7.817845739692728 0.10793696759331088 0.5496596897910792 0.1127593286826187
Ni 0.7010535382124571 3.362467924385328 3.160207911201005 -0.419276220268794 0.9888832997160776 -0.2455763473470609
Ni 2.9579925113257195 4.272282006686421 6.822366668488473 0.4007784185749227 -0.07676439864524844 0.5812330937219862
Ni 5.211987006042519 4.44392241876813 5.420445480851214 -0.7088631688688501 0.4726800898112311 -0.4268774296548196
Ni 6.034767957963305 1.5669123577845299 13.040648684844982 1.6011472946019392 -1.3266794610315087 -0.8231548750355953
Ni 2.4478857946808716 6.696810875198378 4.562264797653253 1.9900883542223018 0.6394503254926664 1.7049905517418507
Ni 4.565660985803718 0.024662794902193835 9.945560404291514 0.4889762558680934 -2.0039044341697876 -3.318050795731292
Ni 8.16650339703908 5.404130951402629 2.868660866086053 -0.734516093550264 -0.7250955715673125 0.20346476288899154
Ni 4.680168478999508 7.892317435247214 11.560263839938335 -0.01236777753673354 -2.1276390309169875 1.1314972498662836
Ni 5.675342692592007 8.982452936013527 0.9159948844906384 -0.1111575314131376 -0.0918266922950096 0.7922234755640614
Ni 1.0258737468738062 1.0176202847019018 2.9962744482554937 -0.28178287917460504 -0.828065167853019 -1.5195078272525766
Ni 5.033273525590518 2.8772703052863173 7.290008950481298 1.714284318338951 -1.625744010104697 -0.3060144980284601
Ni 8.675894441851455 2.7105466516380967 8.964880868916453 -0.5679381763852929 -0.304392903264637 0.8393278852510319
Ni 0.5992617675362419 2.334363512059656 10.897359328172477 0.4339564479887881 -0.14912218358236898 -0.21737905897723855
Ni 9.23766894702515 3.498966061160764 12.863479010774462 -0.5770609646221675 -0.915395772049888 1.0147136305156201
Ni 8.96517457320095 1.0497976338450692 12.72771699359814 -0.15451970044885646 0.7826821117325296 -0.3524385938189543
Ni 6.827146798663034 4.609967578341407 1.0472714052208312 -0.799004760151953 0.30355266675152887 -0.8342887801652277
Ni 5.285654732590395 6.5076597393195215 9.657998814783896 0.790739177709051 0.28722539034641503 0.03495414747768174
Ni 2.9694339662059157 3.2732506007500697 2.3039316586325733 -1.060133196301 1.7965182247392026 -0.7621616231816745
Ni 1.034684875408677 8.40579803338801 11.61886713913461 0.18101903229096566 1.6733122468019634 1.7168515648454947
Ni 8.390406441770134 5.610867166593697 12.445855683763979 3.7586782279823527 1.6255473207128586 1.282899487732081
Ni 7.863393139888017 8.322956695169333 3.6913646741599626 0.5483761950929652 2.1991390958395027 -1.7249675090844097
Ni 3.0160176963923844 7.515901934684202 0.19174335502271286 -0.8661442341129276 -1.8188783376019577 -0.8405797553802621
Ni 6.9526310247698815 4.061103049470387 12.341191931318486 -1.512482287864363 -2.244123116749361 0.21387747358188325
P 5.145987191985433 0.499395804700138 3.178531898444146 -0.17429714018609982 0.159741353859112 -1.8856030926230172
Ni 6.310738452116665 1.3882732328475915 9.10772989612214 0.2264681657627003 0.5282416291266193 -0.010536894975581853
P 9.18060108921491 8.116973329568271 5.466125791529677 -2.86970234068689 -1.953856625583777 -0.41949039316212916
Ni 1.3758000951959073 9.312842372753035 0.6300226441174746 0.4541290662819211 -0.8347680337944914 -0.07521788009373498
P 7.257879002978982 4.343254345813292 4.713779030695499 0.9121227577255712 -0.7442276644110731 0.33911179480306114
P 8.322296789973157 7.592162809819873 1.626743452423268 -0.29955948643173574 -0.3953626468759901 1.1941730316289496
P 7.338396731351963 1.8075732767227266 11.202550610301344 0.014269365434820587 -0.0968557700784848 0.6008107587435976
Ni 7.696334886422017 2.62163604450247 3.4610187240487695 0.08744733228039132 -0.09677272344637528 1.009988714236125
