# total energy = -381174.6171399465 ev
CRYSTAL
PRIMVEC
9.19765986491729 0.00000000000000 0.00000000000000

0.00000000000000 9.19765986491729 0.00000000000000

0.00000000000000 0.00000000000000 13.46170492601294

PRIMCOORD
 96 1
Ni 0.9701783481605264 1.3476870949670663 0.8191527750545088 1.2825901840217782 0.2885767621679869 -0.67538791992954
Ni 6.092456237566456 8.121901466232508 7.105908655087915 -0.6130579515420668 -1.5850940977938184 -0.33284318818553
Ni -0.08634762973929923 6.943423717698536 3.5026012793559214 1.2494111261666483 1.2187975150458492 -1.7962431167009454
Ni 3.7984311285126027 5.396073824863903 6.069478643977329 0.732674412355835 0.6561984914852828 -0.609581305847376
Ni 0.8137997370796183 4.998146273410874 12.458390171563513 -0.8463130583196135 -0.9258701892186506 0.025027375282273025
Ni 2.819202283157416 6.231754794490367 9.789674478650726 1.21260449886126 0.5021030230580384 -0.374352106062594
Ni 4.617436741011101 1.5786955172649186 4.005355478753323 -1.1553678858362941 -2.042333427569947 0.6455302131381592
Ni 2.9632836231516775 1.0447069851202133 12.325537334592871 -0.16993680633487507 -0.9740706601832773 0.7459582739489347
Ni 3.440421420377485 3.3769207774588526 5.176132946544034 -1.4116888732943687 -0.8652973127316 -0.9440700000561288
Ni 8.117173869120663 6.706666758056514 12.872203001171927 0.4060738626459071 0.3879676399634996 -0.3160158322155461
Ni 5.6498280597251656 3.4299636812409724 4.659756093289913 1.1955334023115862 1.5582173280076326 1.2930795135888762
Ni 1.396057587595845 2.9775859840639702 8.654906768549868 -0.8476682867959272 -0.569282092007697 0.4882961990819332
Ni 6.868324825834308 1.3477422809255704 4.634192117778898 0.6257661431373546 -1.2652527211845952 -0.5143175628463593
Ni 1.70907234423068 5.520297417456466 5.083974235374261 0.13417070447885926 0.7829975860904193 0.820575030123561
Ni 3.7882309238491083 3.091931290084312 11.537488285517206 1.7372815505650727 0.7308005923718898 -1.3716771087881217
Ni 0.07415061314393442 3.6042501358564367 1.6133044713747435 2.1381111340929047 0.35269930367950875 -0.04340356379661557
Ni 9.028891891905925 4.499743486841515 7.544800743538482 -1.7103222483674092 1.3379336937890893 0.7808633133562357
Ni 4.914769487771042 0.972201833305674 10.792894499699562 1.9644392861956295 -0.3298203421988062 0.8406910841471457
Ni 1.0625044567377617 2.3849807663282387 11.482336358354258 -0.779034230567297 -0.05163572189842076 -1.5907003882370023
Ni 8.686610181944454 2.753025121251338 3.833072274431555 0.2402546780238314 1.4035281918604474 0.930741401268023
Ni 8.468414099679286 8.011649118801214 10.551526753224529 -0.6297832347165476 -1.0610863042428886 0.6168950658999699
Ni 1.420265828059611 6.955601419208424 11.484678082526779 -0.8967701865289008 0.7527094766298391 0.7296104287185305
Ni 6.373490731248208 2.353451188702939 9.195690531718368 0.8435686628052569 -1.177751395737817 -0.07936378394130848
Ni 6.413638516059887 5.670495201184924 6.115289427897497 -0.05054223172392586 0.04076484062218786 0.15867306049559768
P 7.084074330605796 4.786397750630926 12.858808449277024 -0.27505353087057144 0.09745175179127087 0.41820381314022165
Ni 6.4736348506135135 6.629185672316861 3.6406241208724155 1.2879414210313624 -0.8098543012719472 1.225770861039889
P 5.628250349950091 7.5069643306221465 9.434757023723783 0.29389174662299705 -0.4000369124232078 0.17103363894347964
Ni 8.867610928177909 8.383482909541591 1.359430666936723 0.6787887180809729 -0.5524377667568485 0.32423513480154487
P 3.9047192845913568 1.6736889471698486 0.989871457452688 -0.4545165315283269 0.4267455320626457 -0.4484656973485566
P 3.5516395220825987 6.7214290019563405 1.222258608947166 0.4120293088983937 -0.6342111885809142 -0.5944277380353892
P 2.3740079582456883 8.688790027305364 10.632605963458644 -0.5994671002315095 1.0552162186153569 -0.4591802555525834
Ni 2.0611771548058666 5.090141266237086 7.674167667463619 0.7667003915922924 0.5197760148577694 -0.16546771481992792
Ni 9.25045431763984 1.1615816475719893 5.598386468505638 -0.20410985267215814 0.6428048437871962 0.38739094152442316
Ni 8.119997550664118 5.6480713067127875 1.6546323159324337 -2.1582372154188185 0.004770939026082106 0.19286718987880333
Ni 4.5595650658598785 5.934081734319652 8.038966168260707 1.342495859238475 0.3381329758295596 2.2474051299347426
Ni 4.56356604785142 3.2961377318687095 2.55963512733373 0.04323052855386103 -0.3848041546338534 0.3284949385191633
Ni 0.9561151264017504 0.5391143879237544 3.2149647055051376 -3.7722485104676196 -1.0929800676276917 1.9795931111179323
Ni 2.939995148662978 1.506815806313425 9.93817069532531 -2.514068894079722 -0.4849658491571196 -0.7494524031451222
Ni 3.250434560567625 2.3770799766024124 7.269777840269769 -1.0805870932799777 -0.7213607871152286 -1.1930543446434745
Ni 6.437138536722851 3.270936144151871 11.373713836230783 -1.5345714064539184 0.8160198066527108 0.735495683854714
Ni 6.311535295167689 1.2179816971631041 7.037617870971133 0.7107452163829114 1.6066119172609366 -1.1854757609652682
Ni 4.790785034331997 3.638575802045941 0.33152136781916014 -0.28325560706538955 0.3235748755097266 -2.0290197411801763
Ni 4.05664622835294 0.35009788121759033 6.230507591828178 0.12465530878925629 -0.8866768068486407 -0.8895019350022617
Ni 8.256058531355794 1.4758656812524171 2.0227290975161116 -0.8762761803406071 -1.7664699992035706 0.0699435190686731
Ni 6.491321950314054 4.592639850323292 8.421642160315175 0.518637787488268 -0.1017120697295216 0.06312392504367838
Ni 1.0916334451681367 8.268990440965238 5.615631160772171 -0.16509284797901244 -0.42154881835305463 0.1509021583009272
Ni 4.3163605467326365 3.1797597430434696 9.033018881836052 0.5245384692434193 1.2923824875218517 1.8901102364647515
Ni 1.0219427772373026 7.508334781924997 9.053265690245203 0.33371813459131555 2.5638464797234812 0.1535642785141226
Ni 5.468992871367223 5.476939649391802 1.8852443190950323 -0.6303316510208499 0.27680779455751686 -0.9692367291297436
Ni 6.574505585099123 7.781799601631947 1.1890035503526402 -0.1058014093075468 0.32865666090800816 0.007706110395006084
Ni 3.923556091760731 7.625172653737771 11.63894950975881 -0.3492080026967986 0.37363656805280815 0.037955653308166894
Ni 7.581695316096349 3.4488648720286013 6.085269186237282 -0.13245886399407508 -1.6419067359074884 0.5404795659537079
Ni 2.943940944696016 7.487170966838703 7.582224181532012 0.04212443997387584 -0.11421971527822909 -1.1925172411930816
Ni 7.91617741058925 7.787226220884842 5.227328040482243 -0.8695337194104508 0.7830664916551417 0.8020620589210381
Ni 3.23816488246023 5.36257594805196 12.52946784658475 -1.2598456912364109 0.5229842373824218 1.582623781876455
Ni 8.68791624962905 8.673448330841245 7.334704120449755 -0.7198628624134634 1.5870219109441506 0.8979708917052213
P 8.356662533708635 1.9918543932650596 8.108576816551711 0.07476767993019381 0.394200765357405 -0.5459277335524726
Ni 4.548868187569848 0.5622465021966919 8.493541186352145 0.22559964711481792 -0.8168237906112449 0.3003231040706376
P 7.263879381071664 8.667571026260566 3.234753470458706 0.42348922990887716 0.7014792176999531 -0.21203399261524128
Ni 2.9281301675846123 0.5256830453898496 2.667060114157667 4.006897669379216 -0.03549150803839048 -1.6805365324645447
P 4.986281292332508 7.163266181059074 5.339814499466974 0.297222610768443 0.2756813942625575 0.0701440651152534
P 1.0615387024639413 4.667784730486273 3.3005544480809816 -0.3564592849425732 -0.006683582667762682 -0.9594937908103667
P 0.3736779215203855 6.79585646465877 7.149107303638891 0.765067741084876 -1.9052568622982022 -1.0648642832280821
Ni 7.307513078928847 5.486955900860283 10.69006098462316 0.04619218228534626 0.29947104048298745 0.591510050167962
Ni 4.8655344151257 8.074855436607825 3.090847805765683 -1.325492639812259 0.5752231400824803 -0.4447124009537115
Ni 1.8339213776862882 8.336262124381646 0.06080940767558616 0.6762772645130288 -0.8233024563570531 0.6155130979507787
Ni 4.25965697436975 8.724504540117218 0.3476393467662359 0.45600700003092437 -0.5516422674387468 0.6859903780357347
Ni 3.0040200581873986 7.703748260987753 4.700504485283311 1.330846705035321 0.12909766083132604 0.15289836279534957
Ni 0.9466507345183099 6.229262228697936 1.0549789315297626 1.1084051439335105 -0.3214691420206334 -0.5939651965766738
Ni 0.5838876758240458 5.438861338024026 9.658261995197037 -0.5867779347996153 -2.2240638841056404 1.4776968047540615
Ni 0.23245245487870783 0.17346602336570466 12.182788735496482 0.4769933724746044 -0.1113159113678728 0.19383315333649845
Ni 5.375480264682151 6.266632320264912 13.182710475758729 0.3167041165318223 0.0737819189781568 -0.8800708714963489
Ni 2.119959398272405 7.5748338619223485 2.5514105799846805 -0.038414338112140296 -0.15175653588142254 0.05903227147280801
Ni 2.769332571989278 4.538106925661563 1.798416571516748 -0.5201966473349557 1.2101344400542127 -1.2304106738047456
Ni 7.489847485826148 1.209087560184205 11.164989503976857 0.03093731300880478 -0.527321174194879 0.4884178122614621
Ni 5.981035787346828 1.5075240261142266 13.181620553078274 -0.8890679327886365 0.3466284148950804 -1.347310764128615
Ni 7.016278380583601 0.04996352729759493 9.000240262016609 -0.26208694340757444 -0.7315426127442368 1.3096099071437315
Ni 2.2916429151784294 3.2336304362031494 13.071395798626233 -0.7495675885667478 0.46506396802687006 3.646809529434803
Ni 5.7995383674868375 0.9031476434295863 1.9544245169097039 0.13276071150521007 0.014858662279387314 1.2233951617188608
Ni 1.0263944445566273 3.30985144255696 6.082994604980941 0.901551409967628 -0.49513816170443115 -1.0722850011721856
Ni 8.472056372940552 3.0954999820675724 12.95313504885003 -0.03385860042065782 -0.8670603181692939 -0.8608611313371173
Ni 8.593419493350657 5.188970120258046 4.736568509165691 -1.502741149317199 -1.3882021030263383 0.7767860579630687
Ni 0.14190425393127717 0.8022566740925261 9.687554701970976 1.0985632181424243 0.3035482958761546 -0.9917194836132922
Ni 8.364434556197951 3.332670836398375 10.031016471678456 1.1137409543241272 -0.003235733328478298 -0.4190918721721299
Ni 7.921833971335913 6.5712588112071355 8.693178230772409 -1.0791691298865285 0.7661242073738482 -1.2479479113575604
Ni 4.732573045770001 5.486348855316739 10.895499912814147 2.010363816641886 -0.6407345915217287 -1.6744396755381874
Ni 6.2494234988714075 8.04432840389535 11.616535732712396 0.22145939969419925 0.34967954301657844 -0.3598127747958384
Ni 2.1135762224054395 0.382019279148269 7.847514121252566 -1.2453829788438615 0.5283879248964964 0.14338168155416597
P 6.838184094831358 4.499136441297971 3.1929547057217817 0.9989962197803632 -1.000420868042032 0.6667551839552065
Ni 1.9530862574159813 2.6417886242267232 3.0215599953319283 0.0821122932207231 0.6022786015383756 0.6029817982529873
P 2.726940558198436 4.154398956183072 9.949209726558065 -1.4976156551651756 0.28999061179637803 0.8108372340105069
Ni 6.984546454443786 3.2279094918382323 1.3574375340687526 -1.5575511551785433 1.4006261877223039 0.25729389289430526
P 2.4114332357711685 1.1179387520550557 5.03619883133135 -0.5861809246455646 0.3406721973116455 -0.3964844191852591
P 5.19368851971014 3.26969446008553 7.133990030072687 1.6110493842069997 0.7185701117439689 -2.1135648122121085
P 7.756653199873612 0.4988525521311672 13.48822454086689 0.23457048315486057 -0.32548469093792975 -0.25183929753763723
Ni 3.927345527578007 5.489843966021994 3.668395534723591 -0.15697716085041352 0.42932691963657676 0.5150441565997388
