# total energy = -340857.6472242173 ev
CRYSTAL
PRIMVEC
9.39620995150699 0.00000000000000 0.00000000000000

0.00000000000000 9.39620995150699 0.00000000000000

0.00000000000000 0.00000000000000 13.75230304748943

PRIMCOORD
 96 1
Ni 4.704249963699715 0.07919595333112897 7.896049371262927 -0.92927587246609 0.8830371532135244 1.490192366117911
Ni 1.820393475768278 4.535992036868068 3.02868308667127 -0.0995968231587317 1.9199805416616225 0.2504174774894462
Ni 8.454549739116477 3.6317196091904047 10.204125861729857 1.8851436364880951 -0.900745369126565 -1.701693626158134
Ni 4.687637464976402 2.904669092384002 0.5127577398643933 -0.8175961500008951 0.15260551414527912 0.4250881989648808
Ni 7.247813321674436 3.4813708580186193 8.320569185216188 -1.055810143445614 0.9267515633823394 -1.027315635550347
Ni 4.738395789695481 4.62202373274513 11.868113789563314 -1.307333195294413 1.1253893371963326 0.9824809957341595
Ni 0.3390049096088828 -0.19367937213476843 2.482249331295366 0.7409654487200336 1.5566931780536222 -2.315600041743425
Ni 3.6633190623615013 2.96787739493588 3.021463039149215 1.1181581095552162 0.37221937599030736 0.16998257197114594
Ni 4.644997465425276 0.5392108889909435 1.4835572113547237 -0.09034985063916696 0.11119892617403429 -0.22220939048634636
Ni 7.167860973463655 2.5909954244652647 13.56457031996374 1.1561150484149636 -1.7168132554083917 0.1475324704977459
Ni 3.7287072855603296 6.271847814099221 3.253932783727111 0.586129759692655 -0.9872120826612417 0.1467516264676634
Ni 1.62081798205609 7.122608827620062 2.7944261830112618 -0.4813897017700871 0.2341303102936484 -0.24404602674546355
Ni 5.819908920663776 1.9404958279636262 6.859675631622001 1.3642759312280441 0.1780794900466675 -0.8054605430796258
Ni 8.568826441307042 -0.00949956799166772 7.06473663254837 0.1350183971911352 -0.688694150120143 -0.0005515016280958244
Ni 2.2770680588850283 4.152833398327785 9.429733482045886 0.9609624049360933 1.6395860581941117 -0.8147985326511
Ni 2.8619727155747654 2.8378056642646077 11.682003064329919 0.15715199586538095 1.781119116575313 1.102419615774037
Ni 7.859976382660739 6.866533925071179 8.763902090201022 -0.7300454593734201 0.17839727839740244 -0.4382087955072389
Ni 3.8480767334002373 2.678868777440612 5.463335917806603 0.03728202427990999 0.20771248242175194 0.4969081091206604
Ni 0.4198527166026579 3.109797746020103 1.9165486479601006 0.09296569099545925 -2.3855792991460403 -3.0701499140161124
Ni 2.7163408616649156 8.403612886413379 4.609496705992913 0.7450969543899039 -1.0030408221633822 0.3731161767729639
Ni 0.22188491436759553 3.9096688878862733 5.072605813502042 1.641168057969251 -0.07927328111003122 -0.014062905850969329
Ni 4.8136406368540126 7.20907274914264 10.2925394967621 0.5230855388469766 0.18781317239466366 0.8104230292912236
Ni 1.9274632851303493 3.364106161148181 6.746467278472635 0.1531143354608976 1.1718548277477239 0.3008928605311786
Ni 6.459875366108383 6.592615620330233 12.750337071593847 -2.4003312606442337 -0.07208293400917908 0.38269225049717315
P 3.4488129914596395 4.686810598524111 1.5257076683812543 -0.19586818148865623 -1.5499568877710532 -0.21043348089734082
P 4.487216312392552 3.157107661784739 10.192615504865572 -0.6091799566438992 -0.43097679653517385 0.6930845658783547
P 0.9598604041749004 9.58187878850947 9.568480733119442 0.4965381273757513 0.8246476575310379 -1.430676213030149
P 6.190937052500555 4.349580632924749 13.636109302022456 -0.740192832220067 2.4602104534983695 -0.7323602235495258
P 3.1304600111177066 8.653608441295981 2.5870696880588167 -0.9092320664413374 0.8499519406237814 -2.1274770514178263
P 5.967777072478687 3.0147456888453146 3.271548797644795 0.4824659655534014 -0.5848550067452895 -1.1232494080351945
P 6.629317215360355 8.721580622158221 7.943550030084171 2.5604577657569063 -0.07836336770125214 0.8700116874881338
P 2.8746857872787484 1.120018798257963 13.001771186179244 0.4548451185123393 -0.3134591272319634 0.7048846438370763
Ni 5.379809251431598 1.144411358600564 4.335372624259862 0.10637270842998456 0.07642295614542967 -0.055236037655169386
Ni 1.47590024008231 5.045125658656906 12.05031757080963 0.9240634750272151 -0.4453736886867942 0.43208005690168166
Ni 7.277242250408268 3.838276486698646 5.1365122544335255 0.27606243175106 -1.2216689230563733 1.1573190960253938
Ni 6.632868982621335 6.1470097722225665 6.339715697033955 0.25169942952566327 -0.7766220215813786 -0.6879367031288282
Ni 1.4754868068561644 2.2393422769992264 10.008733560569489 -0.6955307134260023 -1.4666474889184353 -1.0382106851962958
Ni 6.834304925851178 3.7170184007120266 11.480339732825694 -2.296043459767736 0.004086511364547801 1.1222672466275834
Ni 9.3578355647772 8.092805062448607 10.533191460733809 -1.2783103256995019 -2.1440627236906495 0.050998345424737974
Ni 7.58702588751736 8.68057556309231 2.047264018994804 -0.2184344968249464 -1.1479224853018424 0.34442600792712297
Ni 5.334904765346356 4.5207513847587855 4.364774303985606 -2.575812650946422 3.038892755774044 1.1425676487478322
Ni 5.329943566632606 1.3177996159202914 12.2564647735756 -1.2751488972523846 4.060934287409645 2.8719386862165766
Ni 1.9237048012562965 1.0241962518889942 5.2971536136944035 -0.6305571367680948 1.5052114652345623 0.7372846574343367
Ni 1.9180388868161624 8.923674300066025 0.5614855436705156 0.31413327048085254 -0.35018579322903565 -0.55524361163676
Ni 1.275770369998699 1.4251137267341756 7.72905523463393 -0.3953996707615126 -1.4987363990331801 0.43494786536777996
Ni 8.246235770397115 1.3483654860260232 9.084138070963855 0.49015099290248487 -0.2576559042194143 0.2268551167884738
Ni 5.095573908456377 8.421709986266942 3.208618622899597 0.8410201853517902 0.7134911545591647 3.366411446422867
Ni 1.5334802130327947 6.416229972120949 5.307027150831539 0.6263338427153665 -0.27228008189049235 0.20411242377531946
Ni 6.198096964280625 9.350017918319171 11.047609510849563 2.010796533303931 -4.62791601341894 -1.3567117457275408
Ni 8.689501962293184 5.975923586275696 5.381331437400589 -0.5901915884668546 0.9391177982571762 -0.4632873357424214
Ni 2.337513875789478 6.784476825890928 10.252534194406685 -1.3241590086025001 -1.2043414875215195 0.4101292636622033
Ni 0.3116854299493636 2.6200579010213754 11.920207315678649 -1.108550154151807 2.639330211884093 1.1530636631831497
Ni 5.755911336498347 1.5057144134132316 9.52532582127757 0.7999429556955062 1.235329965483234 -0.8328263366870883
Ni 8.425374508044143 4.184028814482421 3.0122491159319758 -1.0953943334961393 0.875000398951977 2.297972558469649
Ni 4.32028325112651 8.586745013176587 12.948480582950024 -0.25333696512908627 0.13612679976396555 0.22190728586489528
Ni 9.098067951822062 1.7377538115875486 3.879606654619664 -3.6919635002636224 -1.563690692417378 0.48989105437287894
P 7.653626221765571 1.5895661886433432 11.213434758993728 -1.3883957070943831e-05 0.7478727173628281 0.4252990294241063
P 3.243524602258891 8.437758712409146 9.392767853523614 0.22739710533487287 1.3283308805920024 -1.5118911912475834
P 1.0473954936015835 8.505176516899963 6.290468282832245 0.14701105077663715 -0.14802509386344828 1.59337896351043
P 0.43976610378835657 5.132463427680202 10.179592358241978 1.1537308644535034 2.126749429223182 -0.4634611423161244
P 8.671968635020729 8.634449569748 13.368888615545071 0.27069525390187577 -0.33673583837171683 0.15459477666116603
P 1.473663942177249 2.5016656589887214 3.6721815673365166 3.6780003532153107 0.0360779766694798 0.3038007782065929
P 9.158682900500843 6.154977758035558 2.514360877894302 -0.8058287250523218 -0.3045785369128819 0.6294649321451805
P 9.559891657846263 4.543574778083969 7.375346196488786 -0.692453360052259 0.4292266466132866 -0.8370177490606167
Ni 5.442510158660478 4.89686286603522 9.481360016539874 0.5594730763370752 0.7447866222383367 -1.0510224922489835
Ni 0.7558715107736059 6.767037460715325 8.027535231491811 0.7034790217388014 -0.7903278012032454 -0.32207360837385174
Ni 6.749006134329558 4.997129819585256 1.8714684527537464 -1.6370630346619417 0.6337154798914183 -0.45622811490279486
Ni 3.6568450738884457 6.601823905821661 0.8404139074155746 -2.031509854591882 1.005711941237642 -2.034849717598392
Ni 0.8414653432793409 0.5962881647232734 11.672651956451276 1.0821948040867297 -2.635386653855313 1.4986970611548125
Ni 4.050856334615055 2.678286212440134 8.141514073835358 -1.0874845917307594 0.967895641720817 -0.28756683284623374
Ni 5.540089796240568 7.44276588022154 1.443881715959257 2.3937199259753035 -1.1181753359463968 -2.4251318646276814
Ni 8.110742426737522 6.682227272097329 0.7068975262737333 -0.9894175749529927 0.9929826665964319 0.40182897132662404
Ni 4.64130475501902 7.0890455666247725 5.352671118619002 0.45038039787276624 -0.13574524805483076 0.1736754474417009
Ni 3.003705142465286 7.969855658718664 7.133319567040142 -1.2183236607332244 1.4291996284846225 0.5096363553206061
Ni 2.0636143634679014 3.3713130539766762 0.17916598665511466 0.9639520836920367 -0.2274045615340406 0.15926081467826766
Ni 1.1363869955294619 7.383222099446862 12.748769783818368 -0.07121030159623865 1.5069477311993789 -2.1919680320123605
Ni 3.246747502180891 5.801736651132733 7.053638769289261 0.42810590274528204 -2.8857123429619014 0.0953593880386164
Ni 6.9474634790892145 1.4588837043425376 2.320604456840116 0.4110044671783051 0.4927298093732546 -0.6758951985832619
Ni 5.206176692660057 7.158633895552855 7.796483374955401 -0.46683880053910565 -1.2995440382672974 1.1194773425872722
Ni 8.69361750213527 2.4366626803869833 6.779403812281925 0.2642592684685449 0.3904212437103147 0.033465221636981075
Ni 6.406627045822743 0.18250727881914736 0.17046227762377758 2.0287299778538994 -0.9531009999101457 -0.46548794293816603
Ni 2.518522459163847 1.285279334200052 1.882896122972803 -1.594598437739828 1.1430263335518058 0.3080204727148953
Ni 0.9372728557128134 6.10290396396056 0.6891556031462684 1.3146623819659746 -2.718066903764364 0.802855758466927
Ni 8.534370540391667 5.813754403320016 12.345552116842265 1.1629289860130037 -1.2118131133082162 -1.2403600717079735
Ni 9.598510079652154 8.344473142655163 4.424583057873404 -1.5886463339214512 -0.8705135668252169 1.055072493948641
Ni 6.5732594283788615 8.861471391950456 5.655992042706662 -1.3381977460837535 -0.19648781735052612 1.843687683336154
Ni 3.7039012919915835 1.000405048966242 10.71230107013081 -1.0726099886117721 -2.0791338842277485 -1.6120487720057914
Ni 9.093755091576586 1.2746428248364834 0.14644274680567648 0.6068489945178774 -0.5250616887367409 1.1063063524229528
P 6.7886017619427 7.45384401144031 4.2201826104879006 0.63586646479615 -2.154655925825463 -0.8258568473477905
P 2.856588687425185 4.716230131048256 4.999196046095017 1.071446050210658 -0.14407330830455187 0.4118485603461552
P 3.5951777497249293 6.760995697887784 12.056905253419878 -0.7848906893480742 -1.137356793970854 1.127005532643517
P 3.9775565028613467 0.23775135404190817 5.976118087816179 0.17545670771183977 1.456785251412375 -2.0202738766667463
P 7.006001865427582 7.042421574167152 10.734896135560646 0.6139043587027619 0.4140625372783385 -0.11094335851980248
P 9.315101603129223 3.86075222026548 13.612111382486631 -0.12065312960839868 0.7791417026794388 0.3430671799063833
P 5.275539512555696 4.609921414670682 7.127708150616183 0.268700334959034 -0.3556709847133229 0.4161926962474639
P 7.480642001462304 1.3034234151020405 5.414116692233949 0.7513100251791512 1.3847385699577701 -0.7232245797968448
