# total energy = -340891.82366682286 ev
CRYSTAL
PRIMVEC
9.06332950836812 0.00000000000000 0.00000000000000
0.00000000000000 9.06332950836812 0.00000000000000
0.00000000000000 0.00000000000000 13.26509887088687
PRIMCOORD
 96 1
Ni 6.476084416608488 1.8524539581723674 11.551181985918237 0.1470745570247209 -0.6012303627795195 0.25962305524811413
Ni 4.598642858442573 0.21002363289462525 6.120543587320535 -0.34676082670788666 -0.09175521562712585 -1.1827478205111437
Ni 2.5595477516785743 1.7708205475296819 4.915037354073606 0.38177385244796186 -1.6110139029833737 0.10323159169784157
Ni 3.1969989197403046 4.352365000399529 4.920927612048145 1.2969657360171598 0.4425570451736055 -0.8064743290561208
Ni 5.139759895081954 4.770991136091214 2.746618502098169 0.30621478696472426 -1.3059208883279185 -0.15146908654799077
Ni 7.276838659274406 6.012359152310386 2.721560208132931 0.2127767843185368 1.6271827994337524 -0.5290407279891469
Ni 5.228172676343128 4.387059426505913 11.715708610032447 0.05740116362728823 -0.5747577704102875 -0.9888578457947809
Ni 5.641931803983839 8.0641610473192 12.301376443831161 -0.16486247713576124 0.2854086488526504 0.5463115992544526
Ni 2.0880733404836698 6.328841562239545 0.5105310178877575 0.6129841608813379 0.5597772378410553 -0.43136169067841834
Ni 2.751744721378673 1.5741281662964672 0.21002997722541794 -1.7520970183113502 0.9935681067862567 1.3860007244996453
Ni 0.44892394055872537 9.182421856170812 4.53813606933959 1.9366346052785357 -0.5184300423528362 0.8448112769631064
Ni 8.743158518743433 2.5343607584315415 1.5970910184341722 -0.2997350927776515 -0.03304150383600116 -0.5361400580380896
Ni 6.742872589771372 0.9383446509002473 4.894277797386908 -0.7637991587850975 -1.3330645386222462 0.29904115203442044
Ni 0.7105759247784306 7.309801989407353 2.2887871211064876 0.5703323876490823 0.1553861622142098 -0.00043348799299280184
Ni 7.764110454143142 3.9577748150824865 3.6652531298914273 -0.21366664312265782 -1.1596269182229642 1.0593965752452916
Ni 7.63947154405563 3.9154671920248587 12.636731425202674 -0.13995182993701058 -0.37999876282541006 -0.024236246839545356
Ni 8.210814785257393 9.021493373949038 6.7532093172986265 -0.24150089172610661 -0.04663518336003581 0.28536673987112143
Ni 7.156649844071491 0.7275606046434681 0.7254089701717712 -0.20633488534793495 -0.9347687772598612 -1.0219705691883494
Ni 2.036802084348922 6.11506480451455 9.209573779297642 -0.521652663055192 0.06107758403761094 0.2802001080685174
Ni -0.00871076617838183 5.024202441357712 1.3768376053027978 0.4452114520773171 -0.2812660874391865 0.6203876524342606
Ni 6.144520626052102 2.1849331450288436 7.186393879493625 -0.25186012347324366 -0.6787015576838054 -1.3877768425634616
Ni 3.8139760260010114 4.187312703162497 0.66697224557315 -1.2595204466865082 0.0916765398703905 -0.16077827976405856
Ni 6.140541824312106 5.9005811070726555 4.859894243489367 -0.04641895358417166 -0.22725543755068606 0.4531746727884518
Ni 5.391892664113693 2.6183053181487117 9.398031219161929 -0.896444941978998 0.1506674165823018 0.33574390677209276
P 0.2986095237531434 5.789102151715151 12.64231624896619 -0.32841446299021504 0.9873221258765447 -1.3135238974861572
P 4.086138753678285 5.945426462447364 12.753808799318252 -0.27312700327181993 1.8672112203793907 -0.12005740500592874
P 2.3277712211617096 8.549094503124339 1.1732181211769215 0.31573301086780464 -0.5655825316689227 1.4342469611005428
P 6.4821477841803725 7.8823415901300224 6.0813048077006355 -0.2042093543644999 -0.2985516139925116 -1.1867564274499045
P 4.635521547007588 1.1053818173424252 12.800993400089528 2.2604120837173713 -1.7598473516807305 -1.3856582535585622
P 3.923606062098927 6.066476293972147 8.315585970301067 0.9257853428143282 -0.581814677257069 -1.2140237478062899
P 4.3260179009504025 1.1446804149383711 3.879537434079838 1.7111097772657111 -1.1934523514128415 -0.5720786809162277
P 0.31704343003782853 5.618022740225052 3.644718343781387 -0.7366416245336991 -0.8243527519984384 -0.5917435063350067
Ni 1.5760042755451666 1.155592663901821 2.4143677111502297 -0.4167549965088371 -0.26648095871021205 0.4896267449678987
Ni 1.7791044308790118 6.665943047244991 4.725492314644856 0.815938302682498 0.3795519050959785 0.21083328743892077
Ni 5.945317702490918 5.277024023446945 9.086394065292453 -0.27950179644991213 0.5478290643402436 0.921595987323329
Ni 8.741826209276967 2.346550440308112 10.23103913324498 -0.8781091197842876 0.8331071011523007 -0.22837900963216798
Ni 2.141855138946387 5.398001348334096 6.823487282155344 0.22482343107042574 -1.3517536303913171 1.3584338706249703
Ni 0.6197486724841472 9.231726369759823 9.119092746198048 0.038069296067895726 -0.5799282588676334 -0.13278667964713906
Ni 1.443978751749008 1.2411867496250946 11.241043906781782 0.427247925620361 0.5169220903487419 1.8131717741354836
Ni 4.2523964737659306 6.867729019771776 1.7845007373846913 0.013003097127887282 0.3469629154163637 -0.623757597347758
Ni 5.480196685418421 7.7526725320568675 8.021989374207129 -0.1804302496670312 -0.05297295265260554 0.694646768159152
Ni 5.220985455887966 2.8149614460631107 4.8907358481386405 -0.08559099579794292 1.044447410134627 0.06077496519552758
Ni 0.7970301204906003 7.30209815915907 7.204474315919859 -0.526595351772448 0.7205683731209203 -0.28769307401145294
Ni 4.990369031573195 4.526371867383977 6.819494885420792 0.27918837897455145 0.7052949919016175 0.1509378966348691
Ni 7.996775190970985 7.608737793029835 8.806526601033926 -0.8606772974610855 -0.9510747135087362 0.7145021123221823
Ni 4.6615151765982645 0.2205071863630825 10.281460249053504 -0.05661697716309604 -0.30971637236007954 0.5607051489719634
Ni 8.411114371712744 7.188996867784574 5.042156897501063 -0.9413752268327853 -0.07545390736394103 -0.4043604794992262
Ni 7.206389397486286 5.942163663753973 7.06106525001565 0.13430645872577515 0.525723747800772 0.1375524764668986
Ni 2.443165534951281 5.1841611473011735 2.6543465550490897 -0.2917836991410588 -0.16834272237487785 0.13128412695968358
Ni 2.4695760777083353 5.184405857203179 11.606165581899688 -0.24187473012575764 -0.03610625880425394 -0.7879009369293075
Ni 1.1030616049382365 3.3265501545273093 3.8646808240292674 -0.7782886106505241 0.40535343954011477 -0.6974204742495473
Ni 3.5618523202989762 2.8477072562831647 2.752176135872577 0.4406814254174475 -0.11886775557320173 0.16822496585009092
Ni 1.1700939914280002 3.5757010880864772 8.36555482595737 -0.302911176512788 -0.11087985227171872 -0.9770279430393882
Ni 3.5244479586111375 2.8125234103727723 7.278811746150937 -0.31335165511982166 -0.9515400831809289 -0.8553707976465076
Ni 3.7666473182874434 6.824506000414058 6.14920908650791 1.2661328097967033 0.7541019861019915 -0.6496552910501263
Ni 0.5728849135843876 7.205374304559453 10.758035502205741 0.0019782067722933674 -0.5575989992428139 0.9595446986529604
P -0.01568681105144446 5.6413336242233845 8.327418147229459 0.06475580422014655 -0.28130696797945104 -0.12138743667126191
P 8.620685744455146 1.7047941906370465 8.017691543261558 -0.3496399480278946 0.3747575690311288 0.30491766541985554
P 1.9110574480375395 3.433841851561628 10.367987857736276 -0.8713869705691057 -1.5271208637131441 1.6955296634392671
P 4.190648008493518 6.262035758992377 3.9770362033691344 -1.2461946761118796 0.3916813413696609 -0.24822689759603056
P 6.928960875251068 3.7230345757524588 10.391361278709565 0.8230538306813567 1.000883409500747 0.2821322920942238
P 6.231474211230956 7.653990998241217 10.201192682197192 0.9526153185229788 0.02543129558891104 0.01032400763382738
P 2.143287145039597 8.56334205741881 5.848489619599708 1.0581452193366936 -0.19749980355480826 -0.23185874065065232
P 7.011038389049244 4.078715886650822 1.5429702514405303 -0.7810178366562291 -0.14827140554629947 0.3517109716243104
Ni 5.538365135457807 2.654341117051268 0.5439049168562887 0.4205419743550951 0.9054201488944149 0.0441808082822723
Ni 1.4505949824328273 1.1650638434423568 7.043011097245556 0.33778819089563117 0.6687740141574482 0.09479400245344964
Ni 6.893749839351564 0.8014466810552924 9.021951978432053 0.1266448284154593 -1.0660829861265317 0.664494670055804
Ni 2.82803076749608 1.4669361658888906 9.212120574944429 -0.6749796287475278 0.6106889370892579 0.4584166379136815
Ni 6.411535382457583 1.9612501679375278 2.628598541693388 -0.5002978515284996 0.46349199555405984 0.9867670247040231
Ni 4.169639210239966 6.697175281404499 10.537489343524935 0.18898893787031967 0.5969322496247977 0.02769695169463617
Ni 7.790684136834865 7.317315489731854 -0.037427020012098404 0.5712479574848162 0.48498076155545505 1.0409260272449299
Ni 7.7659865633918415 3.700684404702735 7.993216927729248 0.39840349058484287 0.5647921745571435 1.4574537382343093
Ni 3.151646017902179 8.578849414542118 12.417273772419298 0.23983738798075468 -1.455931645162828 -0.6763924499346544
Ni 0.16202967678079408 4.930360725603925 10.46146704030191 -0.07596221445892724 -1.857338698460685 -0.28200245138457886
Ni 8.548396626737143 2.179567653844157 5.783450259311823 0.5833000035533439 1.8399721821577795 -0.14545733313627207
Ni 3.7304483794502183 2.508503078786423 11.466935617321928 -0.11172625943241403 0.6579093035288024 -0.8668314899879395
Ni 0.9892805638359521 3.7367564569241063 12.776824218768239 0.677921227874355 -1.9762959284238997 -0.2989498778721948
Ni 2.934352688252086 8.303795484689314 8.048797797138182 0.1542512772788182 -0.12967770170451215 0.35269776101761197
Ni 5.64977158417768 8.108607616186939 3.576695335354991 -0.8558284540092164 0.06273543135600809 1.4597291645320474
Ni 2.9578539021742003 8.417068979328182 3.4044213770099216 0.10734252854242159 -0.18897351125135198 0.788199699116649
Ni 3.5467165596935266 4.046405116256554 9.266454330186109 0.7961688333650547 1.3400270859830083 0.11533505982959491
Ni 7.366955346519906 6.076699729878103 11.380937307093864 -1.060575426044741 -0.13913730445551523 -1.4288777263688295
Ni 0.6006332038057318 8.568390332063862 -0.14618969545735433 1.174830622546596 0.506874733415069 -0.020860902609409232
Ni 4.526081840833453 0.33006290315742637 1.7563255643342952 0.19200047100313386 0.49547394777729503 -0.9852505880594966
Ni 6.046029422160233 5.77330476804132 0.22204070174897597 0.18373668833244486 -0.22346228905684098 1.6560218351526317
Ni 8.215826806583628 8.922675890187831 11.128714811098057 -1.6123861007405522 0.8939381163967444 0.21553917755502236
Ni 0.0017727872900754201 4.952910289907134 5.768793042514738 -0.20001151423306845 -1.2416337962140747 0.08667625844232169
Ni 7.989678603812861 -0.4091504244862972 2.8139119124834036 -0.32652573060793444 -0.014035137936827442 0.22329413891009284
P 8.367447249199536 1.522829720172608 3.5767750926563853 0.14506446857322758 2.526068232533443 -0.8075451935227963
P 1.8103457283682243 3.1740052522816065 1.5059864282509507 0.2602727730169711 0.8584877460089344 0.30991871817887273
P 4.594473726778797 0.8317988659005561 8.16169697626028 0.828542878820386 1.0737281613766152 -0.050330629933752036
P 8.736841377939841 1.4785191012504264 12.65059378798473 -0.5971142837286169 0.6936417239334055 -0.4585066265243265
P 6.49502677568956 7.7666663131196305 1.6431345459957323 -1.4341348610027107 -0.17170212576541397 -1.8286066206333154
P 1.6909363595198417 3.3728003260061175 6.053886422680511 -0.6124563134023259 -0.21609659272038914 0.7956299301424491
P 6.996863341392403 3.9112889970313782 5.975184092864055 -0.7181589923484794 0.6795932162601392 -1.160526032998466
P 2.2223918866949055 8.487056011301403 10.400023102907547 1.722024624406002 -0.3516299818747299 -0.8406643446742683
