# total energy = -340889.4419720823 ev
CRYSTAL
PRIMVEC
9.09227649574081 0.00000000000000 0.00000000000000

0.00000000000000 9.09227649574081 0.00000000000000

0.00000000000000 0.00000000000000 13.30746571291227

PRIMCOORD
 96 1
Ni 6.821607530675912 2.1747815505773587 11.12983168873997 -0.657376570953784 -0.5207697462296064 0.9001951530500496
Ni 4.929523032527799 0.6005930338135064 6.269386315614137 -0.6191075001702563 -1.6958240547512342 -0.9898816590736049
Ni 2.848019143756423 1.5504331266673037 4.519401365696941 -0.9271415997319065 0.09157986639152614 1.7580059275966173
Ni 3.606933255816254 4.4753274659174 4.730737688163788 -0.2199843578105695 -0.6788956759724823 0.1644572712775426
Ni 3.6336736401979093 2.869104132325297 2.700923389739134 0.34779749550251715 0.48044559268926285 -0.9327136945030453
Ni 4.863313077047619 5.032911305497468 2.002600206451607 1.7347420719726707 -0.5082587582467891 -0.28828159952507126
Ni 4.969392663780283 4.79541195818934 11.413160654366946 0.3689183366415324 0.04699822312640938 -0.41099932497198244
Ni 5.831294988655824 7.885012881279517 12.448481782162641 1.2238643880457953 1.5583659377703547 -0.7079725387337807
Ni 1.900385746342758 6.784220090833218 0.189363018510659 1.2944637955309126 0.8653057973720323 -0.03363080068056788
Ni 2.869340531507182 1.694909395903786 0.2853492694044678 -0.5153393192426545 -0.02923370005413675 0.225845701687353
Ni 8.105727886673828 0.21405582228614292 6.744156794097112 0.2624201583772771 -1.5088086956675175 -0.1299461248745504
Ni 8.9251420047437 2.8039216040586927 1.4340656293845395 -0.8399009841456825 -1.1911710115778325 0.3601817280994829
Ni 6.93564285910662 0.8262369621501149 4.776355456446561 -0.9039309659433981 0.7847497928948356 0.16612411745700423
Ni 0.6015640889144791 7.5973696305831435 2.312677739508841 0.7288023309949384 -0.22315247112590597 0.04471482640887137
Ni 7.770886630086544 3.919571173858825 3.7009528473623066 0.542033283594073 -0.37195198126153356 -0.6532900595892362
Ni 7.779242431938547 3.7886605807520364 12.743720720418494 0.09382186834816744 0.6598381451203992 0.18107096857482363
Ni 8.161845415542775 7.412178148405127 8.380789245528197 1.0170695323423065 0.5379123194471639 0.5240113930953556
Ni 7.086065476995127 0.8755152808416118 0.4083304884142688 0.11974630152341312 0.00046228434839920384 -0.01647022974088131
Ni 2.109944528807355 6.927259780425938 8.92336082783096 -1.8465326089841168 -3.080491662261753 -0.1771225254500369
Ni 0.3668697088221756 5.211738194317048 1.337825703984016 -0.38514739690588506 -0.4539722289890826 -0.8009359157363948
Ni 6.49232165486292 2.1842738869576537 7.247152425669503 0.3213236175817047 -0.0903717050160379 -0.7926806177061381
Ni 3.2546802902555365 4.622440495259519 13.525707392630277 0.48465088901986214 -0.2997075819738258 -1.0920745250942872
Ni 6.012867744895758 5.512301569531044 4.658664123745243 -0.9387118210680091 0.863130129876952 -1.6423823899923262
Ni 5.319854450924412 2.865030792575898 9.347470052408411 -0.5267591310438218 0.22262256676436498 -0.24976853105153757
P 0.3580429270616484 5.80207241286438 12.439219480370872 -0.8002885119603831 -1.0107415332417495 -1.4006786382267944
P 4.194630714257948 6.521344200577385 12.579639685182787 -0.8152147942529121 -1.8695933474583222 -0.6885352559447755
P 2.4879104515361514 8.694334572738155 1.1065718412157581 -0.028047907276151696 0.306718208963704 -0.2765583975508721
P 6.598055735098984 7.959951421936979 5.637814078242257 -1.365903182418822 0.059942956212535474 0.8354707162884708
P 5.228431613468602 1.1317428987207474 12.574184319446983 0.8073078807010097 -1.1622332454975597 0.986732571921662
P 4.284544233860187 6.201086955057145 8.05113604175566 -0.2107535832409209 0.09615668712893118 -0.2600123202667328
P 4.709699070203668 1.0566406970912101 3.656026092072734 1.1655605100985797 -0.18986876937211172 -0.3491190425274181
P 0.3289731015108063 5.674235009122092 3.426273364109444 0.39305739578158116 0.4947740934967931 1.2727168907721242
Ni 0.7844961404502505 -0.027635973589948917 4.56370166315452 -0.07770285129911779 0.09542186584543567 -0.08104734229131849
Ni 2.1191550046246337 6.7602346661481425 4.683921557874383 -0.18607870620206018 -0.42940430984173145 -0.5146975718935974
Ni 6.492239824376882 5.937847373752258 9.089491262128085 -2.039058356363101 -0.9081987400808165 -0.3461705014220554
Ni 9.001471663663793 2.210223243307617 10.070730621701912 -0.018543053109510002 1.4583919337778626 -0.34299313213533833
Ni 2.4474952837100865 5.220503148599237 6.812996235861949 -0.21268628148725952 1.1036488601954477 0.7118875575174708
Ni 0.6476964800316638 0.16586857674180625 9.095413061634298 0.1961774851989589 -0.23986952677027076 -0.9746753836468117
Ni 1.9379914008148846 1.3825806152529108 11.129778044310234 -0.6234215541645779 -1.23918944843864 1.8638320194945126
Ni 4.441022307715433 7.5487532296009245 1.2559197520543113 -0.7799269175848954 -2.1815499220028296 0.09837246383332736
Ni 5.870691821544539 7.968489069313509 7.819253902700162 -0.46875350106331526 0.091981472705319 0.02716524756088225
Ni 5.048950080760726 2.5941718837933427 5.0975573894667185 0.8302955998454346 1.2278292862308142 -0.1758727122033358
Ni 0.8068849614299808 7.595723928586177 6.5765497741408305 0.41150428963285907 0.1486719834188278 0.511105740777281
Ni 4.95140814140459 4.285953536675269 7.048924437838166 0.9590464188603032 1.5742846658831404 0.0840143953394424
Ni 0.4665265116285563 7.362070614121789 10.717286930294794 0.36578904698393133 -0.6445447092964383 0.33163734080288687
Ni 4.916948414506776 0.3934873474747749 10.487306895425844 1.1195354495187169 0.16549471140312141 -0.41705041626206885
Ni 8.321360309657617 7.24262538133641 4.685026269435883 0.49735599529135643 -0.5517265996224369 -0.326986729404753
Ni 6.930560276696099 6.0886609595184975 6.669381914411724 0.5857919167372622 -0.02053694361108721 0.3157268402202175
Ni 2.6618275111935104 5.471049912292157 2.4776634562290707 -2.7467084787604565 -0.09661640037416909 -0.3402027138743947
Ni 2.293508493540857 5.497017453194574 11.143418277104983 0.027926551206939 0.30155826202931935 1.3043121490799021
Ni 1.2388680972194404 3.441208337038824 3.6391126398365032 -0.16818279975824585 -0.003187139478729995 -0.05536819235765948
Ni 1.5850837913658706 0.9905307566495196 2.470890619668072 -1.1928825949523005 1.8655235482643224 -0.32507074332896274
Ni 1.471448523089121 3.3519039999437497 8.221778063516293 -0.8619296818109479 -0.31497402121459306 -0.5364704447943147
Ni 3.652594667024915 2.4740901916721203 7.266927217234161 -0.5784321339380812 0.3611772592435328 -1.6403741013130457
Ni 4.219952703548294 7.166032046405753 5.975743981063627 0.7844214630211394 -0.6116556718779014 -0.2963072980430252
Ni 0.4824261750655504 0.18827467304636658 0.3572491713470893 0.35331791110011407 0.7990289285216691 -0.4295765737535376
P 0.412248350240197 5.8295674561728195 7.788047392236131 0.08705575326892749 -1.2096575004177939 -0.11054638019169993
P 8.789276121093557 1.8797553715852011 7.777002095076378 -0.23659805510785062 0.8958139932632184 1.90547154941217
P 1.9738786150802337 3.4075487304489274 10.402885110664313 -0.012223281539069271 0.38576291900269694 -0.8014249395576714
P 4.1931941346141866 6.194667808041351 3.6555869351310024 0.24947002597451234 2.482579565222189 0.7245862360310618
P 6.996079219183078 4.04977256941996 10.098703009512235 0.6286552917596916 0.44215286775665136 0.6283369891883243
P 6.654464216807173 7.808319531310371 10.14832592547271 -0.07646692200948767 0.20644287168070896 0.47881062818900116
P 2.7152719108519143 8.755007331996497 5.819913277275696 0.08446151017919003 -1.2204250233469434 -0.5187925678985775
P 6.933769850203995 4.184392811227093 1.594327908605187 -0.08453735772244796 -0.5954304682682907 -0.546356079339143
Ni 5.21552967350343 2.972083252864781 0.5199172668572252 0.642474457030971 0.6797762788052227 -0.10290763269951955
Ni 1.5181373615113574 1.1376437859916395 6.64801051914172 -0.4396383288649138 1.3131891398545577 1.281126454992058
Ni 7.192681508025145 0.6066957696166232 9.093417307002618 -0.45276998115086536 0.5169154054805226 0.05300380589054097
Ni 3.038311392897414 1.4864416865863492 9.139793371122668 -1.2755332771749968 0.9962032304162584 1.3061324901180924
Ni 6.446687520482938 2.0807219530159102 2.6754659255330147 0.3132930339677443 0.6865436794360434 -0.4944182528192711
Ni 4.383122692706125 7.172142056029852 10.041707166759824 0.20156574609406575 -1.3156982794296568 1.4198364421021676
Ni 8.238847902903617 7.475433114111748 13.151382017302506 -0.3777048245849108 -0.5732433906482901 0.9418891903547262
Ni 7.6422581983125655 4.193439626072298 7.897434749059936 1.5814153633906507 -0.811807568343576 0.21443591718851457
Ni 3.5414143133292755 8.590782638796412 12.150500613396925 -1.3807952690393057 0.15429755713572135 1.219820556993725
Ni 0.24052889374674344 5.000815570418501 9.891678244431917 -0.08845983270530572 -0.7732240516434231 -0.7426065838678824
Ni 8.625387842113847 2.4625702776933527 5.642843925450666 0.3006120960659661 0.14697197000858558 -0.23596787772301944
Ni 4.092197130292044 2.4651161150367265 11.60647881303606 -1.0962510250694797 2.0348720861958953 -1.367695241322238
Ni 1.2525792497687556 3.225966881932767 12.426671229950905 -0.3185193153636902 1.3524195461100903 1.1892377991108616
Ni 3.455455933885493 8.471728373888766 8.293811621919442 0.3011026625491395 0.5587601094304506 -2.432560295881269
Ni 5.685591262128787 8.054265603232764 3.567944666130102 -1.2207767502594074 -0.5193312140108669 0.459883195156879
Ni 3.129888799049072 8.54061145857949 3.215283457366822 0.9523651501853857 -1.2053316193489305 0.7324502121601708
Ni 3.454137553832674 4.474918313487215 9.282503011088373 0.8749469200062222 0.16041935376274305 -0.7987237385764245
Ni 7.571702134796197 5.9673609023829455 11.185935579194577 -0.5145790440378621 -0.050503665176506576 1.2313750946005437
Ni 7.7847978127128385 8.929106237178383 2.8554493518885855 1.1563932417770149 -0.6783963677385606 -1.014723657817949
Ni 4.750314268106712 0.7085974554232863 1.5016812507693114 0.044911772911025875 0.2986578005530727 -0.28331345688651854
Ni 6.323787222731552 5.756174602473834 0.010990743502395213 -0.29586686807149687 -0.4923114908889134 1.414140677268971
Ni 8.106609837467783 9.029457689888455 11.322350636328789 -0.3077145114387023 0.40456668197276136 0.29550228564322656
Ni 0.04180446763344864 4.838682100750473 5.520668282114519 0.5669251617397463 1.0082938430322053 1.0227035906996322
Ni 7.275884927772348 6.181611299380332 2.6005983046301173 0.30506087586593916 -0.02906426435580801 -0.5985988386939433
P 8.700508228295837 1.5860202958171836 3.523031549254869 0.2525080414698877 1.926548681797443 -0.10150843835914776
P 1.8745182204788313 3.4609112996212947 1.4367669446513842 0.9501573439007894 -0.4581626129213464 0.0509734057240735
P 4.9203216489867465 0.9015237369870465 8.365897915524702 1.9575960380215514 1.3055905015716933 -0.36279216913913653
P 8.743469233465275 1.7693842304737057 12.316405559243638 -0.28956715110571424 0.04358045569411204 0.7241620040094495
P 6.556222172181611 7.948822475835944 1.4580592371182182 0.34081335087520015 -0.2510121736506516 -1.8791617078730476
P 1.9690869855089546 3.3918281848535923 5.790344285760028 -0.20148064257942722 -1.179613131536904 0.08496236107500851
P 6.802622857915321 3.910360698041546 5.716514093574556 0.4520690984290989 -0.6756293465163847 1.1633933272439319
P 2.295645178454046 8.513098230718596 10.342815169319778 0.9433362072138979 -0.09703189064503288 -0.12179958450801605
