# total energy = -340856.64822710346 ev
CRYSTAL
PRIMVEC
9.39469341759967 0.00000000000000 0.00000000000000

0.00000000000000 9.39469341759967 0.00000000000000

0.00000000000000 0.00000000000000 13.75008344682168

PRIMCOORD
 96 1
Ni 0.6332690504542441 7.5235618643187845 8.517585269783597 0.07930696256144407 -1.38727419189543 1.5395400633131033
Ni 5.203786543701762 7.457075617765162 5.86557976284134 3.203275979280541 1.5491611313426352 -2.669605722939183
Ni 7.378864793608188 8.135203390653897 12.395672508617265 1.3741299412039882 0.4992395854673144 0.8639508260060347
Ni 4.983950713638914 3.788645058486944 3.4263011213205363 -1.1453711796348984 0.27124546997839094 0.23350476089450753
Ni 1.4898480886618153 6.004665383069178 2.0480338084560046 -0.3272389546248752 -0.28895522855332817 -0.014795413141619682
Ni 8.119890040098237 0.7355472006563039 3.596718984148487 -0.3422994485024234 -1.6418535140720498 -0.917741389463929
Ni 3.6931667875070846 1.7068655106469333 1.2377893990462954 -0.3526964754660313 1.4199444284349418 0.10910681953169597
Ni 1.8386824564423092 2.933183049347513 8.611168631065864 -1.5201318339898207 -0.8012177086428718 1.811027216988655
Ni 0.757357921300488 9.396290690340058 13.201345460124898 1.2779346875276378 -1.316938322484345 0.11319307378592763
Ni 6.997628127627405 2.4031344368626493 11.891594587099313 -0.7519057497816212 1.5833981981486343 0.10099010396183251
Ni 2.7473654047828524 6.262737616053212 3.936773071297496 1.1990092766753286 1.2793837612693386 0.7343096339664128
Ni 3.220294280225746 7.174943574490917 6.589782870984785 -3.4439872852258175 1.7790318950289814 1.1466963262042253
Ni 5.8808621109081445 5.549097901385094 13.215301277456453 0.9196617464150935 -0.7003145079678906 -0.5406585147337335
Ni 7.555212587031679 7.72726700548343 4.4682543745552055 -0.7193329580519224 0.7839746052917079 -0.043270123542544836
Ni 6.428929745703287 1.7589027184553991 1.4466052535252223 -0.3355621297785898 0.5234274955674275 1.0711511446780586
Ni 8.363625970660225 5.578108715198516 -0.017576532242076063 0.347717277083885 -0.17452519703650587 0.2966389703508311
Ni 5.338910421641672 6.536311093464754 3.5088147151428437 -0.13831198034074244 0.14602040472859368 -0.12111412840521721
Ni 4.691259034766778 5.474607375890722 9.771813503677926 0.04830434353234262 -0.9419460117345907 -0.22402073266347225
Ni 2.675505393494361 3.3898027367139485 6.652345893494209 1.1246892258055148 -0.8092655186480127 -1.6860813735421736
Ni 0.47931820655510443 8.121346217605064 4.133288453455855 -0.11717031326612079 -1.5615044833993366 -1.6305211197783662
Ni 0.9151051608803282 2.0538303344025337 0.5583454295852608 1.5937360897395327 1.870213240430508 1.0389257089854493
Ni 2.777963921813395 4.076282392206354 10.764335637106669 -0.03470269358850798 0.09327113805102001 -2.693343689986071
Ni 8.96615464421068 4.721904525265283 4.843521652227359 1.0995476935428805 0.41983517809605764 0.8801194653460972
Ni 8.612726271263488 0.7861789623033426 11.724173631527348 0.1537483695004707 0.7049175539575409 -1.1768995892604828
P 4.828863111815091 6.597226286718066 7.659828136999536 -0.19545474810032146 -2.698730665329597 2.1488876558831183
P 8.522800264196755 2.713807559270695 4.113035373009296 0.3540619883549902 1.0090685164147009 0.05505606043387937
P 3.668336612342294 7.420624206626536 11.5826172068847 3.4741280704752557 -3.984395374511641 0.5918928874286774
P 2.591601385020374 4.157020388939691 1.5975807979636394 0.5643126638175635 -1.2548536373384582 0.9509888386631493
P 6.513463198647966 9.181227364622165 0.3590642496332903 1.2001158794759461 0.8845008822432444 0.5187439740488292
P 7.537343879818878 8.753834569021777 6.811089910064205 -2.647124768227848 -0.7779116869270796 -0.7092953713102623
P 0.5254818519295837 0.3553307983996589 1.901128045281828 -0.940994960675231 -1.127621311850645 -2.242276807569241
P 0.27225915977796167 7.260162840067843 12.704774838256656 -0.42687922942703255 -0.9409643645476118 1.7951000042354375
Ni 3.880252715706723 0.7958902570698368 6.527453776345813 0.864337262811176 0.9254593269334772 0.5286483776467347
Ni 8.060449813738938 4.410536195531397 8.553872273784355 1.1657075771994054 2.393642021549516 1.1110263836064416
Ni 6.284608462736387 3.573046235234283 6.380204167386153 0.10628220559870727 0.9374730635649016 -0.1508149979037596
Ni 8.90725931007974 2.908531373360978 10.31390987122572 1.501617063015085 0.004682235967017743 -0.06965529840429294
Ni 3.0327574067336713 2.442366677304634 3.6777764004639666 -0.6474724244661947 0.6027354865701362 -0.232833960079728
Ni 1.4945078566836603 2.525472136823264 11.98465560341784 -0.27357797476630946 -0.0020926208629705894 -1.9610125199022679
Ni 1.798942902546333 4.27740399263308 4.392959663289321 0.29745298161169414 -0.28391020993025295 0.562016154473903
Ni 8.353451517499623 1.0676317692308557 0.36253464944633373 -1.9449179283332505 -0.44003942095807447 0.24528324158667433
Ni 2.3658750820750747 8.780402762501167 11.444112178720873 -0.7723048822632634 4.191568953710788 -0.1514678009964101
Ni 6.042432051310745 9.032020840987203 2.4830316085194646 -0.48724538921991567 -0.29701255164016593 0.9032606793492509
Ni 0.7716294003367473 4.6741888765093345 7.054989308294701 -0.07272133892412637 1.4583258564266175 -0.03629369222471169
Ni 7.460485891539213 9.12903984171622 9.89520622772897 -0.31768319261564 -1.269543378140149 0.1313545751863028
Ni 7.048274920784192 4.592548989191123 3.704189581499082 0.6609203224409843 -0.5974084179302679 -2.9083354796780556
Ni 3.494797832302939 4.079551745576519 12.795552944032224 0.5744736635109655 0.47514989150796233 2.2694849925529175
Ni 0.11527946666462277 7.644584307176459 1.151693608557195 -0.2687671836412275 0.9749522914572822 -0.18642811912167895
Ni 5.622508037116337 0.18878636773986768 4.723511017869589 -0.6197901280595778 -1.7408301871482792 0.9378335322281139
Ni 2.0799475825894875 9.079905594227816 5.493035067372272 1.055939984155259 0.5597980637766616 0.32246827270910916
Ni 8.778495639701903 2.7675170225386134 7.286595749959502 1.171699533116782 -0.8498544958139687 -1.0577443843538494
Ni 1.0285780279671268 0.9555718640603583 3.7177893399434825 1.2743150884971794 1.96821083742292 2.043828266947919
Ni 4.687181737747664 0.2855836537001042 13.313366847051666 -0.6139131004535104 1.0807830113408678 -1.7901575726284975
Ni 1.3569225690225326 4.433412274428962 -0.08254929365795817 -1.9782530521502706 0.1318762520177277 -0.4730865812210303
Ni 6.951772628202757 1.491351239636604 7.045611525150738 -1.4166685858971473 -1.8152204291343963 -0.061042617034617455
Ni 7.888752393643698 5.242774522110343 11.330921152441848 -0.708556693372025 -2.7664509514947064 1.7329129891837316
Ni 2.5472114577961458 5.414988650353165 8.639892906724716 3.8051905126112784 1.1475509608950367 -2.9153551055289983
P 9.03932051790852 3.4346060304562442 12.523589717102425 -1.2705893029061601 0.07617433046973332 0.4932769401259763
P 5.2982971612416 4.189187819800169 11.54139423087048 0.2049734862240341 -0.08428744649517096 0.3289117143416077
P 6.163933623541633 3.7480130086996875 8.596057266422442 1.5984018706463181 3.2591915595012386 -1.6798695883045072
P 0.9653141613157076 5.059371313798937 9.58809839153925 -3.8413281388741005 -1.9727840586158993 1.5540665390640527
P 1.152390694821753 1.4779919853481693 6.537518311591382 0.8586070451956181 0.053043400879224774 0.31169252224984384
P 2.6413650769794725 1.2469952592975166 13.07649467962831 1.388567713895873 -1.4791397078481752 0.7686546871051859
P 4.4534605505552065 2.9975085163748765 5.37522373078449 -0.35562341930483915 -0.523240319257286 0.5710103875527134
P 5.860785650701122 0.5940480836445701 11.16123137836731 1.0550853494644477 -0.14969039738101317 0.15657709719851742
Ni 1.5689889874844398 6.0533486852651475 11.452636923686644 0.7786719621318718 0.3988719455808292 -0.06313420945632353
Ni 4.454080600332308 2.989259975400724 8.795433332779695 -4.46620005233196 -2.561255321957537 0.5727309697882459
Ni 0.10548080124771896 8.35297238812641 6.438160032157849 1.719067598660207 -1.3284062139146284 -2.179734466060646
Ni 5.610642539109099 8.654805103863978 8.136859675134241 3.5526691014049523 0.484626720650146 -3.6210159654104674
Ni 6.840473693213247 2.068608187423425 9.453540074153603 0.3269435348716434 -1.7516373050661125 0.5062931498799862
Ni 0.3613631311553578 8.234120119488587 10.87782917251937 -2.4812716450440426 -0.30049973885781794 -2.202667934928368
Ni 6.353913117367739 2.102372716194616 4.194119094466836 0.5659586840614189 2.277604279225942 0.19072263273197476
Ni 3.8394891402091718 7.882965262390762 9.25428801775177 -1.5187254405605974 -1.0005820762102446 1.5982100663504861
Ni 2.825604413020604 8.59675529215636 3.182718324264106 -0.9818312779653026 -0.5161129641838854 1.6566594687366307
Ni 5.512965909828611 3.218960233735621 13.726901530133864 -0.01624782931743008 -0.22686874363522863 -0.27984169628783423
Ni 2.6817998382012886 6.376770406878119 13.661945679166445 -0.2091571852880785 0.007001885239129877 -0.6029807698117228
Ni 6.840905849118498 7.294650760245651 1.0873775362234235 1.1341943370824725 -2.0776321028712412 0.7882711757845328
Ni 8.396216162732362 6.439968510674392 7.165429568289863 -0.09005648776846427 -0.2451868252181261 0.05501183745950526
Ni 4.179811915594924 5.254856098070207 5.618572599970468 0.8304076999432666 -1.0314962492905977 0.08214288934834241
Ni 0.3517908778540315 3.8810042911941167 2.4367758951477794 -0.5291255743934694 -0.3954937731372156 0.12450052837894689
Ni 2.784201998358768 8.624976951708016 0.9368576344242392 -1.3034117487528198 1.4496920920110192 -1.571549269229848
Ni 4.7300873033842885 4.9720288474701215 1.5385107225318806 -0.4483116882691956 0.7491646967013742 -0.9682018601073261
Ni 6.971830299022594 5.796262895108318 5.528482185765867 -1.6330120045210197 0.05183138284899461 0.9568136728750425
Ni 6.591363997916391 6.839149041416714 8.744365657349968 0.05010128753176533 -1.742852359784631 -0.6210309424452143
Ni 4.727259500612967 7.447540003768846 13.72450870167587 0.8635091104829258 -0.0433786240959511 -0.360895723447372
Ni 2.1380255783778854 9.229938850898911 8.096736817739696 0.0014765845455264892 1.5011599208730082 5.502160765151814e-05
Ni 8.981900150671592 0.43801443617598884 7.980686046731134 0.6226283688393213 1.8435676128185217 2.410402271726991
Ni 5.9546668237702685 6.976706144997065 11.19980035344167 -1.294850232336054 -0.3960097935416857 -0.7877597833657529
Ni 4.248383784126066 2.008209702317697 11.597426062394447 -0.040283273000079015 0.5580355725596002 -0.4344403296037421
P 1.506166671431865 6.454041761675851 5.76706042954561 -2.4756195889645882 -0.7815711380565378 -0.8443045125300169
P 8.104633057704131 6.635274795767405 9.979467234559468 2.817910295716263 3.0266666460214973 -0.18917765684235807
P 0.9129509576395841 0.9624299903828317 9.922101356545378 -0.48823757792985595 0.0031796832795622653 0.2294665862693919
P 3.7468292773070413 7.012396585954704 1.9156202996175093 0.5586140707708895 -1.1360740706036887 0.7851958792933187
P 4.439180616294714 0.5979938549533903 8.833150209145222 -3.2188794901457527 3.835896683445884 1.0867988785176443
P 7.09274000555716 4.140147519247688 1.3288427693441203 -0.8705091959498428 0.09903169468388105 0.013628389416712012
P 4.121733919806527 0.7809357838094078 3.1077251826625387 2.2034498073997146 -0.5729844805599488 0.44794222074491885
P 8.721451060208674 6.549877031012222 2.893746004585213 -0.528545019299651 -0.555763745806288 0.5934795151895069
