# total energy = -340863.87331878004 ev
CRYSTAL
PRIMVEC
9.28680152385358 0.00000000000000 0.00000000000000

0.00000000000000 9.28680152385358 0.00000000000000

0.00000000000000 0.00000000000000 13.59217275444546

PRIMCOORD
 96 1
Ni 7.078799236780786 8.298546285106926 3.5701881505378834 0.25460606164949695 -1.6036595195008316 -0.1209899441225271
Ni 3.1127407524699433 3.946091861647101 6.5516033180077144 -1.1887078947493206 -1.2694068525622848 -1.6633579638027287
Ni 3.9208131886746793 6.069500391330486 0.8402094118921216 1.5750886498416745 0.04959503731930814 -0.38504352433816913
Ni 6.611589553250462 1.5100617418569486 2.311933380874438 2.644066183907182 -1.453010357750975 -1.3478447822552142
Ni 8.531357105366158 4.89235190028741 13.373487841913574 0.8754678255066988 1.1447181194319318 1.8316371799295232
Ni 5.953796134694411 4.293668971617273 8.052084795706563 -0.2915852099770075 -0.8020792853122186 -0.7988682345740886
Ni 5.187551451269906 3.516382281519656 5.080577716478567 0.18173019942537735 1.1982340890722007 1.8201739164849298
Ni 1.6001437138747616 5.631804162137546 6.3080188796311765 -1.0275295513333658 0.2778650321774376 -1.327118091230824
Ni 5.994834509369331 5.960909824443447 9.73936192220577 -0.37699057212670556 1.2351651577705953 -0.07756992526567931
Ni 1.1037270404479407 0.47416549765829713 11.621429704691948 -0.012978671647855067 0.9384727084740094 -1.357675909413023
Ni 1.3086960305928008 0.869537130204725 6.239718171239197 -0.4960120796689523 -0.7733430937197906 0.7853653149916474
Ni 0.7413569847842447 2.4749418169813513 13.533521715583653 1.3807325341221706 0.4602516342398912 1.3740546078813627
Ni 3.1437679554092743 5.455429233007411 8.105691927178276 0.6905617994565011 2.6550257682424787 1.2201175194088536
Ni 8.0435864438928 9.0335966031698 12.235374562518174 0.6290949504002714 -1.3174769685966343 0.30608623180665995
Ni 8.9945177435563 6.6435268627112105 5.309496438338555 -0.9289349441869034 0.03922937781426793 -1.1580657443834312
Ni 0.27228344024526374 6.4085429309620645 11.952290572432013 -1.0449405477209617 1.112886833853948 1.787944624137579
Ni 2.9555059206932848 1.9922231753819815 4.799518249062495 1.06596754359459 -0.058060137367525806 1.0082424209689798
Ni 9.236058156980144 1.7687084431629387 4.516475120901784 -1.9973602052933668 -0.46895404710989563 2.4005397771106143
Ni 4.947989126509957 2.203600058381717 3.3846685082277554 -2.6819231068539553 0.33723977459132887 0.13042100762843992
Ni 3.7525827842311044 6.016751360293251 5.570330181336318 1.738775618612096 0.4207836580522559 0.040753270657962075
Ni 9.401771838287964 4.311360327977472 11.414638644144006 1.1386451737649745 -2.429805615954267 -1.9017722461837117
Ni 6.069063911672256 8.910221448710352 11.097423802144457 -1.3020230959354093 0.17431050992253852 -0.7515416815739832
Ni 1.1346242281699266 5.223064179207649 3.656280512743443 -1.3185180082666388 1.4190522556379754 0.4001263868132206
Ni 0.6238724483506629 7.8133759279804735 2.227213607891995 -0.30086637816861733 -2.2555218455046058 1.2221762017100952
P 7.576023861915395 7.30460780890585 10.667898100681542 0.11478844329750554 0.6927513509086521 0.5155295808765896
P 7.0024338701929025 0.8789585900616395 4.426576098868379 -0.9647655807322675 2.3787170248085676 1.1300669451776602
P 7.852092602345655 0.9126464615559298 7.811258537297993 0.02082002206914479 -0.7746661834065883 1.5740545521502054
P 2.0972568973945034 1.2497898503341427 1.5749523368339864 0.3310200189338621 0.7884102724655583 -0.2371932654896883
P 3.105237017068872 9.238547019712183 5.403813191721328 0.9730013383784983 -0.7231307345314578 0.45760519775597963
P 9.019777842926242 7.078984972805565 0.3279875314367322 -1.062032470206242 0.2261184957327654 1.2870281651884738
P 1.4739825190436289 0.20217273429181248 9.191855769123116 0.4359642224474362 0.6192923624875528 -0.1863450724895694
P 3.0251104959792134 6.03966189894974 2.7597410792563477 0.1338050936093244 0.7419308979570964 0.7910299694765925
Ni 6.06991829738624 4.7798515900787715 0.38551647907165437 -1.1157518141065688 -0.37847589842298046 -0.4389513301002182
Ni 3.7246852333092995 4.80400656010128 10.373491642524852 0.6823571521585216 1.6097368360431632 0.2458190594854863
Ni 1.7853411041818976 0.17687827375728501 3.4725012169854947 1.1073437925485317 0.9851500579258906 0.7364446780315446
Ni 2.085156195380152 7.522457592369133 4.661788485928003 -0.2770731324037615 -1.3895976978222842 -0.29444016292729935
Ni 8.31035909628287 5.934721044949608 2.6905024039392336 -0.014368610016846221 0.3554082179702395 -1.1280553140642702
Ni 4.57746433067834 7.616700051341995 3.7689600582159923 -0.921297996466936 0.24521227913942287 -0.6237861365928483
Ni 3.7969829809545232 3.0753335170794536 12.629547269024654 0.20965186553630993 0.44302292906643054 0.31693037361001547
Ni 5.275683195027539 1.0287546940458991 8.77573185052813 2.0826354696231038 -0.6880094653482925 0.9403300733977225
Ni 8.527763113286685 0.35321884172283485 9.96748012179896 -0.760931093208683 0.6717963459235398 -0.9944026868724101
Ni 6.989683092091823 4.920230877606736 11.573136480889161 0.20580343832449718 -0.6413737677676246 -0.3577808319674741
Ni 1.687820404371686 6.1528587192513 0.5012931727573933 -1.9629210497788903 -0.04975110328119819 1.7763592332928246
Ni 6.654485288173171 2.040560975830715 6.530032864770005 -0.9221037801976829 0.7810402052537323 -1.0135820880143382
Ni 8.34139558602344 2.070223018987921 11.958488583578887 0.07226445389236588 0.5753393539453704 0.44014740729084845
Ni 2.8968597708693173 0.7726256445557885 13.07876841855513 0.11183116044139449 1.1890868753552941 -0.41180048071703923
Ni 8.676407653917314 8.338321654813347 6.953007656638963 -0.09965493009017676 3.2023706938574525 -2.7063365027013133
Ni 3.0902481198692073 4.2358493471035725 4.122913485916828 2.4904525402123627 0.49499160882423787 -0.6547705007895046
Ni 7.184148710035433 8.121019792623162 8.56786630707684 -1.9254415647761938 0.493476457731292 1.6839828391419318
Ni 5.209143264150463 0.1590030387325545 5.989064619759571 -0.2992473545079556 0.6791301605807917 -0.638721417746442
Ni 0.6885865941041605 4.197086238732195 7.98954654748335 0.2182763739805273 1.616098516595133 0.9752891059714107
Ni 4.486072919685835 1.9227764757171153 0.7664638519337453 -0.2808752797586711 -0.22011342718926608 2.9286615928299176
Ni 6.689737985676225 2.219146163655719 10.40035000038802 1.396277680945621 0.08550332118014307 -1.6100083445369948
Ni 8.124483769485291 3.5948928991937374 3.421897437034457 -0.6255753672827872 0.5885967331759089 0.1358429499749596
Ni 2.707947660066601 8.47838519109919 1.276834872902212 1.469294182512663 -0.8918976889279477 1.05907724423266
Ni 4.4925829673543385 2.6072973082388633 10.519756904678065 -0.8314613380187615 -1.2635457657958173 -0.7795168266306703
P 4.764584088841938 6.228676164566085 12.116484004377016 0.31218283162270105 -0.3061368825389373 0.24472274109751402
P 0.5062151774140367 4.217025000992221 1.841929298851314 -2.2676502533370235 0.5843952935000516 -1.5648638867898728
P 5.997620549741016 3.1209038507589804 12.215203630227176 -0.1966207433839646 -0.20321176633792098 0.8883925039881668
P 5.080678942612071 6.579317918945112 7.7417477587045775 0.4094476642141464 -0.11224819337415506 -0.5425745008095236
P 1.3499201412924988 3.5037522318346843 5.190239051548458 -1.2435490109589165 0.1643963361326201 2.2019675664272333
P 5.11764969834433 9.032779364660772 1.8519469713477694 -0.9885937935001168 0.4941176908597168 0.9398539050922522
P 7.015323950312564 4.5598286951255735 5.817259725519124 -0.11810825169935789 -0.39047935064175976 -0.45320938268112915
P 6.060705790557201 3.823478224889247 2.3293582060390796 0.24460087080766907 -0.17619461431912883 0.6758697446619649
Ni 1.913907580533918 2.3040925345883925 8.27510454141957 0.016355301429571832 -2.5430879070198915 -2.16094612970955
Ni 5.863853464695183 7.246899626007016 5.76650642806814 0.5221938802706425 -0.5600212355310613 0.08457309605638982
Ni 6.2762153001082694 1.1852744421271586 13.25635063184633 0.41459012764703435 0.495099852267328 -1.5570469618486151
Ni 8.632564665268232 5.805123733660065 9.3278052524601 0.7888692143798478 2.0705070617906856 1.4561663868814534
Ni 6.966187484957281 6.753101830529579 13.103003255068295 0.1536511818009741 0.7520875267751241 -0.9923203504220844
Ni 7.821065399406324 3.1943531617578342 0.9208197753263294 -0.7532262683652576 0.506812769828882 1.2804607963836012
Ni 4.031855471088802 7.628104243263426 9.320532758409879 -0.1950613693166447 0.5600135222215775 0.34801115417522
Ni 4.3404187290541465 2.3004056744965298 7.165249140834045 1.1382507665400332 -0.26865122688865345 -0.4590074774201449
Ni 6.1887614928410795 5.557741922256921 3.790966062431808 -0.1288040408503072 -0.5323371393522316 0.592707927130805
Ni 3.4337483240954807 0.31752780720130314 7.799909137503873 -0.4623080025482877 0.5830328659348862 0.23033253381411298
Ni 2.5313127005017764 7.822040513536414 12.496181373792345 -0.5790574262269059 -1.3573352382441528 -0.9432012242979304
Ni 2.798911878202114 5.091423771645537 12.465082662483473 -0.9045130636991132 0.5625314035474247 -0.04418672181954326
Ni 7.383415604219577 6.247584091888587 7.245810284221688 -0.17699499873323712 -1.4726942093331477 -0.4361922792978423
Ni 0.5102567933132276 9.135491386363556 0.3144640914725736 1.2271412590248543 0.005639200563648352 -0.7669317908768082
Ni 7.0164569400637165 8.663257543362961 0.8586594999135432 2.7496133111120775 1.6832603591536108 0.20656474197055394
Ni 4.807442676559692 8.144673275378768 13.432831430510587 0.07455942057412965 0.5300257176102355 -1.13273343626623
Ni 9.065116006574796 0.650594290235617 2.561458586003531 -1.4983754161493357 0.6314158852239642 -0.9314651668079248
Ni 8.860620643293121 2.62987352205075 6.8381401407945175 0.7392330394099591 -0.009185523154009986 -0.5763904209177041
Ni 2.610882013517098 4.025735469072334 1.5847656997031845 1.034066066900303 -0.155898325963938 -1.069886676143338
Ni 6.046320535438069 7.028956974531343 1.7725011727889255 -1.06065255913958 -3.089429845291647 1.1638676957771892
Ni 0.6041333523172752 7.758927412316511 10.342813623312106 0.19920778738485048 1.705039402701915 -2.300518464819954
Ni 0.4131428553972821 2.426436854110317 9.837837305183344 -1.107352277188964 0.38641160833028937 1.5082602793632154
Ni 2.195214076862946 7.964648633361726 7.265831699012739 -1.7043156371620134 -2.080552104731513 -0.04047533440622707
Ni 1.372069162247394 2.778778093116071 3.18846532977234 0.30849149881404286 -1.0969740192784334 -2.295685819318001
P 3.4501952490896612 3.449517312599218 8.79003073839574 1.837981376979996 0.1481968435546222 0.06446758355576639
P 1.8776797689007751 2.89745412614861 11.776788602618339 -0.934596770458371 -0.3090193462930549 -1.5770820261226193
P 8.984450851013278 8.81951726100953 4.585618142166137 1.3183336601699747 -0.9174266864369877 0.31943925607479823
P 1.9005717339547863 6.118646143487009 10.649249275113608 1.7055633935261851 -0.8381711459387693 -0.6797778214671196
P 7.987744908042995 3.935829946278061 9.026303678156854 -0.7833477703409863 -2.690694168178366 0.16393765132864668
P 3.766643001306874 9.072573307969673 11.212944180116 0.7565625318273421 0.12929897820885475 -0.2019429269278264
P 8.306337911346406 1.2699607826251416 0.631662217229894 -1.4323528294016235 -1.5794111884764284 -1.0748720451730713
P 0.32610231078522545 6.741428321372219 7.5913638002018935 1.3861333934227678 -2.777253955647481 1.0754178903742122
