# total energy = -340863.1834934641 ev
CRYSTAL
PRIMVEC
9.36187905038504 0.00000000000000 0.00000000000000
0.00000000000000 9.36187905038504 0.00000000000000
0.00000000000000 0.00000000000000 13.70205630347541
PRIMCOORD
 96 1
Ni 2.8881115194010643 7.686551852307169 9.666567682920855 -0.17268582983492195 0.3216072102603945 0.38859858867927916
Ni 2.6243873940399487 0.9838960127423417 2.3255955431276205 0.02633015325409659 -0.6635058237799734 -1.7901349469206782
Ni 5.817415305454201 1.7314607574471972 5.126761421880699 -0.9356519511957627 0.7947668108112054 0.8303457363570796
Ni 2.1552730100243247 2.7407555473320557 3.811048594625608 -0.029666930936813427 -1.3458493490917405 1.0759079426367537
Ni 2.9334604602334826 9.233330826971308 4.526871889311406 1.2250715209800191 0.5589439433064826 -1.1006272997603046
Ni 3.958361502052207 0.3103575159627761 8.38763112409516 1.02000007572554 0.3314244534611325 1.35379097253632
Ni 2.2438457452050673 7.093626621365711 2.838408368745945 -0.35000247357363595 0.7531169964809029 -1.1516379864802166
Ni 3.7855693053255437 8.243995562655137 6.4670828837088905 2.2957822356865494 0.8554448454175525 0.2021509291735744
Ni 6.78983365480667 4.359415027304064 6.0265475070589 0.42471024680017183 -0.5989590502468394 1.373071932253119
Ni 1.5393830904243357 2.9654500000403314 12.348251647498081 0.9563058800006884 -0.5350524814008656 0.0723662695775528
Ni 5.430975672985046 6.310627165461288 5.366985359116807 0.10841442145036166 1.7073973614111304 -0.1811486158902945
Ni 7.688265076124744 5.722251807609127 13.272934713115946 -1.096509678047505 0.5157182998486279 -2.715741855175613
Ni 8.433367646709259 4.248907410131093 1.029313295289888 0.927914216231873 -0.877405923069676 0.7962076570227901
Ni 1.2295704358068213 5.832853043569944 9.713291883746725 -0.398241768195998 0.0790115428082123 0.28012683162842084
Ni 4.56529210365537 5.447546198433721 9.25947949060447 -1.3257566921069233 -3.2151508763412564 1.0582722318328612
Ni 4.372615276390296 8.536423208369719 12.861790954910088 -0.3199768737458231 -0.10950765451454043 0.10050622234687852
Ni 0.4656167861017114 9.04694518224946 1.9573937867186704 0.3744436373351358 -0.08007135153129435 0.3739834098692656
Ni 4.68447818246163 6.890501937377067 3.221997309125202 0.5177111619089406 1.0300258353926584 -0.5783452306512298
Ni 7.879219317693458 0.45031011428895235 3.2845880221151487 0.46769934876718805 0.7187958546015297 2.3730114897833583
Ni 1.0108020523691734 0.9074984009209225 5.157207187875974 -0.10047948287400114 -1.6060089935696147 0.2341061419239323
Ni 6.107811423472534 3.8413661028815342 13.759741175658636 -0.7312466787703729 -0.7360587554470357 -0.5273797953469562
Ni 3.9247991666095516 5.656905893692884 1.3369577387808982 -0.48545487297839623 0.0026994012090340606 -0.8040166115442474
Ni 1.604232824764998 4.402751164197802 7.7202724035012835 0.08388789706390715 -2.096289312961112 0.7519337748060791
Ni 3.7260745656496512 4.267013283700436 12.910173144468704 -0.02175281829605931 0.7309777413797024 -0.09345651458894873
P 8.04529904733159 0.7869248916787899 1.2733568790700969 1.31470917604351 0.335652375499551 -0.9525633822391208
P 1.8095201027528762 1.2693396968836412 0.10519568715061084 0.7635991269591496 -0.3591311753477815 0.4636681161206079
P 3.735043245525262 1.9412136516153118 5.8860603454541245 -0.5317414147497617 -0.22246470103026203 -0.06002523151369662
P 5.012200111194012 2.980391558580493 2.2111830863136084 -0.1946574490100067 0.2145881264956627 -0.0739266720861372
P 8.090423303073178 7.650274572016992 7.8933295413975495 0.19364726257793746 0.38690860257136594 -0.2027350838118186
P 5.358158979798722 5.641037509153051 7.289260866138827 0.32681292283105007 -0.9481274579549542 1.7812970369140742
P 4.615761992182944 8.856730529104729 10.502241749806617 -1.2445455705442308 0.17590176566905835 -0.05476681132823471
P 0.47485696046207426 2.3894697696989313 8.539477053229243 0.5878554841345102 0.06904311874159076 0.4437749767411067
Ni 7.3150163308630365 8.97479318245684 9.547168153278307 0.5128679748840264 -1.4602932645656335 -1.2833077789140932
Ni 9.204552411587565 2.1401442139084725 13.627791111317503 -1.5069834695333206 0.4511905524788875 -1.751428531489416
Ni 0.3071726048002681 2.885199975099065 6.080013196797533 -0.17727139232307534 1.020379570552146 0.5099883393433863
Ni 6.273750724928898 4.8641794457313 2.117872304279999 0.39202715474485383 1.5446107929677912 -0.4297570651954598
Ni 1.852884325282968 7.964337519602697 0.2694423609227258 1.6520515376509743 0.7361757406408741 -0.5776556607833729
Ni 0.09273596267623711 1.3123294442623505 10.774392502261716 0.1291467689017066 2.0278002669507784 -0.5249614157134507
Ni 8.45877578573056 8.105964021855552 5.717840490325842 -0.17997670706938038 -1.0702687420731052 0.11484012247104737
Ni 4.992615060776708 7.443302155847891 8.626403033931782 0.058997561580130656 1.0835304921790179 -0.8058161266468317
Ni 4.8628032495499705 1.4913660141383167 0.5980780090244809 -2.5132466552887425 -0.2888454424483412 3.0126888436851664
Ni 2.279355351434911 2.607124089561216 10.148263495835051 0.007149723670903816 0.41242243057175426 -0.9192202880023008
Ni 1.5633963095067378 8.03610568236515 5.989401444417513 -3.1322505400015994 -0.17167050119653016 -0.40347190624668583
Ni 9.210178900737088 7.080697866764231 0.7883797276419109 -1.061113043715766 -0.4803635744984179 0.10473260172340028
Ni 0.7375222573326555 8.839448500868427 9.590164453972166 -0.3792919665663726 -0.7764482150076758 -0.12666462590980118
Ni 2.9524837979237133 6.682265667572051 4.986342601991052 0.8081265199475631 -1.6228353210983342 -0.5550921736605601
Ni 4.785043484365397 0.9410186079090471 3.3023737194300598 0.598296476962176 -0.6214829423809685 -0.8977716312102215
Ni 7.805812826143706 0.8671674271170289 5.671308208015054 0.22388035043086604 1.7096403918090362 -0.8467748284473804
Ni 6.096371207597799 8.584842845443475 7.137853072931861 2.0169419840800358 1.4128821222715215 -2.0400274051445897
Ni 6.1368800570986 3.539145931958299 8.338810798609424 -1.8618245021461808 1.9358020820749116 -1.0947736691930048
Ni 4.514812853249011 2.1117683593124643 12.241238819675386 -0.44638438933949576 0.1912625643958448 -1.877431098335186
Ni 5.890934139549367 4.734545510201468 11.406769626589197 -0.2556291035973726 -0.4551212549918613 -0.37835351391250327
Ni 7.176357544184887 5.958592437525398 9.003771942046574 -0.048151877114878366 -0.10198332111303728 0.22843300279855494
Ni 6.4048638373066895 8.936652888288535 1.7363654457424291 -2.5949925663089823 -0.600727712111488 -0.15049052468480534
Ni 7.96286770463352 3.526423138690079 11.905332736509541 0.9191758079176104 -0.45099232042515236 2.408195236773343
Ni 6.838599681395454 8.233641324719411 13.251491329759906 0.039083853375339137 -0.673696134049414 -1.0430387027125585
P 7.100956972454023 6.749596299790622 1.3476686642983156 -0.12758122418679962 0.9713946560130109 0.15518021685099082
P 6.889078931801813 1.8266148934134867 7.441915661599898 0.5142075196310564 -0.9047575756097515 -0.6629530366002969
P 0.6827899053944699 8.218025710906762 4.057781846180621 -0.8579233888650322 0.4134868672805265 -1.2068465133315602
P 1.3144826763828 5.64596185739373 1.5048012463820417 0.12675795695455588 -1.4125121405266123 -0.10295596943895173
P 7.589562788099105 0.5614917867344122 11.422061319395901 -0.7262764792492912 0.21440095018552108 0.7503751720697077
P 7.284824271782823 5.1715767356223985 4.12226365868505 2.131205408112007 0.7710090462699754 -0.5493529571839377
P 9.292217044526204 2.144768982028046 3.9526591816845302 -1.8247988168514508 0.650212449105177 2.0638517612576974
P 8.141014896024954 5.368644284037431 10.997283857116086 0.17992965588152882 1.094579808014644 -0.5681266382470151
Ni 3.1986263149274206 4.683710508401296 3.714326343962904 -1.448399598451841 1.0625477192797637 -0.7905874826225352
Ni 8.822494138389585 0.5480425116725103 7.629538010509186 0.9489039311096625 0.0035455512594132483 1.1955496002615023
Ni 7.295852564991037 2.887371930977084 2.9143996750281143 -0.01002164590206016 -0.41986371734114786 0.49561715822337865
Ni 0.07218757493200169 5.997425510723762 7.093170697868903 -0.6757365615182105 1.1334471745038026 0.1070882464397704
Ni 4.131387745748484 4.124431869811555 6.107212263230322 -0.8243586655357092 0.24452785147788852 0.31220597155115265
Ni 2.405188364178211 3.6041829038746522 1.3358858036600656 0.0855323746458656 0.14438132646327392 -0.19806544625029116
Ni 9.081630943146264 9.259001098598578 12.744350866497149 1.2507694399667555 -0.3889132917062205 1.6363492964243689
Ni 2.2410559053272676 0.5228356530450767 11.612780577807122 0.6653071386547703 0.27007998891538004 0.9198350387681641
Ni 5.3171633126011235 4.387416406748689 4.104204594509629 0.19917719125723118 -2.1811837969126624 -0.4612085988365219
Ni 3.4793235265249467 6.4904688569127265 11.569125200846832 1.8399750103712569 -3.0111829485636012 -0.18397091583043798
Ni 7.276782417906885 2.7022969492850746 10.009174062732813 2.2071239138171923 -0.03196112628762883 -0.4594509927154668
Ni 8.410852328232387 4.0325169439047235 7.992518647119986 0.998637550889364 -0.5294289645665011 0.3435811434283244
Ni 2.136558614333985 1.1900352216996155 7.323543130060015 -1.1272096782345233 1.1326966694910234 -0.4364640449019903
Ni 8.651377717965358 7.5192925259421814 11.229423812021723 0.044890432754787206 -0.9030758170319544 -0.011025147465910046
Ni 2.6121607803473106 6.488137749095371 7.470703438862426 0.8971219134413645 -2.1543067700161607 0.3811799276177048
Ni 0.8510350375954713 5.124102648305883 13.033367979770516 0.048099169500072 0.4570938053371999 0.11867003774009885
Ni 7.409412154647776 7.5053339646744 3.373377952883693 -0.002217062255976827 -1.4899715083563567 0.9789043341264949
Ni 0.0468683737591534 6.07133754372788 4.603383716053996 0.04976164480415946 0.5117420888096993 0.023043512083024832
Ni 0.3993234500524701 2.2481802950823195 2.00450088838683 0.9987247112865316 -0.7534797791369604 -0.39092029483392027
Ni 5.738766161785095 7.12453018323355 10.77041838471767 1.4062792722430233 -0.346201611770307 1.5674128784639716
Ni 6.8049811746800914 1.4572606897261569 13.488495716882005 1.1443373390537452 0.090305884775109 -2.6067759320971557
Ni 3.776965738722531 2.8631153030462833 8.242731709019221 -0.35840766691819564 0.003717815171219403 -0.8992556719549158
Ni 5.805460186246315 1.1707965607973403 10.29930149483003 -1.5220367643220172 -0.4094237529547464 0.1676500671832274
Ni 0.23074597115461667 4.186866239425799 3.2568010296946897 0.02735062409881096 1.0827997846605804 -0.06242767030760217
P 5.10140009225332 6.277682714018414 12.91315958380098 1.125141997072217 -0.6154668180938755 1.1282538032283214
P 2.0340366797642453 8.441793337615366 7.880079674353759 0.0838920108289652 1.835150078178788 2.4333599089644284
P 2.323215753540585 4.67050089743628 11.214666682493618 -0.699105575261454 -0.7932048656407243 -0.27391556061138633
P 4.740752435835633 3.0213029688690294 10.122078320874632 -0.3793811838460692 1.0630506270581113 0.8211275601929213
P 3.780710490236356 8.21004002830353 1.509445674447063 0.4422569974346835 0.5243307241079873 0.13910670832789593
P 5.770484207107191 8.468343625848384 4.738952146545363 0.16314138067959644 1.0661647472070606 0.03704728256128459
P 2.014049068559205 7.76553802361252 11.785275066788437 -3.551034908235639 2.2208883145911362 -0.032114621146357596
P 1.7855536930643972 4.980594408417331 5.642301362788967 -0.32118966310700164 -0.5560303692041134 -0.21842806906704315
