# total energy = -340859.0697530513 ev
CRYSTAL
PRIMVEC
9.37373270679171 0.00000000000000 0.00000000000000
0.00000000000000 9.37373270679171 0.00000000000000
0.00000000000000 0.00000000000000 13.71940532781545
PRIMCOORD
 96 1
Ni 4.539539481877875 4.925690408001564 7.014073730784015 0.3836134767598619 0.3642083327603728 -0.28623088764362964
Ni 8.442386905129716 0.9232808183040335 13.156470917532626 1.1911249888312456 -0.026668253319805685 0.8531730186642403
Ni 5.303170631208289 1.1101124378923748 13.025711093305048 -1.3501747159399715 2.071093530421775 -0.15735228480164512
Ni 2.047954412857181 3.7454062057455064 10.28808615831253 -0.3393624773612865 0.46641199741433226 -0.5058565765631998
Ni 4.667181602548498 7.493999480671302 4.238034301062827 -3.030428941277407 1.7362469386529709 0.6477087088467167
Ni 6.615633840850442 8.640228911362673 5.09555182157815 0.04761940165017605 -1.841974043079157 0.7343523142788901
Ni 4.529490840227077 2.8897718681664206 10.992042249361875 -0.23724982975923656 -0.5420523097574665 0.3895961767058581
Ni 6.558604049989014 1.3019552550800781 1.345042555651025 -0.28671451214826754 -0.01170237603859275 -1.635461751613093
Ni 3.3060687192425027 1.2749307831777938 0.4766599413507785 -1.1367672400159714 0.9719914090567455 -0.5054503422637165
Ni 4.93707949345466 7.304275127115205 1.6748920299583123 0.7613111022559211 -2.265165539241957 -0.6138987022758072
Ni 0.872657973868277 8.867673166040793 11.972307864609496 0.9787343842075337 0.7708298403796336 0.2848067536025934
Ni 1.992105712339037 7.136738399293655 8.433565285113332 -0.4530255488050972 -1.8667846743649334 -1.3025321743613438
Ni 1.315884622144523 9.137280471227578 6.380058810269427 -1.2999289324105419 -2.2434268620132847 1.00261659014177
Ni 1.5486250359016562 4.884755316500602 3.03600866275746 0.5710949768467196 -2.363815939327019 -0.7802871291377916
Ni 3.7418348135170048 5.310500890322956 9.22431089418171 -0.00666584205594981 -0.0012953217726558337 0.8174200294343471
Ni 0.3389157487519245 5.623077387046359 6.451920658671953 -1.3869798005834628 -0.9587967647433424 0.7974826670804717
Ni 2.223421318697923 6.583078866547066 5.605447270239624 0.7065484046927445 -0.5301992670736223 -1.0045678003308698
Ni 5.876852457393407 1.7289756565745487 9.549763150393483 0.7254393280599765 -1.3195148249622692 0.4901800463682074
Ni 3.220992719594521 0.49445597322954593 4.516730377653168 0.3413905635349088 -0.46097848510358674 -0.36803413426436615
Ni 6.3311316741122425 2.0339875508612035 7.238879279655515 -1.2077836804338489 -0.13989320878493325 -1.14978550665251
Ni 7.468784139215478 4.809793574633599 10.671050015255929 0.26009690956073916 -2.2085143664068156 -0.12945735816358994
Ni 8.142680543654958 9.033747591532563 6.927271089538947 0.2110520883179462 2.2065469582677997 1.017954248940105
Ni 6.8341824230224 4.030677018580129 2.918871684529047 -2.0771315090857385 0.3850481523238594 -0.9317852691515048
Ni 3.5260139876140593 4.698958557022567 11.862072765902989 -1.545173607449797 0.5008930619103374 2.3363660706461826
P 2.3877241086747656 1.2290557344473816 11.74396185682801 1.2351633579983825 -1.2099398075449033 0.27000337004117375
P 0.013919993331561594 3.790896931427708 11.393527665109202 -0.6981722648139073 -0.11037103095610024 -1.047345043397396
P 1.5968903865172863 8.945831350820969 0.601382144228282 -4.265936569989085 0.4799977065185668 -2.7003147219872656
P 5.801721988334508 3.9462853014326207 9.3827429152538 0.2177863217179862 0.6137128115172462 -0.144109560859126
P 6.8371164014148444 0.29452268719034697 12.00561836178326 0.12151419205711331 -0.1870726946842133 -2.9390331658722286
P 7.772877407679579 1.657360337346851 5.481725244660759 0.45930932493127996 -0.7027097476729446 0.4163209942952121
P 2.5147475629750966 6.630950520381601 3.1344591044832004 2.936600130950704 1.2197809620050413 -0.2720209146918347
P 5.069042904984442 9.134908916808127 2.705727059364257 0.8306789513267823 1.6820817654644773 1.2212452052553935
Ni 2.5438530035774525 1.3477365664816585 6.770526340385834 1.380345583096397 3.792207727198366 1.0656024469456873
Ni 8.291282331052429 9.273162103102539 10.416019802075818 -0.5483746524310685 -0.077063417942906 0.02361095455072063
Ni 0.9003489181785572 1.5021969369311348 4.505274738696602 1.9393946845221761 2.3328840256348533 0.5153866275408221
Ni 2.3261855522965154 3.8964170424939626 5.373424884421345 -0.14656624992973466 -0.2740821680962377 -0.41551186813035534
Ni 4.53788970489043 0.2577514078361047 7.246315461951762 -0.3249956671166532 0.9223269519520825 -1.147803443225475
Ni 7.143056295256936 5.840088677025472 12.947771316501052 0.5809980948930445 1.0093060863468037 -0.18701998706940695
Ni 6.311184370536779 6.35696568193836 3.3065280321537798 3.085651866306453 -0.6005415642426108 -2.7230782409360264
Ni 2.34993859142256 6.701562850190795 11.421624492053326 -0.5191723198354995 0.44443755002577 0.9665134166613099
Ni 2.747206764745733 6.071797980165453 0.6367998565541892 0.7191959182534259 0.037218003811193966 0.08117692589064729
Ni 5.289869304247019 7.279931542817517 6.957755406248423 -0.37753538888658206 -0.6143802698979162 -2.1445250080390483
Ni 1.6744580261258197 0.9407853270901332 2.404764617683147 -0.2839467195951432 0.03750416759304508 -0.316581474911029
Ni 7.260424804687564 0.544989767202912 3.372572541928988 0.7809790129984936 0.03433708271897312 -0.28105371431806436
Ni 3.220027225107551 8.619081769978159 1.5259546629236214 1.2243490409916977 -1.045741189245386 4.442787586945291
Ni 8.356486016988013 2.801846253721944 3.7626566863704713 0.964844513599319 -1.103113299406952 -0.7752040581879295
Ni 8.224550726656881 6.743229092856648 10.076423520316572 1.0230414336550253 1.0555700024103498 -1.0389185098965978
Ni 7.1473213437187955 4.868838718064918 7.594088450905029 0.9185872824039922 -0.6928007160893488 -1.6476765485117302
Ni 8.903508946853293 9.059909680009591 1.474767519768296 -0.19988938683290738 0.10793439649014959 1.5374065619098682
Ni 1.2843045160610005 8.17472933638264 3.6834270839217456 1.2091021421349564 2.3587495805477054 -0.6546851401645498
Ni 8.389622162730147 3.6344493296069915 13.553990306897068 1.1312877049586387 0.28111773478678037 0.8257383194920555
Ni 0.4830528271771253 1.829021507637011 10.698501929377688 1.0042687810332125 -0.2659939917714645 0.35590778331447737
Ni 6.4123644432781095 3.609093382157918 5.300972490847177 0.05688591455376654 1.6895276802195611 0.22120974557723838
Ni 0.8785915467833467 0.3218696155038135 8.995649928975347 -2.8663997586762187 -0.746918838089991 -1.93571183635395
Ni 1.099004564425775 3.140191142141281 1.5842620935770304 -0.6336805128884249 -0.48901405108456425 -0.9460672329918159
Ni 3.7999613311257683 8.271709976792293 13.137332567104982 0.3191052697741472 -0.21805088823328253 -1.496226745237449
P 4.991625245102039 6.438995218399299 13.37448613430353 -0.4219607090794927 0.27125498306008766 -1.1751854347828534
P 0.7670122547813869 5.189626604794009 0.5603673759978122 -0.8777975020811398 0.23581309731271 -0.01516050979052228
P 8.145980097629845 7.634802322309947 3.3185732789087 -0.8501218905427423 3.29652526295469 -0.04240494732877213
P 7.732045427240331 7.11918139760341 7.083177826972301 -1.1834168215537102 -3.4293921610204614 0.828718742276618
P 3.7275023759385824 3.2750604108648558 13.518622275355444 1.004596082465644 -0.038584288031101296 -0.8887771410210951
P 4.270288378540652 3.2149185406862033 5.813981893572453 1.0554036520358148 -1.9335328264247602 0.19886351667155427
P 3.7843540658752293 7.304509470437284 10.093736804951856 2.2424027916241442 0.46888514154517313 -0.6121518947880297
P 7.7526488921176195 0.9558489158334461 8.526857361633443 0.08548635189927858 -4.164926411422595 1.6072050707602452
Ni 9.331616701362215 4.575684595875519 8.84679411341674 0.5476118061231149 1.023863158225372 0.37940432377452077
Ni 4.3173632650801155 3.951815803833713 1.6978586128954563 0.23917610024767197 0.6168585562350796 0.4208574487129849
Ni 9.122685569128427 9.189885860168133 4.981488490362139 -3.7203222539119736 -1.6134407672573114 -2.7038232493611565
Ni 4.018547408229259 2.8750551075397865 8.481857819554323 0.3281871774707574 -0.22527311701333463 -0.828392983506083
Ni 4.409038372677874 0.013934053930886404 11.029249407295186 0.012437454432404385 0.29101313952362134 -0.17610025483310962
Ni 6.0719760810902335 8.756538188977498 8.461470887906636 2.383566382481069 0.28989856630320393 2.413980475996552
Ni 5.648077132645871 1.4187988354692467 5.107364599757566 -1.7822671141368274 -0.5411591085192357 -0.2302903677222679
Ni 6.0554595637500235 3.6955098256081986 12.91646398604443 -1.2138545692182772 -0.48589016074360186 0.4347115809872578
Ni 6.374878885478167 7.703671137802865 11.06267051451697 -0.678354972977664 0.9032285405597349 0.2521995090905334
Ni 5.082287989548412 1.9877750477469958 2.8841485658097854 -1.5344821891742217 0.20345884935172057 0.6337213934286893
Ni 0.2943642711046209 2.5109512011573982 6.74225141251693 -0.41434458729513163 0.36267749793814313 -0.13284967167459058
Ni 9.226855862659498 7.463338000410335 13.577368396707785 0.37007173351968525 -0.9389411634699959 -0.12392203016765754
Ni 6.127665428149363 6.271805318694429 8.891491821297022 -0.988774542052355 1.1095762814234762 1.4698122597996621
Ni 0.14691545285178317 6.337093368225961 4.022557491156695 -0.31424228525489106 -1.7159151690741545 2.047238063960416
Ni 2.0387681546316387 4.181247289883074 7.777544589282127 0.18542616021972583 -0.016666662022403553 0.045990350687185315
Ni 5.35111727490589 5.589294453735283 11.158390387853833 0.4468649285203401 0.3933816118902193 0.11893871802045321
Ni 1.7015199929596367 3.0471755907412232 12.656165734983958 -0.2789801196184873 0.13705856754961554 0.8119322668468985
Ni 7.742122190089778 2.4443039603578 11.549681869090673 -1.9841884437980988 -0.46345831410264693 -0.8253655095336689
Ni 7.933505694366204 2.8324139966540804 8.533373980733849 1.3459002569343337 4.315551147692418 2.016835540409159
Ni 8.407244780550576 6.152983880666903 1.8315402296627288 -0.23480882441791173 -0.9944445958539391 -1.2223962881407011
Ni 2.9192803792827546 9.029416926940522 9.151790072357494 2.7952573342034372 1.5399789506227348 -0.33654223430367197
Ni 6.46820377006337 8.536855385126671 13.655719680385355 0.08491093901178279 -2.03162555423414 1.3578255476170098
Ni 0.3037642504399003 5.740970825518447 11.885711445487859 -0.5307343136414859 0.7314857913643724 0.8398793868791277
Ni 4.191070961944675 5.096058003153843 3.9848291536750775 -0.8190020292094862 -0.71808057370206 0.19979194202309464
P 2.839069347001157 2.6885740655612773 3.2990093610081597 0.03896198308549419 0.06192399119830626 -0.4521243771470665
P 6.482339359251246 5.175894086120112 1.1603725188655512 -0.4031428050420412 -0.4351854352998828 0.1644834965297877
P 0.7595863835913107 7.673759556172553 10.127212279824363 -0.3513916406116787 0.0874496462732365 0.3223528301771674
P 8.53945190913532 1.8862856418205194 1.5089835195385763 1.4326479920445392 0.7128069840079466 0.49192222587029477
P 2.101703397209487 2.040286699358718 8.977992628343252 -0.050649446725751474 0.4775531016328163 -1.180531272475799
P 0.29190366622277913 4.088747293791593 4.736775944966575 -0.37582200573990115 1.0010057940112242 1.070336619196563
P 5.8569895174138935 5.935775742297244 5.185715883435135 -0.3816316704431428 -1.4253681705536743 3.4056014863587674
P 3.1327671456977817 8.207265563220249 6.511106408096517 1.6963228487645237 0.1872470154785485 0.2824354251569394
