# total energy = -340885.9666734573 ev
CRYSTAL
PRIMVEC
9.15707306526493 0.00000000000000 0.00000000000000

0.00000000000000 9.15707306526493 0.00000000000000

0.00000000000000 0.00000000000000 13.40230204214659

PRIMCOORD
 96 1
Ni 5.19461516736492 3.416302449782505 9.379265628650034 0.09865759917391397 -0.7039243368063361 0.056686139838134635
Ni 4.781448037343352 0.4769058517686455 6.585716478109413 -0.7905900537256966 -0.17690295324006305 -1.2487608941771589
Ni 2.915639488037619 1.6926299862966923 5.340790438048592 0.1924182752668428 -0.9567920756084878 -1.2978728212124615
Ni 3.6479947087321 2.809563955365415 2.8668460249986136 0.6169223195934794 -0.534813368806866 1.2460072426914217
Ni 5.579807439624611 3.3242647098922835 0.6237816385304794 0.33653220700134295 0.3812547467196982 0.5134318178072963
Ni 5.137978671372379 4.666105546878997 2.6431616263150617 0.9033905200588958 0.850167141958381 0.74826841013935
Ni 5.035767423471211 4.93805229837236 11.822947747123433 -0.46619499630751976 -1.7045737759194062 -1.7888434818027643
Ni 5.913610218673286 8.048764910763913 12.391674316154162 -1.1040530376124018 0.3483564533297807 1.1473833249689207
Ni 2.307151992693355 5.347529128008318 11.625518507907918 -0.8606677843793887 -0.3621020850506474 0.972946316770847
Ni 8.200790635334348 7.517810351809112 8.923333136690816 -0.3007247103844305 -0.17601875086289684 1.5107614485185143
Ni 7.8346359176694005 0.09723346306340912 7.145316192563626 0.8077416258043184 0.6448691825153926 0.4204095625422889
Ni 8.427419032960762 2.6828666944838013 1.1735594765737623 0.4302103506827946 -0.5130867757630518 0.9760573515960028
Ni 1.6018742366148713 1.0012892951981027 2.972603807240593 -0.23842765211742162 0.9498611528166093 -0.6565669305682951
Ni 2.041285537616976 6.379595345280944 0.45070563473811115 0.3925480602453304 1.6955947123492476 0.9713157231459594
Ni 7.974464421114201 4.290280960213545 3.939874576551503 -0.053353990141108115 -1.1473943807125142 0.08185878244902031
Ni 8.01381236343917 4.310096866006246 12.817760244647237 -1.4669362238034478 -1.309046321330778 -0.3337973245686832
Ni 4.718731244933828 0.5844492632294679 10.95930299347939 0.44616558846047033 0.1074883100916665 -1.0573733741676756
Ni 0.18354070672208123 0.5561841262561174 0.8608875589886901 1.645589069855082 -0.8683196444976916 -0.8017653536162256
Ni 1.3194975790688805 6.861614506566524 9.753230413806014 0.020995371304744485 -0.08762756661199747 0.008345543751217885
Ni 0.30773442386814776 5.37013794104075 1.8198446217981248 -0.7372982842810916 -1.8604744158761894 -0.29932525893374257
Ni 6.4342081281587955 2.1609135382065543 7.164401363937538 0.2509252703638001 0.8075639625758737 0.0071551229875425155
Ni 3.5678428494883323 4.661114942139153 0.8043765148951152 0.25996038398287485 -0.9388162078563573 -0.3046271307626302
Ni 6.596453146104765 6.1642026761238675 4.839276784229703 -1.2228503449589845 -0.5991907066416713 0.6362644715655171
Ni 7.044206540534389 0.9502386136850212 0.05872705573952401 -1.3716873932007667 -0.5461946140606142 1.0909342408422567
P 0.33548859617272153 5.704233746422774 12.789213985535334 0.5999383834409732 0.41442891947882177 -1.1842771126714764
P 4.003994232531934 6.38365192858324 12.834513109549155 -0.279365527982364 1.6243221900565057 0.7752662788844324
P 2.36184718922746 8.889668073818227 1.403032976755533 -0.02182069541951726 -0.27314063011857476 0.11998052902140625
P 6.32460712241349 8.055184018878832 6.0234099329008925 -0.12098891568126259 0.606718125366968 -1.0336963422657102
P 4.835474767554505 1.5222077022357123 13.175454742644035 0.8433254364461992 -0.27728910506930954 -2.072117343700599
P 4.009909701636409 6.565026071853125 8.385953975377348 -0.2126924521348466 0.07360554130129258 0.38814196075783475
P 4.768197752832243 1.074399365368586 3.892792570440712 -1.1523715222121316 -0.777810642572841 0.9291074652090257
P 8.993454338261143 6.294306368130659 3.9866223495008186 1.4529417092965689 -0.3082966091944174 1.3240037139715584
Ni 0.7287015486005397 0.25961949993230266 5.002382567029885 -0.8398356781253858 0.19803047924729766 0.1421030719520585
Ni 2.0472834203777057 6.759229274279929 5.076885427991066 -3.115094854157919 0.34399380548571085 -0.1825002448221825
Ni 6.857017655962117 1.0391995770750817 9.307188476304603 -2.1548428450252888 -0.7590729569540217 1.7851467496774676
Ni 9.052425887847555 2.3766358619886487 10.32404754258373 0.27485529881683635 -0.024990608507066636 1.0708053313028656
Ni 3.263461745722443 4.8537064997325405 4.908472205728107 1.1576165726611547 -1.563073113438037 0.10095616540010355
Ni 1.6407368540752332 1.2058857753858665 7.3870134693824925 -0.5662363632028377 0.5347892004371501 -0.177792554933868
Ni 1.6250507881681644 1.387626201572437 11.880135498905586 -0.4988145821147538 -0.37820773236325833 0.49603984758309405
Ni 4.305133732485153 7.237576449325733 1.8137872180634336 -1.0605435443655413 -1.840528825992198 -1.4343222944231684
Ni 5.775402517134822 8.010039649397308 8.16641132077422 -0.9301076243387659 0.5123684095397887 1.0575484662929595
Ni 6.92865343739294 0.8211916478928679 4.815340195624287 0.039098765773674604 -0.6099803410580076 1.1940200509908532
Ni 1.1404218611011991 7.497591534808056 7.345828618230343 -0.8428826924818258 0.607555790776915 0.5815704224567467
Ni 5.134187643184681 5.032681489898133 7.110390200750343 -0.17947482773229737 -0.7379235765699161 0.19932194436521153
Ni 0.4865976977441514 0.17313369335174628 9.262987285333548 0.08248921694416761 -0.3107314438881552 0.3765077189530161
Ni 6.229318621637684 2.664873046201612 11.799011158518017 0.6772144316153176 -0.5431110900392839 -0.9026577556579293
Ni 8.50439338790228 7.642236658607274 5.6413374753840735 0.8284300073916054 -0.36961176316413125 -1.7346032324019611
Ni 7.250826733836841 6.483427395088448 7.132651045011923 -0.6869982504749588 -1.7489469027181428 0.9084684488024354
Ni 2.431074660481074 5.769532833394932 2.8828489256286156 0.818727692502177 -0.2801224607530466 -0.37885719302179915
Ni 3.155930238456413 4.738565464872363 9.444065655148208 0.8983429303326593 1.032458613203867 -0.7167119754893077
Ni 1.1856120159473083 3.322625593840115 4.153749003018918 -0.018262288644297582 0.09261782073773726 -1.5150791020572616
Ni 0.8656419112472716 7.7754262841871435 12.187128199867443 0.0991777333434421 0.27671703461592345 0.04946082573428901
Ni 2.484506180952613 5.441636366377814 7.0822322015301244 -0.6288571233578525 -0.7700284275242609 0.8535517421598977
Ni 4.93423379896591 2.9688146104674784 5.225142101348805 0.4840474511079083 0.01676256417031952 0.16088909431031
Ni 4.0780932665774685 7.120118675017518 6.214339481759818 0.8941787716526407 0.8612573383342715 -0.3201082571173648
Ni 0.8725793096893005 7.5882648708336236 2.6019630395535365 0.08558688203288485 1.4139943814990936 -0.29463633809850553
P 0.20535834865447014 5.650197859138702 8.224376508047039 -0.15719339062627766 0.5799771098276979 1.4062301641726427
P 8.482929208984492 1.838190817387624 8.394813443424685 1.219006802843178 1.1592823903993519 -3.0270602819154897
P 1.9493668396746775 3.488405241932102 10.566924250394322 -1.807228154957539 -1.0182003035126401 0.44367958881382297
P 4.44943088751352 6.431131351658635 3.852961134665716 -0.6307653961241588 -1.1260799355054543 0.638675652110171
P 6.763258386363472 4.345672094289353 10.546794257000565 2.3951273478457913 -0.17606065984442582 0.4743199394074992
P 6.465653516556271 8.144776820300175 10.324998962459821 0.02225932561883263 0.014286591826001203 -0.27777221535331514
P 2.363944158925486 8.732111477205834 6.143856575809264 2.0295522166448787 0.24814230830202427 -0.21124183573124908
P 7.2296647383253205 4.232710442783456 1.8009746416377648 -1.422044248386764 1.5074385547928684 0.010804546814671715
Ni 2.985022629530824 1.9660510265297153 0.725525875712874 -0.8743491385212232 -0.07326229902926092 0.4708042129447569
Ni 0.9731404530508 3.5560027542064643 8.36901339048063 -0.2975802512181779 -0.08985825571472911 -0.318167074230594
Ni 8.087847297974285 9.117889802132222 11.50076987214307 0.5018153166142906 -0.29470498655291183 -0.7329276660172216
Ni 2.7231211870275693 1.6113792783028673 9.711777260417392 -0.2011872797087245 1.1955668266526827 -0.023577015988991652
Ni 6.238548951138165 2.251669287888375 3.0817790090952504 1.6724552981183065 1.5003736775262868 -1.945661234257178
Ni 3.6346436964189026 7.0228705606374415 10.649294868405915 0.7381117813213224 1.1684969670190846 0.04401162969425968
Ni 7.451412416086896 6.4573846797120895 11.488024142349698 0.9724392952274413 -0.4333645800410601 -0.3818157614294908
Ni 7.512187909037985 4.295015166911709 8.276846535862278 0.19229563364604946 -0.5275140069319754 0.27204276906870567
Ni 3.440193253023335 9.04988022157659 12.868018839352986 -0.8510408028125859 -1.8030963921773526 -0.20295491313210853
Ni 9.11658034070507 4.771219586894901 10.534289358224912 -0.12293164122993021 0.6333156733498383 -0.2715905120226355
Ni 8.822995425908495 2.602540850854608 5.957483586433909 -0.7754732526889161 -0.3429216554674546 0.6222031083764445
Ni 3.6469508024195454 2.9671022378319725 11.779765738368052 0.22142546113247027 -0.11242894192639345 0.5825975781696805
Ni 1.2192184735532292 3.3836483277599667 13.211909049927188 0.17495200016127935 0.8445120005551328 0.15823365896533395
Ni 3.2500100056071575 8.770415513218252 8.7250861708638 0.3081701109188822 -1.7636919222378011 -1.1278987338817479
Ni 5.772316583561744 8.1044124428814 3.5589815500264113 -0.1159032736282391 1.2034017493160696 0.8797422845123366
Ni 3.2355235162522344 8.349126059519175 3.8934225770574113 0.428199748010669 1.3762922389626298 -0.39491758891877143
Ni 3.427089481678901 3.138797355028435 7.641295311511392 0.4056534872790368 -0.7461104832560828 -0.8319182230505221
Ni 5.794092102958714 5.965402623092656 9.664372925339917 -0.328814269531795 1.350043589678746 -1.359237083252556
Ni 7.830570177294189 8.936012019851896 2.5124892800801155 1.1032984188345645 1.2372912029746628 1.0969439373714462
Ni 4.886378935900913 0.2525749637371433 1.5170605115489855 -0.8330929600849136 2.502068527184736 0.7451758872569554
Ni 6.179760543010096 5.891257803682536 0.08594737069302831 0.239626043300897 0.6180777733541614 2.8799150195538337
Ni 8.331095782945317 7.1988145596674595 0.4972546992051244 -0.11107628455324095 0.9866598097021975 0.026545611699012348
Ni 9.006439067657656 5.15789530496717 6.194638039378582 0.47180025830943906 -0.5931331875936817 -1.3980543132300696
Ni 7.388246927104432 6.366546516374013 2.6588421979783803 -1.4294731938609835 -0.1766754106102893 -1.5810471814179545
P 8.6675724272858 1.778816356592858 3.7454342059361445 -0.4710374120014856 -0.12135529788174586 -0.41656602042648255
P 1.9229578413816324 3.697140719078415 2.0737382040353367 -0.6258394195774512 0.4115312862160525 -1.4483427770719766
P 4.621089376418314 1.4374223640958699 8.515339752867435 0.5726201552419944 -0.10672906332813875 0.7637755046360136
P 8.644276833784582 1.8767329372958859 12.395695186872082 0.08748024240085579 0.7272491275752055 1.298547478681983
P 6.391435440562812 8.00926129819935 1.361084425722093 0.8729684561236127 -1.6587837141684854 -1.5927719260540505
P 1.7917827718435348 3.353155274945875 6.143440844698826 0.44546804817281344 0.7007405397617157 1.8025559462928504
P 6.719231179777841 4.022171022272466 5.939001866165237 1.0502861283035911 0.504343482352783 0.06341265992869079
P 2.073060580639468 8.754335693175744 10.691565748406038 1.2139656408748447 0.3582480014118798 -0.30111808916810723
