# total energy = -381166.10091667774 ev
CRYSTAL
PRIMVEC
9.30100577804289 0.00000000000000 0.00000000000000
0.00000000000000 9.30100577804289 0.00000000000000
0.00000000000000 0.00000000000000 13.61296211623924
PRIMCOORD
 96 1
Ni 2.170547853842579 1.318854739664632 8.068865411593851 0.19285382014236463 1.3058684378234284 -0.17889941484480157
Ni 0.18219554521141168 7.102387652975789 6.446758813970494 0.21780971875675392 1.9437797009637494 -1.0991584285242617
Ni 2.3006317229579305 0.7314469190482455 13.222733243988909 1.3284512082199507 0.2714251900893648 -0.471368312978343
Ni 7.006615194783255 8.136315376590106 6.276596910247816 -1.5401481292107475 -0.6671205377144253 1.045485107370522
Ni 3.260904780511583 6.285619816112881 13.428207346873846 -0.2655103672668266 0.48606885241331127 0.9023016578700911
Ni 6.495989968526082 4.765677327965917 11.05759113480026 -0.6999944056243106 0.1321197354871015 0.6621323404712145
Ni 4.531031550042129 7.334596567342575 6.4237667272800065 0.7725923315966952 0.019361949466379556 -1.3292251102714978
Ni 0.40547921427553163 1.7875789341496995 0.4839462208109781 -0.6410747484699668 -0.6516993180633486 -0.4724589749393605
Ni 1.4402421682235091 6.680456819388714 4.342589449239564 -0.9612066597364156 2.7347459070819418 0.0050933553625073565
Ni 3.8680651474485956 5.55203087539602 8.474340905467006 -0.6798788658213581 -0.32967584620114193 0.7421322153346251
Ni 1.8952845829667861 2.917958089390372 2.053597005118395 -1.3039128567589542 0.5885124009922187 0.14310168841990195
Ni 7.880016856831589 9.169592029788433 0.06294920822055634 0.8477644460541593 0.062269547463183084 0.07166204442167659
Ni 2.810736092882309 0.8692478327943001 2.2438927964053508 0.7982907648040639 -1.4859963257586923 0.15614592319836978
Ni 7.787443944683362 5.1620582982282475 6.653907097925124 -0.4619565327461399 -0.8554371321080687 -0.6259502341237027
Ni 9.401735837113618 2.700891212698389 4.174673738452062 -0.1357395916278759 -0.17861273684231818 -0.982623691959611
Ni 6.460850768074359 4.771629971769279 2.5055338139773866 -1.1884315011594824 -1.5280914551565294 -2.464195663398363
Ni 5.058221867883345 1.3415677961768362 9.861352486579541 1.0117602043142508 -0.36489635996633285 -1.4735452444795334
Ni 6.344411474677027 4.747326443240864 0.06992310247643299 -0.8788339137654543 0.06073716997905669 0.4451518024839753
Ni 5.295471927471104 2.923734014080823 5.494518105149003 0.3736229412060533 -1.4957685746541078 -0.418490234032389
Ni 7.092110041409046 2.79152021460458 10.024094977861685 0.1513490160303587 0.5215747586294049 -0.8559886337361645
Ni 2.279713760592678 3.1490508830440285 12.927209591868015 -1.542762426905143 -0.01669160172306803 -0.2165843309900851
Ni 4.536565648578067 3.584226349093584 10.317699832456588 0.8828139814591247 1.3215758212563562 -1.3291585186996207
Ni 0.5878849622212495 3.089422133945035 10.363234767250527 0.5283079635881804 -2.53539208103753 -1.137042605164545
Ni 6.930179527945706 6.954455153456292 10.872618309214342 -0.9078475273889848 1.0351911816436816 -1.3670606930620328
P 8.488916511879896 0.8170673292542638 2.27694485112352 0.15446982104752752 -0.3680562457515532 0.17008541609759742
Ni 4.356544678556071 8.675308670972678 0.4326390817289665 -1.6664736266135753 0.24000450968623827 -0.05808687684040319
P 6.591362483463078 7.592894803378785 0.9717272463721535 0.2965721216686376 -0.7111298534158398 0.09897513041433277
Ni 2.4041054140710645 4.625232138230337 10.185177239583046 -0.45377785359008943 0.19328396570124776 0.06522657320897798
P 5.418868373313616 2.7328866731414614 2.1576678208130535 0.05521135506482104 0.09459577039971451 -0.06389191355795447
P 2.5525308669055264 2.368677882435116 4.23944408363621 -0.9268996589244294 0.6482884926095867 -1.4074154427299954
P 5.459039417980368 0.3884267499800872 5.586487382011544 0.03976545282339603 0.290324598097029 2.7960399780057332
Ni 1.4124786654843897 0.5160421321182322 4.637187651269153 -1.2061865111500583 0.2315224403571561 0.14578103502427794
Ni 6.508676540631998 -0.06015890643773027 11.66909972201551 -0.1677930205189949 0.29219558986749683 -0.57015986662696
Ni 2.418577779317989 8.797551792078288 6.742459185204299 -1.0983133069151472 -1.0473429865148671 -0.3889971096692785
Ni 8.33446400719453 8.471970079052198 4.564398908861758 1.598465376894402 -0.3940045901861989 -1.8637140058594097
Ni 1.815984206298869 7.488007359362353 11.478912752498083 1.4674067356819631 0.38680087334890806 0.7796476957815799
Ni 8.572783682465705 1.0431264184917015 9.697547820418738 0.7336758570371558 -0.6849387968427688 1.3278166599597454
Ni 4.362329904252464 2.6329380632806316 7.8398551131707785 -0.7375584799210136 -0.11234949483870973 1.227542351118015
Ni 6.062218954373884 0.21773654911986173 1.659638016803558 0.40549664998619844 0.6594889893110965 1.9662992222225042
Ni 0.2109282127697661 4.834858210168118 8.355146654109431 0.5048445903589177 -0.6082443322035074 -0.07803966581324624
Ni 3.0146792501890673 4.115155671323787 5.667852581998754 1.0939532301742385 -0.3050775880364875 -0.1029963357585839
Ni 8.611801402395555 2.6622362320003052 8.1230586528199 1.120469274186896 0.9253443986221678 -0.038986922786158666
Ni 7.127677088134135 9.061942187007002 8.542624240595732 -0.6654722034777248 -0.8427399962563744 0.511279547350984
Ni 0.8971062057940357 8.368794020129233 13.445795549111592 -0.6455772643260108 -1.099528667379487 0.2720949624628798
Ni 3.2773954640480856 1.570093512190292 6.067814439549044 0.9955090325627113 -0.3462412067589908 -1.0675821963798775
Ni 2.8189116771059894 2.171859295680507 10.572302778831741 -0.06886725528535881 -0.29083496207454423 0.8701890936062626
Ni 0.9024682357200331 2.8848279062222844 6.305197503521784 1.3726448720180295 -1.9807938162942536 1.3559789813265744
Ni 0.9074219514851437 8.494664533552516 2.4386670220537425 -0.27120998875476515 0.6519507719525224 0.17919329193613656
Ni 7.079953626641867 6.7424201209793395 3.034192760656964 -0.03085066683226945 1.7412958139307881 -0.5407132792310688
Ni 4.906224828766867 1.1226314172903593 3.7381598576473447 -2.0989270076942756 2.4336352741130023 -2.0484565097485494
Ni 8.162702330449699 3.7041907237432197 12.966686781491441 -0.6324880352422204 -2.568450554154396 -0.8475186485919405
Ni 7.134950474781369 3.9871180235158414 4.400185928540066 1.4317403926286052 -0.7728895511221399 0.9380533615484037
Ni 8.213141685677252 6.884093043499362 8.181050424872968 -0.9370606586178313 0.2925192917555027 2.784375140073295
Ni 8.845479875701297 0.273740696202964 6.643833178388528 0.6127720448705318 0.9232324944854874 0.43499414522468305
Ni 6.686818707453558 1.8117243455770877 7.410896439493359 -1.7167628617864303 -0.8254025334191915 -0.7713124364430072
Ni 5.748375110847548 5.739381038100905 5.024326211926169 0.05358281832246256 0.9925172969242392 -0.4829627026841618
P 8.276379225082033 6.1774956220283705 4.708982116141269 0.28948950379024335 0.44614990473118643 1.5138452296501606
Ni 5.272712365929186 4.522995480907589 6.972559561523862 1.288668014784742 1.8891635562807658 1.2859925248351078
P 8.132381051076322 1.5105856761685545 11.883313050084254 -0.6220293018027416 0.09709385423121988 0.28670962705226105
Ni 5.82738715633124 2.4278694842548 11.924533248221351 -0.07354692014921527 -0.2783028910458046 0.10551138887095377
P 2.244900095348951 4.264008970431616 7.786083207513937 -0.024621912313738243 -0.3211732080467694 0.2710091855978688
P 3.1716430264789772 7.905436506073134 2.275529238019033 -0.6417884867075399 1.0259508939923363 -0.6122519107010036
P 6.776378093676332 4.998314088606069 8.71780961762809 0.029498523679749197 -0.3049516039815845 0.4231981810310195
Ni 7.16150484674793 1.287863787863377 4.309359745307888 1.0383384690234119 0.42992213001841445 0.04724967701558314
Ni 1.3073959003431594 5.413604003950018 12.85130315226861 -1.3305026914323408 -0.24993719541891798 -0.37082095298088397
Ni 5.728359346058743 6.922738723191502 8.389341802457963 0.6044126171622429 0.5930061750975142 0.39112752574872
Ni 2.2498389295045533 5.0307094923046805 3.1862223532942435 0.17698008633490167 -2.7818192064206606 0.7812371517558868
Ni 3.9950889856087812 9.367229105066004 11.402421279624878 -1.4099886027738104 -0.2659903922270387 2.084069116745837
Ni 4.016937048568309 2.20598468648447 0.4446364492945243 1.5869964570228539 -3.636149992838428 -0.8769207559031413
Ni 4.316531750990345 6.059782090816881 2.4915395204359196 0.7108357192141888 2.439743958113901 -0.9341540264939977
Ni 3.9873319466525246 6.298427301296053 11.268156608338257 0.27803472498608245 0.06500520122679126 -2.068654324852663
Ni 8.98239068317863 5.186715264982487 2.9714239919516974 1.1172032018411144 -0.7759892730933861 -0.2018917619749168
Ni 2.8516326160125964 7.695215169755017 9.265023141062867 1.2821803501778692 -0.2969870977188692 -0.10666298597689372
Ni 3.353542799701409 8.64390847490994 4.457115525714472 0.3545145025113765 -1.2694284498288395 -0.5710489541001327
Ni 8.174719230127737 6.411499630542108 12.77029232060782 -0.1787999131524598 -0.05462488643373173 -0.6180929428628129
Ni 4.643685334020761 -0.007796103181216066 7.635524103916208 0.3092273485388029 0.9099406624725878 0.8685561859885299
Ni 8.338723867916311 3.0173114348708663 2.0225595482874263 -0.6500931499184933 0.007967077365876603 0.2753183544961839
Ni 2.4993756179426896 6.48817712353417 6.70051815910664 -0.04768290789825981 -0.6063160048325429 0.7824224303132395
Ni 4.2511456792127875 4.195274536514667 12.537197950475283 0.48180467782031866 0.8164363253648392 -0.24665878177796227
Ni 4.404742491351421 4.184810904829069 3.6209932255852886 0.7692390988537461 -2.8704448752798695 0.9751512948419656
Ni 3.6965359958523334 4.078277182760769 1.2458883480437297 0.11192449148614918 3.453260225887311 0.8111748198555835
Ni 0.641464337055076 6.318275647977889 10.010196484681428 -0.0895443240187361 0.7934419213521948 -0.3510735951506276
Ni 5.753592975181433 8.34524387308218 4.022535324045252 0.5163235375327947 -1.5109771640737462 -0.5108427169238815
Ni 5.3501990464382665 6.786237159975651 13.079348006274826 2.2169920648605235 -0.14725967645233348 -0.8703616146283849
Ni 8.729077786327737 7.001676360627653 1.2482266209377382 0.0461081072119722 0.02588740928972316 0.7136114821871129
Ni 0.9526369316746518 5.051664658693705 5.909074171124067 -2.1747994906528736 -0.38887369671753674 -0.6200420961693838
Ni 1.7150589908140497 6.30858399978554 1.5366582560272815 -0.708644882210457 0.9859401579273536 -0.80149410223271
Ni 6.605844149715945 2.0499603117947784 0.40579544847758525 0.36603047357077606 0.4543537806982175 0.4527419561264074
P -0.1407065480025707 4.638486071698761 0.8002539008115482 1.6485874903617737 1.9339593724392175 1.2822284298069853
Ni 8.875884864128158 4.686414155321771 11.182422725859738 -0.6697124668113176 2.2279475354307627 -0.8565499055562732
P 8.008538156948559 2.855948282770034 6.003778873834373 0.2928306523483344 -0.4883558486752751 -0.26453334806553797
Ni 0.8058224130694748 8.512959612241914 8.61987746585565 -1.135706917072257 -0.23489547059444707 -0.4726170977837795
P 4.978949394233257 8.294413875605033 9.962306535182785 1.1987776202804967 -0.645325553326521 -0.8228913369615635
P 3.592141505150867 6.154215204153659 4.606708254794749 0.0797111399783982 0.42233866124420166 1.1593983471519258
P 1.4399631380452267 0.7977882041361242 9.87804221164322 -0.9670237806388248 -0.8491878087642472 1.8367351632777207
Ni 8.961528526849035 8.236905755860986 10.954391823362437 -0.5809045067379738 0.5466581839605941 0.4860814508188015
