# total energy = -381165.0514899307 ev
CRYSTAL
PRIMVEC
9.31971125925836 0.00000000000000 0.00000000000000
0.00000000000000 9.31971125925836 0.00000000000000
0.00000000000000 0.00000000000000 13.64033947878036
PRIMCOORD
 96 1
Ni 7.452003875606904 1.4624490969942763 12.235179808810994 -1.776133490435264 -0.14108620065176994 -1.1261408706503766
Ni 0.9302451193389261 2.8325771338634866 3.3933208634288907 -2.0728997303925785 -2.5641573260956805 -0.40649269535088056
Ni 0.3233445875955093 7.145674284929458 8.047036686982537 1.8589965457790822 0.31063605596087146 0.5379573137524865
Ni 5.530260766389381 0.42464798547027593 4.32629293029382 0.7938748951245553 -0.563135869900643 1.0106026936710402
Ni 4.687059886638188 3.9117065051416366 4.666728004468912 -0.6056966260809892 -0.12652630055972403 -0.40317674360377015
Ni 9.326141899510594 7.90123259962754 5.816881963583435 1.1663935475228364 1.5053423343854722 0.13739615339469238
Ni 6.742158744829017 4.219611127028566 5.969871548349743 -0.30495031843000386 -0.6693895362542601 -2.901900265575673
Ni 5.492515935629586 0.5966423255169219 13.150228206906236 1.347788217985666 -0.7386951646286182 -0.6122040881822037
Ni 4.390338918309716 5.514268141800787 9.381743297118724 0.5330750459595206 0.16083278715107788 0.07663147261180996
Ni 3.661891643779595 0.3790196109228997 8.565846375559374 -0.829202881001888 -1.0282263202900743 -0.4351280996993861
Ni 8.064019996882184 6.183134501998226 5.170724943907573 -1.0798538146583792 -0.7537199201722244 -0.16326299385912527
Ni 3.195337576454649 2.341642701781104 6.672376474508762 -0.4062898353114551 -1.318298436056665 0.9910535678945189
Ni 2.4104687697221103 5.892359509478334 7.595391361822145 2.7441911116552418 0.3975802233525991 0.46878769673536036
Ni 5.8536827075886695 7.469692687651865 2.585649519061787 0.08504566481743418 0.11823757818837055 0.0957576519182996
Ni 6.837499391414865 4.931655709672949 3.3099374064392917 -0.2715851127059968 1.1225618950498666 0.8877481855359486
Ni 2.929250499165052 7.490680677496568 1.7146591241600877 -0.06112977743178504 0.5765390306804264 -0.21197974233853817
Ni 7.568565504819926 9.288219994236124 10.088954677483594 3.091607569669256 0.4351527822897344 -0.6063689695576654
Ni -0.017811832234103115 5.183036282533175 9.444762252949502 0.6937857057104374 0.875472196382073 0.3293536869750328
Ni 6.254253218918715 2.608559233376287 3.142093133833964 -1.252064247518779 0.334116912691631 0.3524146825595544
Ni 5.5511462394098 7.102952728336151 5.185634618043257 -0.27913824246290636 -0.2040743714485324 -0.15404198948148956
Ni 6.209555883530082 3.899255370846554 8.263549423960882 -2.3664577478252404 0.009423864417061188 -0.005689851295925685
Ni 0.8154691468107379 1.646168565825835 5.557319616174068 0.13235961941204946 0.5220473273904492 -0.2186952066855008
Ni 1.928350784528312 0.8271756361730531 2.5879002293404265 0.9577901778556988 -0.4533834463651482 0.2223212334738623
Ni 6.412175726875433 4.723024652539927 10.60248568158084 1.0028760144507438 -2.2315874461761953 -1.1957444898811278
P 2.882446909022908 5.636598672307713 12.248643063753116 1.87617562866153 -0.29300394470140506 -1.842052718835892
Ni 6.1340289431652995 2.171772323939435 10.32032210230096 -0.9187119809073145 -0.41442840525818947 -1.5049638680001307
P 2.814851042973332 7.537465628216116 8.846387393102148 0.00013575424691589523 1.556590333927171 0.2922922633463611
Ni 0.10555132228472072 7.768436033332156 10.595583503393012 0.9209714663654526 -0.9096082188338335 0.40124070292332187
P 6.099965398368497 5.86259235159024 6.949371341902374 -2.0790323256528773 1.5020798615841164 0.34942320403139826
P 8.977733812319451 3.7525910741386843 11.115212394593007 0.005601148236861322 -0.3027821071340915 0.24666803774934293
P 1.8966451266900852 9.305004794285109 11.746187604563262 1.1995206690941085 -0.8865857897967311 -1.0172675072857256
Ni -0.36675021099814215 2.59962163024082 13.40683061400713 2.3556010076163947 0.43766886384336884 0.8832068460221691
Ni 8.595644288494755 5.683663214366221 11.736093425255625 -0.2736003433638127 2.582417557857449 0.12409686518262501
Ni 6.006274340682521 0.23358272019307064 8.577318008196963 -0.8236590683655234 1.5006387582622156 -0.5310145638860662
Ni 0.6288037172376556 9.509740212095268 9.151399176601958 0.0793586417349859 -1.3596605439432197 0.18935609140175128
Ni 6.535382310244438 8.948153048657332 6.448893525450108 0.4800506712436894 0.9319657605934273 -1.4758168141225294
Ni 6.972681803802719 6.689232104363618 0.10147954041831236 -0.08037088504958416 0.16322776974581565 0.5981596942739957
Ni 8.272446020366635 7.049923571046465 2.427230270492849 -0.4459277614180514 -1.9368829738439157 -0.8217968183458041
Ni 2.108034818367527 3.667697823918694 5.191649559715447 0.03683182411636883 0.9581635020347177 1.1832674404600396
Ni 7.561091096358357 8.208363685476675 4.349740391950256 -1.5779114640024503 1.2637817930660233 -0.31975755864616545
Ni -0.031982453263798484 8.857779808193698 3.0699082419409005 0.6992259028894022 1.271516185595804 3.74659995666158
Ni 8.03759861535033 5.319113387205705 7.525539193667151 2.5691918031957948 -1.5812145602337542 -0.49481703091958656
Ni 8.024588298377324 3.397668508749741 9.047201076397808 2.4265703968464205 -2.0820536289777043 1.4594802817460348
Ni 8.791162511830485 4.0295728939364786 4.71299664318251 0.15869697175499767 -0.5378526698538221 0.30813591524683703
Ni 2.214652315624821 4.416713701285079 3.058191500896157 0.45956900635056985 3.5117538512478297 -0.47961512636816755
Ni 8.977006874838152 1.4159903361701844 1.8905239403090897 0.39306639464264564 1.169234359405741 -1.0636021286862072
Ni 1.2597919748037298 4.42068389829833 12.619837845069616 -1.099148658332249 -0.4672182953657115 -0.39964661896332465
Ni 4.607739823774829 6.5534252713187495 0.177626241584459 -0.6689442211867254 0.2921158856694969 -0.5946380542739824
Ni 1.0320555095083428 5.714502139053667 5.935348541785915 -1.516248953995647 -0.018598846048109904 -1.471341551959995
Ni 3.235104784566264 9.50545314489786 13.541160272811153 -1.6264788313881924 -0.03292220464931749 0.7427361674672112
Ni 0.683500170878681 2.27388840063945 8.11900256566008 0.44468977524589226 0.08002892832913314 -0.6083623458386104
Ni 1.8420782170361119 2.173487150818399 12.326665822803696 -0.04861904655928401 -0.5754473402781445 1.0796321855658761
Ni 7.938390288575514 1.5613498732962343 4.353573589207418 0.06907680019300362 -0.5459945822346661 -0.06792031799105722
Ni 2.9064824444622923 1.4686560247192202 10.430931231907495 -0.2378938911011387 -0.7255781676306858 -0.3532806301042754
Ni 3.5222730488135534 7.629954443144558 11.920893048626704 1.330829221533824 1.25979992560014 -1.5999460752049863
Ni 7.369766743107047 4.0842889189712315 12.855256548388533 -0.29589309332374203 1.707990514910439 0.5019762676721871
P 6.643407083907838 7.162701397472208 9.978767730798893 0.30475260059690096 0.048837847438309434 0.008768233110933285
Ni 2.1478020264791415 5.832834513413444 10.004615950085878 -0.03502099615987517 0.24713160764932274 1.690594688031495
P 1.7723108582539353 9.159654576870357 4.963147014151305 0.42655758442155567 -0.8254171887072107 -0.9700036892027553
Ni 5.715415470760941 2.215556327620796 6.1755678283948 -0.8441800711370108 -1.308524644499353 0.04404659669725317
P 3.985928685924599 3.6936625395969127 2.297210046193353 1.7698263172703133 -1.0912201475137917 -1.0428749234411845
P 4.724217575586162 2.243692536031615 8.246362944354923 0.3954261531240738 0.2597595808259785 0.4294292495423959
P 4.890975169854061 8.466296015379898 0.9266840576516874 -0.304612732584927 0.7081805409795288 1.289851493569882
Ni 5.662004205308008 6.379771090689803 11.67247521198834 -0.7512028101773256 1.717564017531487 1.4012846472419092
Ni 3.5127110250210727 8.164225532765963 3.893498585177338 -0.13285764209439055 1.0127703907463204 -0.5137871442641861
Ni 6.895645070207546 0.5517613918157025 2.2584586866132983 -0.7026835224206994 -1.5745680014515142 -0.14888872741532425
Ni 4.289853791086977 4.382072334387757 7.186808694688594 -0.49749946284775604 0.9623641703796264 -1.3892179458853624
Ni 3.756747665377911 8.90284993203428 6.128481851000305 0.6019669838352277 0.5899856431036355 -0.3515466781323042
Ni 4.332416912588206 5.698183324569618 3.0732502904126195 0.1734941846688302 0.5848953730649217 -0.6182862898205417
Ni 8.087943695785986 2.3948023350289716 6.6047340099026925 -0.08801426052745487 -0.4358765478296364 0.7321311382578553
Ni 4.255408138126928 2.3225186541961422 0.2898187901406437 0.1542600190295666 1.8703780481431467 -0.1544626219586759
Ni 2.865224082542884 3.43515238759317 9.009321109824185 -0.2796702037069764 0.1365296916293391 -0.9020602312832464
Ni 7.660718810141615 8.228065555162157 12.1418251927029 -1.2644353674896225 -1.061439059596617 0.31793901738018787
Ni 0.7969415607488934 8.5547214361821 1.1658735161620646 0.02638491775143198 -0.4416383900140782 -2.2072416703419795
Ni 2.6703023207302703 5.347398710997304 0.6529464293569756 -0.2698791857584836 -0.6060100435563499 2.000775915843135
Ni 4.445576847177197 0.9050781709478776 2.4296450076903455 -0.5069621509225527 -0.1007155101442072 -1.8008860147895953
Ni 1.5681346231216984 7.229570326040485 12.943577588424192 -2.1682632321962525 0.1461186208693548 0.29716630360921076
Ni 5.570503279777229 8.904490201222854 10.844151387383286 -2.108631379466233 -0.17803835239608692 0.8119104124700275
Ni 9.003316419834423 5.717326011577177 0.47782532616961093 1.2518814420840119 -0.7490381984258391 0.900057856141237
Ni 5.756925464885415 4.912037717389156 1.0761004651060675 -0.29946229873223906 -1.7393127220624884 0.7843646416412751
Ni 7.418788424538285 7.379449923146412 7.953532023522536 -1.1988647806776642 2.0736741466647577 1.0099298359737316
Ni 4.835401731379826 7.587400641354628 7.809926456062904 -0.13159445911125078 -1.3533646836321787 -0.1727382803394122
Ni 0.013773601328370131 0.398947017621811 12.476504413179907 2.1849340079837147 -0.8825206185884221 0.7219017472203632
Ni 1.6204182035074868 9.3572697352483 7.171121756630598 0.4800984937624893 -0.4092525174842048 -0.5803326933949038
Ni 3.451918548219558 1.6887876055948563 4.444077305629234 -0.5429246850600907 -0.4209299538221331 -0.07669909262495178
Ni -0.06562381513876814 1.766905425700681 10.517179568150317 0.059314835710233334 0.8572793275231301 0.6011563150084743
Ni 1.2535664076561885 6.795998717001691 3.662472261793505 -0.07890227092385767 0.06691784486847185 0.02074160342272557
Ni 3.2938748840159575 6.236816039078821 5.0959491722734676 -0.4877526678736374 -1.1938225902680664 1.0012940146756046
P 5.837410491661114 2.8975168821929294 12.272199566031746 -3.0127117265033014 -0.21442280456239202 0.6162579465366032
Ni 7.699507448566864 3.604808412074969 1.5308278187929443 -0.23067191943140275 -1.2194179222386676 -0.7192853926434387
P 9.018917616548471 4.698411295000022 2.6043504517537874 1.418991577603369 1.6929534180716583 0.8890730749949592
Ni 2.131902599003535 2.974096949934466 1.1164054205596181 -0.739444641200133 -0.5843844948667742 -0.24490040432595886
P 8.182259174128975 0.500327769100357 7.791157489478423 0.2880892810086071 -0.08105942647617652 0.15675681730949131
P 1.0990921928799962 4.279527550968001 7.54729512772287 -0.7691223707702237 -0.9864836891356493 0.37260786967797765
P 7.887318270658558 0.018511742552636573 0.397881774620368 -0.05225947152534871 0.02813095390826123 0.3422068887886171
Ni 3.5836060688703935 3.555730812375938 11.212645316365418 1.04654054521823 1.3591807760933237 1.3233336844877275
