# total energy = -340854.4553370532 ev
CRYSTAL
PRIMVEC
9.47458865503173 0.00000000000000 0.00000000000000

0.00000000000000 9.47458865503173 0.00000000000000

0.00000000000000 0.00000000000000 13.86701820273240

PRIMCOORD
 96 1
Ni 7.244460063288528 7.57795611331036 4.686844093404914 0.11695588326246954 -1.03226449491519 1.2494414651839514
Ni 3.497838155717771 4.7772866228602515 10.890255292114936 1.0938904952571031 -0.29744038320620386 -1.7602119341090008
Ni 0.6376540359255747 4.883354644110695 7.42940782586264 -0.5189170092915837 0.11312699643468259 0.012347722932075509
Ni 5.604806680389067 8.599790511868687 10.976548899149053 0.6195682418567587 1.427934902839586 -0.6185053478098832
Ni 4.4441411326228115 5.145668108723452 0.6685923580864681 -0.4296961300505374 0.5032260809188881 0.05222424741203909
Ni 0.4123539997913338 6.89674265552691 0.020218772429517563 -2.6046910245436687 -1.8859339935998745 -1.5406222406336887
Ni 1.2360453759992651 6.22116657806003 4.905485388553464 0.9572155362991515 4.1805155241101035 0.5703321305387662
Ni 5.3649574657436885 3.236585845046957 13.636784139971798 0.7939718257137358 -0.9977662040280043 -0.7054178906327271
Ni 4.618284074166641 2.3677944788475793 10.224055267692224 -1.1427453119762772 0.6321710182224339 1.3327799175022916
Ni 1.328147853406641 8.768798226300614 0.29223611085779083 0.7116494733647357 1.43392968697044 0.9828005838571074
Ni 5.644761021220967 8.360443450427978 13.275922635213238 0.4155360365000714 1.2368433168039668 -1.185959385469906
Ni 3.1476194565215727 9.433762764348065 10.306799693774092 -0.08008369282646853 -0.48417214961123056 -0.05504937556566004
Ni 0.5262925619308134 8.336955944873726 8.84165212916825 -2.658461790507222 0.2851908764148895 0.35502538070952405
Ni 3.187431678521963 0.02674392171358914 5.081652102257999 -0.9701713251288712 -1.27511135914623 1.6832832419717458
Ni 7.7230878640485745 1.2908748211958998 13.203024201778398 -0.4272669517837545 -0.15386509758399308 0.30325416167450353
Ni 8.78381544949686 2.8667357979248163 2.6863187836992504 -0.7985918409842504 -0.27756472732819937 -0.025044344563137512
Ni 4.444747506303921 7.569078423635356 1.0823429122621089 -0.5605848213440152 0.0634568829030649 1.3923374653509506
Ni 9.484252847889255 5.465501801742771 1.6772987664487595 2.457653234294155 -2.096658009154441 -1.0048277388604758
Ni 3.0702689138249553 4.100185136601828 8.261442524939097 0.19210408646053367 -0.2287474487151802 0.0868238397637795
Ni 5.318058251345324 5.345108202276098 6.4954227618140274 -0.8256645288313265 -0.5126422320264654 0.6037197048602764
Ni -0.14574570409033868 4.249116197435749 10.593417373492846 1.8064218570061599 2.188373886903199 -2.139830944997489
Ni 2.86822330836129 1.3222262354270495 1.217228842707315 -1.3530039578586506 -3.076843266875888 -0.7228774808700712
Ni 2.191207093401774 2.9493447373873116 6.377094622698636 0.6129841608813379 -0.18269179200769828 -0.22339209794053785
Ni 2.3043336832838923 6.720790067528516 1.0481936519679615 0.8311232379530525 -0.8342250168068278 1.2995728346227038
P 7.582845001114311 0.884565609038133 5.419882604286874 0.8561642400820804 -0.5690288383463104 -0.05979666044265831
P 4.405835370236429 1.712446648398985 8.164622649784459 2.9298957223473345 1.040510794084382 -1.8425306869135751
P -0.005238500129465915 5.945759231770801 11.988037046773437 0.5476388027063085 0.5533533365925825 -0.8501476015743552
P 2.4154516603473324 7.992374625994098 8.73774715653339 4.05186729211137 -1.4656398735895275 -0.33197749775112506
P 5.716000454162646 6.340195836744205 12.713490201888257 -0.7187740002246589 -1.1213892148980042 -0.5590424165575598
P 3.9608802579555324 2.8881104701839506 1.4666871852805359 2.3824723780859425 3.1158433022881695 0.505073418540272
P 4.810333988480755 5.189260691642015 8.878372792853854 1.1038920865545052 -0.04952073243794697 -0.01819646840336866
P 0.9404590505533406 0.8084448679635173 10.962599462106889 -0.09224629633093145 -1.6820064321418515 -0.749666061817825
Ni 5.40637089324576 6.105737663107448 2.9767215616305593 0.18332916848138103 -1.179579450085491 0.20009430375486184
Ni 8.237766475068375 6.63872117962576 8.709028730520686 0.7282379738510362 1.1429399444855866 -0.2876542503537175
Ni 2.4713517340746773 1.697382052258904 8.63815406924655 -2.396919149638891 0.06894901636588771 0.5714127651974547
Ni 1.906827311549867 3.907055119168237 0.9598942744917985 -0.07487978002802588 -0.10738469463426667 -2.752254605389666
Ni 8.307897381124274 8.839156522486931 10.761971255122818 1.0258107688700462 1.8108950622861653 -0.6695782552262985
Ni 7.358562535813683 4.384924952826895 1.3127838602615118 -0.8708763494812742 -0.23468849678996354 0.15637835092415003
Ni 0.4925023885509486 1.2360264268217303 0.8518526964011155 -2.1862511841332415 0.3543142135751124 2.5401203397511347
Ni 1.5156594397011969 2.4861889400843418 2.7028348868384886 0.5764796381974007 -0.17088014408475086 1.539650877859355
Ni 2.232601571726311 5.665586167331595 12.67319288094298 -0.4012214196496122 0.27238112624473093 0.39063567371396596
Ni 7.437542707778284 4.5856630650406665 8.703412194299403 -0.5130106711094777 -0.6409785892117348 -0.10403249033258212
Ni 8.062515006638765 8.300895660025205 13.17865934930429 0.204743372491099 0.23197109785880052 0.20923637526544608
Ni 7.27787693787096 2.973476514977743 4.631681142683669 0.46906074789108887 -0.9881685330372402 0.5670416327129525
Ni 7.421094821678171 6.778433465589053 11.030616587408792 0.5399085239415863 1.0091682752173587 0.8025487687494695
Ni 0.4489732853771283 8.515495095605605 5.578202035130357 -0.003271214552104044 0.7642940961436451 0.12220556169718308
Ni 6.743273266673429 4.716260796609772 10.89666106158054 -1.5277070752339172 -1.5346300276059959 0.2133262290641036
Ni 0.7669925946474992 2.0398315886658778 12.730047993218074 -0.47121070435455614 2.0941684099633675 -1.4643059852694522
Ni 5.363972108511884 0.8150950818193178 5.119134522880499 1.5323018936934514 -0.7959646877740485 -0.44783217752961585
Ni 2.6255790900295444 4.984666421799933 2.7396654557537947 -0.6159913231387779 -0.6931966659761867 0.5603829897458543
Ni 1.878261426416317 5.83231998045936 9.402019102141947 -0.3209847461850472 1.2197963886240089 0.29999940218263177
Ni 5.914208851175537 8.374456367214883 2.8092913662283943 -0.3002233452679797 2.006041278007132 0.6763646820205126
Ni 8.789471778990965 5.070079839537562 4.184635936120696 1.2761426286242217 -2.238468746677061 0.20502002319125337
Ni 0.13043192626567643 7.407944092469093 3.208813930452111 1.4560990239786278 0.22574722843627573 -0.0892303923227431
Ni 4.522742321036718 2.776376644850633 5.9700842909720855 -0.8150232470673964 0.8085065289948011 0.3953973567686674
Ni 8.540962790212232 2.215916820907014 10.929443138715559 0.2852950060929216 -4.1414180438880095 -2.3466180873914944
P 3.160675439842976 8.239055019140734 13.278918500181474 0.6966658554717099 -1.252304131443727 -0.8168117064263868
P 8.816209068492416 6.966579849331021 6.572148929110877 -0.024171197929564823 -0.9875473545134736 -0.11756677737359109
P 6.564165640615511 2.621599762747259 11.395319090453633 -1.279025092378339 -0.4528419720393814 0.08197191098811689
P 5.167023831805051 8.024597702391844 5.541066384456744 -0.43331855729447305 0.6942032528638302 -0.2349836594328792
P 8.720487298175915 3.026875297270508 8.002018809900381 -0.5738460572292956 0.8533270277436013 -0.38466145840840205
P 1.3616689484655133 0.9602306223930394 6.646767000406991 0.24264811795667243 -1.0578410578327138 1.0966683151125565
P 3.272456638120131 6.888405017411644 3.34871855056738 0.5555626855390755 -0.08268924877011566 -0.2527191290394293
P 4.784089377595206 1.1492865666566725 12.2143053858797 0.3268890274846241 -0.46119548621039924 0.10192752817443737
Ni 3.0018718575134806 3.350508300385532 12.555239935542776 0.07344664712592512 -1.2012821318699052 0.6432177629548987
Ni 1.2838731000968304 7.941647677733725 11.804881876394106 -0.2638592048166488 0.38009543630427445 -0.816969829270806
Ni 9.333009987396101 1.2051297928514133 8.879495531622785 0.3876459949580227 -0.7229772396727291 -0.18708477886907135
Ni 3.8815021532627028 7.04446096899861 11.26646752559435 -0.7900097557421942 0.06377184304032243 1.5717680701088736
Ni 6.395603231855648 1.3310565521582165 9.07902847614535 1.2556043994615538 -0.9084612497135838 -0.12543898103281623
Ni 7.6550318929327235 5.078540647306802 6.027660419452375 -0.4822345662688856 0.431031046811877 2.080132757805908
Ni 9.322332125855302 3.147230998382112 5.829292849348192 -1.7659460083793006 1.269445419109704 1.0291439470083372
Ni 6.2148280781746745 3.234131926556214 7.198355766887743 1.8571880318154337 -0.4060550935928297 1.3385810975651011
Ni 2.665950312767208 0.827284140268509 12.69492285028089 0.7655801619449203 -0.8192776514683761 -0.31050518680996203
Ni 7.9597630914568915 8.886936873640659 7.346302417948737 0.7063139200844353 1.350299414443294 -0.4397463151976878
Ni 6.021726484507385 1.6574182368382362 2.706231526911582 -0.056245195645974105 0.49749843440649155 0.570483825625282
Ni 8.158852625225144 9.172036724238884 3.2830994436824916 0.2777884133032313 2.650960339923854 -0.003859997176038513
Ni 0.6154797083744767 1.4676706475945864 4.758814017140555 0.22608121473692674 -2.0958992766115454 -2.424019091179477
Ni 4.661156588338884 7.329920853969994 9.074770595953305 -1.1221155515410672 -0.551156843161896 0.5030944404370303
Ni 5.255232253229048 0.8319266887645089 0.611364894472818 0.1289531648336618 0.4112980871593239 -0.21474882044324303
Ni 4.54116092160044 9.111901509332537 7.628745593856598 -0.4781372562710604 0.37980541586768135 -1.0408951740069945
Ni 3.485994919758588 2.065005571020718 4.130333278059526 -0.38157587750454286 0.8966218338764945 -2.1030333165531654
Ni 6.227400857468944 7.308621978420999 7.300513625353904 0.4056426886457595 -0.8000180319078157 -1.186317540140273
Ni 3.7447175152285204 5.247813650224216 4.748302908362062 -0.2590985502032119 -0.4877855779941019 0.871763380071918
Ni 8.33564845162383 3.629013837201684 12.474131770941028 -1.1134522194391148 0.91288457559226 2.976749706586396
Ni 2.6444619454428664 6.410250946089965 6.9665542679413495 0.3974362415755671 0.2525831176821972 0.7071032487549499
Ni 2.9605531758990824 8.910632820147793 2.86966818314831 2.6800276896034556 -0.19718844296197655 -0.6276893283019964
Ni 6.790125108127959 7.122436834553872 1.0922069066277933 0.8559716644553 -0.7730816125282879 0.3015184099303195
Ni 7.687889766777882 5.661028890134502 13.221411536199188 0.019626773091992008 1.1563299926392472 0.4181876151903056
P 9.227396746406491 3.3010604216087502 0.5126207303395323 -0.058795729981969705 0.7409366523646271 1.3196768044614304
P 7.493802815878788 0.12937171978261036 1.2530532102955292 -1.1872001998555426 -0.12285347969382712 -0.6708103278611868
P 6.739293939391144 8.346061024679146 9.106554051432246 0.2405912354276437 0.7302269792566068 1.3184825270430134
P 7.987504687367683 6.161978822030416 2.7644036070253364 -5.151300571563573 1.8794460718826858 -1.0976723308970386
P 1.0700221570290513 -0.11545639126000846 2.6465207735820107 -3.156984038192537 1.6370170119153549 -0.20046531394103542
P 2.0486524308082776 3.045255999479161 10.505153999453999 0.1151874785081371 1.2752586833573714 0.004735972023088618
P 5.517119361347275 3.8791619298371685 4.1436450752776475 -1.8000529773653389 0.6682315113904169 -0.24894603515024222
P 1.446324399101755 4.3460507151144725 4.976179085182144 1.0825737846927033 -3.5855969624812247 -0.754492536672191
