# total energy = -340860.7950893487 ev
CRYSTAL
PRIMVEC
9.43988249689837 0.00000000000000 0.00000000000000

0.00000000000000 9.43988249689837 0.00000000000000

0.00000000000000 0.00000000000000 13.81622223215895

PRIMCOORD
 96 1
Ni 1.5327915103045155 6.803134649920913 8.14047716528627 0.28942599754215964 -1.4921021815461142 0.22424673263134928
Ni 3.1385061143130875 0.9789630333435759 11.37402590639951 -0.9720834545499195 1.0241040705915847 -0.7877189028254885
Ni 6.8691005500897075 8.260539257141856 8.135738344180842 -0.23411539789531294 -0.3197063936932558 1.0681385831039798
Ni 0.019081778849628313 4.1177901036677875 3.6601379834168846 2.010915318269982 0.8197468777953109 0.25330148390546053
Ni 6.227924838689464 5.746632420242694 3.1533597697102826 -0.3515405074847171 0.9163774192368669 -0.14051901529439026
Ni 2.7755709449098718 7.440204012355298 6.050483363950934 -0.37976427821710085 0.7273743402991601 -0.3115572822235602
Ni 1.7808716271385079 1.332694317133658 3.8378286710581695 -0.812455229229904 1.2889652343101867 0.3327490858098269
Ni 8.218125864260003 4.011279907387806 10.80664836582777 -1.784598076262849 0.18367472474625787 1.1851584868351652
Ni 9.220537566181038 2.018624512320431 9.82065356387576 -0.27214612741578936 -0.7562380586083879 -1.3033598124689618
Ni 5.5870228838869425 4.514897648373098 10.50962717723861 -1.064282185472367 -0.8595357276574745 0.6532394088569589
Ni 3.055359627666443 9.430820392763763 2.302058877768071 1.5747767750282105 -0.9868973796343004 -0.07241126388287529
Ni 7.752003337280213 7.05296114505073 1.492359548797222 -0.8056914281435092 -0.7603821626837485 2.345617671151438
Ni 7.497268103156725 3.246026378039844 8.432468784383454 0.13374801511914386 1.038739304006256 0.3476869380665818
Ni 2.406141136222722 0.6120753850621872 6.065404986503426 -0.654249595289028 -0.3991313698898029 -0.4245133002980173
Ni 2.877814314218432 5.038065386388953 9.914824889504537 -1.2364049437149673 -0.04923559709736037 -1.293347165427966
Ni 0.6853534183550163 6.3345955129750084 5.406951457833728 -0.8146841185604228 0.47811848721798306 0.8034543112828743
Ni 6.791174318565179 5.590364602355712 9.018691162749551 -0.12591026424227994 1.0443131985496077 -0.5724990562830979
Ni 0.6247408756541266 9.235669698117297 2.245827384619033 2.0396265701617455 -1.5062262796523218 1.374465470166536
Ni 2.2486461335873216 5.15933955918067 13.593836974352085 -0.09198481513942867 -0.820726982320393 -0.31161101827963106
Ni 7.534989874346551 2.3754237579815576 0.2687666757392439 -1.6620760117665117 -1.0268410099067735 1.6347403000660363
Ni 7.633891525186343 5.609282127246706 13.149824540585712 1.3265524485353413 1.5645892929722474 0.20501230988176952
Ni 0.5327293951825662 1.1733868570236712 11.915248364029393 -0.8929713816081009 1.4893819544014735 2.2914080178782537
Ni 7.2925453674726 3.628813620719387 3.571783513495609 -2.5022991551383034 -2.45450157603905 0.7356646053324104
Ni 5.9937402291606325 8.470888162903343 0.7532780941799398 -0.2433456582443293 0.8886413867741793 -0.7234204978577349
P 4.786228196248267 0.876001288963057 12.772033827808766 -1.7665576738213706 0.6117664864241529 0.9640436149645785
P 3.0073861438859883 3.3202899350844794 4.868118234510185 -0.6643681717802687 -0.6216107262080842 0.4821258086051633
P 0.5590317402942311 5.0032322192992496 11.871326477895256 -0.5481375967195979 0.20978427734911612 -0.784948539169203
P 8.213953436115382 8.184699239689639 13.591418476409435 -2.2330835711057477 1.227238960944983 -2.1709135253349063
P 8.486143013314443 0.43552503524866265 8.242399578583706 0.5673583926224228 -0.3440848225376203 0.857815145421942
P 6.524761949566362 1.8568910023616487 2.400983184326295 -0.15849976814252703 -0.05955986184150387 -0.41240597551152197
P 2.035474702904475 1.4950791789973694 1.3084829060356433 -0.9249744168772586 1.2750403966989783 1.1203065233567868
P 7.816449416337506 2.22575441808799 11.864059656208086 -0.14078075359620917 -0.6590727277092843 -0.1349947430420514
Ni 4.556395372634979 6.422764017207485 4.784115550504453 -0.5622483250893672 0.07006873179262771 -1.0452552507479032
Ni 1.7297169028948474 0.4811583721127114 8.4596452626313 0.23224672011769032 0.8154402800001569 -0.15859464184917849
Ni 7.690200425373358 3.4634929553421534 5.847577805682736 -0.35494824761468546 -0.7370062069619694 1.317954422453685
Ni 4.39970276002739 4.926297175456135 8.250647204081341 1.4744333035114412 0.12987773353046017 -0.2640242696396033
Ni 6.814906183623044 7.620345293540347 11.495318014968317 -0.026608089505831593 -0.9479333396662771 1.0512153249860798
Ni 6.732363849467928 0.4317405862821958 12.65016116645513 2.504514674732383 -0.8797101457228205 0.048801337773419176
Ni 1.9798549141531094 5.8249834464878285 3.608147829556032 0.3457791795209077 -0.9448603571679082 0.9314528255127507
Ni 9.306761454581407 0.5035412779355836 0.37947761981188705 -1.2127497661898727 1.402235955411585 -1.5133173821711485
Ni 3.7458304064223618 2.4626577138287007 9.491703860097573 -0.41588236409589663 0.4615217592015664 -0.5328647297209275
Ni 8.033396800092408 0.15984647741102265 2.979523386167297 -1.6588341077904463 1.36706686370962 0.13539403536299907
Ni 0.26516630448503975 8.396690685037468 7.198983858264961 -0.3781516823143423 0.6525642371668052 0.11972393292590992
Ni 8.772426335354949 6.332603697729499 10.316310651796893 -0.27733075694052234 1.3461859064955528 0.88535191738963
Ni 2.238035705454848 7.008093382672041 1.6937585017896706 0.08856807614839585 2.100101487618351 -1.2635164552197786
Ni 2.5345896198513422 4.819447143399668 6.916636023313805 -1.0801075825403978 -0.361447482185784 -1.1180750629231067
Ni 5.911622689726124 6.520731119661944 6.761963545599765 -0.3315761485476483 0.2552814904499668 0.38926784683216187
Ni 2.940910490052466 7.839879205149606 9.866551217454852 -0.11414078241117762 -0.16201086661957903 -0.22536336273429575
Ni 3.9875291625645812 5.734917525836644 2.2492672778676748 1.252325728710282 0.1367127541744226 0.03313380643949132
Ni 7.744829026443309 8.09493539528422 5.981250320386543 -1.3617775902862224 -1.1831481412733558 -0.5603557360523447
Ni 7.411176373113878 -0.03239673336996112 10.250393839018034 0.6935728183686829 1.1401346138263073 -0.8422687130469108
Ni 4.305039616510979 3.9032404501136413 0.7379732123906342 0.514746679963978 1.4727960250183345 -0.5594885029560429
Ni 7.87470293235663 5.579065062787588 4.751536627398765 0.4864403768201171 1.1406344362808614 1.2428676686211755
Ni 4.494875657208528 1.7219289996837344 1.1508916165969054 0.6123257013617325 -1.2179449372375668 -0.29083393363327975
Ni -0.014715833110065094 8.976573238195586 4.871544911923075 2.4820992831516606 1.2832378449081059 -1.0672839484131682
Ni 2.4955745847343374 2.5235732767636225 13.353876100611279 0.417104666538772 0.38135116308824646 -1.1341277455105951
P 2.2486933330007224 7.2132220333114105 13.019274739072493 1.2181336562096052 0.9260396249169794 -0.8199340541054524
P 1.3411618918977408 3.0633457684138388 7.717507174002189 2.672661221936055 1.6281742168127444 2.1148048552667964
P 8.507873623244118 6.360413592105182 8.06334105194207 0.8310209080472333 2.4478743005305197 0.020115539802952456
P 5.203565409537111 2.9427229475270518 7.893028576603579 0.3121869453877591 0.22201244398419187 1.6045874306317398
P 1.1843843203460305 4.995151679725052 1.59785967763043 -0.7200888623813405 -0.03887996489464917 1.856207155959403
P 5.852755581332791 4.800482419095274 5.433146188282839 0.8628318819102431 0.4446085283859955 -0.9096287876591238
P 4.633717451667978 8.002386785488158 2.310348982737767 0.4198932850275026 -1.3711392340067805 0.6608586159651135
P 5.995222290741413 5.528202974907011 1.011502308942007 0.36080702038830764 -0.8642246484927116 -0.7294903582008985
Ni 6.223403134885679 8.382021107352536 3.990235576928977 -1.014381443987182 -1.2721533049591702 -0.8671225388657968
Ni 6.196669387135531 4.032925558373359 12.754293456287984 -1.0269839632425408 -1.450394774504999 -0.046663722605126086
Ni 5.6321266433326365 1.5872407536035442 10.723820003227447 0.42770892441717956 1.0594832214218268 0.8081010660262663
Ni -0.14137168301772712 4.673157281505589 7.240626012731847 0.10192290018874706 -0.7937537961656589 -2.3715269348180317
Ni 3.8028944972237877 5.843976490440264 11.773673723534044 -0.2888924936361928 1.092288697987622 -1.5048952195457244
Ni 4.620463856385067 6.591096005159683 -0.2590294367546829 0.8031082407973652 0.8553610274544946 2.678708199461083
Ni 4.474806466630557 0.9257154871097287 7.095735141450966 -1.7226288336489044 -0.4631531241574023 -0.3222646413387353
Ni 6.736281400780184 0.9302069832889379 5.212819326528448 1.573360097186342 0.8586317277859664 0.8744509542064103
Ni 4.650907478028508 3.758630887336627 3.585033332825449 1.5171766080162385 0.7586993756646869 -0.16237699170974618
Ni 4.9433550434591425 1.344909525321755 3.872839307942261 -0.9797360859991708 -0.517228051624935 -1.1421922676862846
Ni 9.85523751806271 2.918009334670454 1.660019417102594 -0.3254677216570653 -0.8707753051270357 -0.30969400376257633
Ni 2.1818778433907147 9.334240953063285 13.70881474539615 0.42616240586566606 -0.7204323617636883 -0.9502154508322345
Ni 0.41811505962168655 8.04109030447672 11.814072645451958 -0.3165729902705967 -0.2198948834205568 0.7454556232809033
Ni 9.261393378420669 3.4523444538969117 13.270924075547844 1.3739062552289565 0.8946572539509561 -1.5103349025040569
Ni 6.553827348338503 1.2504540592243072 7.788895342782456 1.2456074361498417 -0.6916977128331572 0.12206312258204785
Ni -0.0361037752984508 1.9838102249960867 6.842995498526058 -2.004532811782406 -2.1792176743252276 -1.3195834734166758
Ni 1.6283892022062598 3.188603571696573 10.917966294356747 0.3441028202597493 -0.13247094817893315 1.0920454716285646
Ni 4.701760126026404 -0.0036268029257085182 9.281199196271864 0.30621427274409196 -0.7866598654333549 0.11334811130655317
Ni 4.11722371070698 8.417061951861204 11.912457934709147 0.9251207126471358 -1.2659505185825681 0.7554626138949441
Ni 0.33245095626425003 7.079222898666871 0.4393160921330055 1.6462737546269324 -1.3090416933450875 -0.502595903534057
Ni 2.5912855552282434 3.4391946973234813 2.6384151134970937 -0.544538823624746 0.13170990164319252 -0.6492544560672818
Ni 0.4392301892006163 4.602367601287245 9.434228190411293 1.8573497542042787 -0.9876759096715377 -1.1514837202905395
Ni 5.142508248361986 2.8635412116060652 5.810370508098977 -0.5024233825119347 -0.4674121565440725 -0.7956988357071716
Ni 7.829731331268459 4.432496912458185 1.6802320938973028 0.870743680558152 0.9624947824202198 -2.3231256606965087
P 1.2823419829178089 9.486326902922967 10.476716914250849 1.294312871775345 -1.3471467277469251 -1.6823419611043995
P 5.280264456313221 7.184694707852038 9.99187793188115 0.03824875906855348 0.14834365354513163 0.6133456579858148
P 2.54341591015727 8.623568825371875 4.136217698647682 -1.6742198462178972 -0.169742688046198 1.8743432034384817
P 8.831227364569521 2.1799521073239667 4.449003491312672 0.5009527115036791 -1.4032818801775961 0.2765748526111043
P 8.429418758289502 7.4134136253090706 3.742468864199965 -0.3623468540716017 0.19545551943126985 0.009203777986455117
P 5.429074766882896 8.74556042924728 6.039195152242027 0.6597977788007668 -0.745205197832994 0.23164019688194298
P 3.71256425985756 3.7630204327828904 11.520118474745573 0.21414538253128926 -1.6335105414239932 0.4021076789093075
P 3.928784772646091 7.06669617435033 7.873368132945658 -1.2561366178159399 -0.31794415958651046 0.20225300196907747
