# total energy = -381169.3097720444 ev
CRYSTAL
PRIMVEC
9.25955466955335 0.00000000000000 0.00000000000000
0.00000000000000 9.25955466955335 0.00000000000000
0.00000000000000 0.00000000000000 13.55229422901919
PRIMCOORD
 96 1
Ni 4.016165063624058 1.422887951158591 3.5230817526104277 0.22770769459675624 0.8559004448977325 0.26515401236867236
Ni 4.829672477948469 6.154446190327904 12.644872535415152 1.5890188867695212 -0.34057192428835537 1.756471493229962
Ni 7.063530725516644 1.7881218162402253 7.393088453320796 0.41486780678845325 -0.18526340938961644 0.641484839424192
Ni 6.743853868248661 5.097718059694314 1.5783271654811466 -1.3958290234439767 -0.2606458400856737 -3.2886826269818203
Ni 4.3341474224306795 7.399717368339859 6.027070833582911 1.4513651088380681 0.5103655201771468 0.8813080863375595
Ni 4.7199189792461915 1.895754876977192 0.06296404419350482 -1.1686697451515227 1.0768440812977778 2.041331468667994
Ni 8.361359134494103 -0.12871706618243067 8.59933709108294 0.6021898984793114 0.19296900556399027 -0.503323782839017
Ni 2.2767948014770987 8.997110882355374 2.5796109360768145 -0.21247467969708572 -0.06574285072376419 -0.895455067261903
Ni 6.85560743070861 7.308010741228803 9.186951193309895 0.08700947341202434 -1.0959532913234027 0.6705753290322451
Ni 7.148866779177337 2.010990031904201 4.880519469210074 -0.3240865250388225 -0.1745028284390027 0.12633346782262758
Ni 6.484447450789428 7.659484908422005 11.544670796715488 -0.4237093163394831 -1.4897367666377312 -0.4509354990452879
Ni 5.763655955009344 -0.06495670030763034 12.982406443408465 -0.338257674332882 -0.06403563822467036 -0.1942134194940526
Ni 1.0663673267990394 3.094635687276466 -0.32186581593610264 0.5289322274357408 0.07983943802614636 -0.4166506097204889
Ni 3.0845705516070683 4.544487460945901 13.428181764865037 0.044098790091427274 -0.03259284633435677 -1.814483808078688
Ni 9.141300663996464 5.29585400546596 1.8300611161366416 0.516022204242292 0.7812608059049707 -0.17087114522368638
Ni 8.993620030333881 3.599299923020286 10.947746212505479 -0.317383401987034 -0.5427058841810652 0.32707260425033996
Ni 5.620901404305471 7.228998963246307 1.3845839523328332 -0.7452249953273359 -1.494543186887439 -0.7827469035321939
Ni 4.476040834572221 4.1089828372671535 1.5956879040888325 2.5354586726094075 -1.6883118055345891 -0.6235992173930228
Ni 0.17242679288656448 6.5782837754202275 7.8855652635190205 0.596586693359921 1.1737181062087079 1.5199978795151177
Ni 4.924240307379527 5.379032582943608 9.682897558554416 1.3506094894845448 -0.2854235612509859 -0.9811635624743166
Ni 2.748393168338287 2.284702460963452 1.5071369331287707 -0.5014589617161364 -0.290608447886035 0.10469172118313583
Ni 7.7659512653003295 9.11857771741624 6.064122940649239 -1.544867646173604 0.03966389424852524 -0.9488879902700625
Ni 3.397524972356208 6.297858169396567 11.047775327141515 -2.5694162605017747 -0.6523562349210571 -0.5958744977842447
Ni 0.6492669935126526 8.906339470242118 5.502990238147133 0.006905983091213913 -1.7634142430963826 0.10148735531322522
P 8.700860697804572 9.349372111675438 13.177111724262437 0.1597506098304926 0.02389531856035885 0.8727864220197937
Ni 2.827608656518324 6.423288093755046 7.652546724284857 -0.3153627720125794 0.0041199357056445176 0.8815189167967851
P 8.932145848448753 2.5648873185718375 8.718258474629993 -0.38929278653282634 0.28753675093924674 -0.7335899821915689
Ni 0.4828376140327754 1.2785037188743928 1.342281677902617 0.13140882546300595 -0.3780077005373103 -0.3196038066771205
P 1.741990716051687 6.001348717321623 9.669534169595746 -0.2525910881019972 0.7922756689582355 -1.2095461716509104
P 5.343901833422268 1.831938027820346 11.695806170137274 0.6775077944860203 -0.32493910284710487 -2.9298957223473345
P 8.571328790831979 5.56090875112973 5.2450357188230985 -0.13753165053129215 0.19290961308096455 0.00680442451634312
Ni 1.3178012678908833 5.05399444365853 11.593337162907963 2.2454477490980556 -1.231901399417659 0.4128836864788889
Ni 6.09555542412977 4.185244527582851 7.705590081858129 0.17232973204708385 -2.32899446077246 1.220086666170918
Ni 4.938472242544077 2.883619701287587 5.491538947179014 1.632506011418879 0.3870009051748561 -0.7766392479725592
Ni 5.036938344391712 0.12221500705910841 1.7020190714724255 -1.260709324788287 1.8982567768312852 0.002451803974602229
Ni 3.2934012827496018 6.5875248107450295 1.2687071102835712 0.2820104218043788 1.5686806894328016 -0.05620122978191611
Ni 1.4616391864634952 7.849602080054094 12.281278537423722 -0.21456112991246917 -0.9792714876579265 -0.11089039379468
Ni 2.8682766195909974 8.982823389864222 0.2597990225672204 2.017377528955558 -0.5481226843212624 0.7658989787369197
Ni 6.155936978591725 9.117096188706855 3.7927857205553437 0.6414326460300179 -0.2904115013838805 -0.8353514171017871
Ni 3.5185288296953927 3.9252269795309958 7.858013459301639 0.5609303776088921 0.6319324198490666 0.2945329797514218
Ni 1.3427650266440547 8.315320629849902 9.81808149755332 0.5727559094889103 -0.015410163907483137 -1.1301307085360603
Ni 4.426391103698888 7.837546140181457 9.53681697589797 -0.040121550611234125 0.6996059119366402 0.04431990496329786
Ni 8.488455778650643 8.719639074196053 11.113802431941679 -0.10721988692162825 0.40474408809089 0.31807271474457477
Ni 2.995901058350255 0.8817744053420774 10.262271583290849 0.43036590242405237 -0.5602024983039321 0.4034760200117439
Ni 7.59844592559526 1.7029339154504717 11.829566915619724 -0.03684493674249138 -0.15426593256683754 -0.18964405495581532
Ni 7.311733082111138 2.029935080275487 0.5015650628748707 -0.7618425492793589 -0.7626133660071124 0.5508925337569158
Ni 1.1876952685434023 4.956009838641446 3.9233889579759125 -1.468028685536678 2.737861055672156 1.7427780549032694
Ni 7.981995189346692 4.909434279840091 9.416676109032004 -1.0634211230236525 1.2425398529681115 -0.9542222579987824
Ni 7.294288081558105 8.85268961185344 1.3871451450891858 1.70042607229962 1.1097236056346178 -0.9186744428011597
Ni 4.127946404747307 3.868169605110728 11.29804626819649 -2.0804806280636297 -0.2067663164583987 0.5059133979430642
Ni 8.003458836523935 2.465986017665821 2.610009127327106 0.5077792475072095 0.6376847489518114 -0.38234849400450927
Ni 1.1376566363838558 6.637785672210985 5.777560101946941 0.15334239231130367 -0.2906470144334543 -0.1714632702817305
Ni 5.023160127394412 0.46477314928813085 5.577582430798439 0.09888154225926196 0.10184936663833427 1.0173197006798995
Ni 0.19994711461887169 7.44300578531726 3.594244206299503 1.0452069140084708 -0.28923984967328253 0.4189219222531689
Ni 8.077322302241312 6.4590207143145735 13.00356174742307 0.10240652469338492 0.20223166181283883 0.5142260315738176
Ni 5.975320109808581 3.73602650378784 12.541279418277595 1.4753337038385235 0.9525510409439466 0.8366022587897528
P 6.612229301974058 5.505656989824029 11.221231782481103 0.6468823562906795 -0.27678465462906526 0.14468368819504115
Ni 7.455135801625367 7.018927451809661 2.671306451722551 0.830452694248589 -0.4248938235658876 0.1845057052879855
P 5.269084633598223 6.004858088451983 7.575813722648487 -0.3395329415008798 3.011312275052614 0.3731961380812799
Ni 6.598515901857795 7.007028924362397 4.752233898264252 -0.15339407148484552 0.11476273226589268 0.19684494357962873
P 1.492880923122694 8.917413897344785 7.468641787722317 -1.2828611782949777 -0.1744282664473254 0.8096432137024057
P 4.28483103551696 7.841509229479068 3.0847325938096577 -0.37263358070959046 -0.16917370291660544 0.030002202789045102
P 5.857973776470695 2.450291072900752 2.6759408587166016 -0.7620351249061392 -0.13652069276827455 -0.399559458566157
Ni 0.21603466449192793 1.635487320955628 6.609630145044528 0.17470671691969264 0.3639386240387539 0.8292645874777589
Ni 7.457663659985759 6.942749097483868 6.935237746927276 -1.0048449652516565 -0.6725856745940545 -0.2620344929030842
Ni 6.50895749137535 4.76855015913182 5.551764941126483 1.029473305323298 -0.16542760561061187 -1.2566130432317264
Ni 8.258661416270282 4.073398369578564 -0.20720382742853793 -0.7213893263603188 0.47809046219352497 -0.1313023817921287
Ni 1.5999676701480743 0.9528637085511267 12.588400364835092 -1.10536481444529 0.5975842813864998 -1.0922593874115833
Ni 4.288182994221947 5.019335931413306 5.9190590570696076 -0.6635693300280572 1.1758143266161039 0.12303062870163972
Ni 9.203923030631367 6.597497350870091 10.828242402984547 -1.7086248060603282 -0.16365637264280203 -1.3289705710585307
Ni 2.0513431701261298 4.044517819299951 6.153242448251527 -1.6680430279832241 0.39802013910349515 -0.408328977228671
Ni 8.293449562277576 3.78799112326959 6.828566753895967 0.740878288322866 0.7414824975657682 0.2238016746741307
Ni 4.957991383290251 5.251593335273023 3.4142292085545467 1.878440513436307 1.9739996761905552 0.630049858114373
Ni 3.28350281906001 4.047054937214777 4.135279045903331 -0.682713764166992 -2.407019728408003 -0.6825988358556825
Ni 0.6139130887294616 7.8540929639544235 1.211321947636352 -0.5079846786497961 -0.06291746545982713 -0.5985381606593368
Ni 0.9508636447934542 4.4733833424497575 8.31113438529044 0.5659394007877092 -1.181956949178732 0.36072320242524974
Ni 9.216738253967565 3.163258245184386 4.68418821059755 -0.8929209879861396 -0.05272895496259951 1.0972100465486394
Ni 4.608193195449543 2.690002418079571 9.394951342419729 -0.8034782225422742 -1.6873525269451133 -0.12203689732980272
Ni 3.033226322272374 1.8729763730703668 5.907824439675238 -1.2063505475317482 -0.4942534451066327 0.6443775875909548
Ni 2.9179819077909324 8.851235861807353 4.722066269919359 0.6274381315231387 -0.09816677558042448 1.389613124441252
Ni 1.3603026227414234 1.3413853530334379 4.378190493094426 0.9837004699635574 1.552903886214519 -1.9823135953728894
Ni 6.776577133617247 2.8927588815136183 9.799744801908327 1.3708204172147809 -0.36444590269247557 0.3591805405284782
Ni 7.675559494918854 4.538366895465246 3.3640720540982496 -0.2528610539339322 0.624257419802312 3.6045652760536115
Ni 5.810101880048627 8.836040932981705 7.692946160278955 0.9793576196138294 0.030968166246740217 -0.014322330159943076
Ni 6.336785336235711 0.2546960821188255 10.105471214466546 -0.5552986332444114 1.1888732166825913 0.026278216970238615
Ni 0.29461216937148516 1.4142210082086772 10.454889760575472 1.024136723601733 -0.6318159488758602 -0.9588052493837745
Ni 3.545575988196139 9.376595201710424 7.694748069571746 -0.22841809040021951 -0.004718231411275745 0.4019099610762046
Ni 3.046884165062036 6.509587141076839 4.368988347898245 -0.12345023273756159 -0.5500859786952204 -1.3930236927846977
P 1.0967757035592078 3.162647114591764 2.9056796637703597 0.37837331140684516 -2.222877062886391 -1.6223545248071738
Ni 8.605172462287038 9.771978176028083 3.410692058760885 -0.047616573436698645 -1.9910437761570356 0.7163471359507211
P 2.016203161050356 2.698363795733174 11.099802911593414 0.049286504939953825 0.41265640095943124 0.8515331690679722
Ni 2.419530833072104 4.704307370471025 2.0399455845737267 -1.8513997072684307 -0.2034061417369142 0.016487970352694187
P 3.721146399812934 8.259087355774232 11.670869264091959 0.1173700879817527 1.395630020059293 0.7994120228927007
P 4.953667171369728 1.8709670497582602 7.378343538840622 -0.9114658408678624 -0.259538723064424 0.6623891936770269
P 1.0021245381382449 5.32187335342457 0.10241715372448104 0.38060760005400257 1.0625641743399958 0.32772180779856463
Ni 2.058074866199407 2.159318834377142 8.254160346860075 -0.8201978492898003 -0.5258188786177396 0.5899848717726872
