# total energy = -340891.0899631503 ev
CRYSTAL
PRIMVEC
9.08004576314469 0.00000000000000 0.00000000000000
0.00000000000000 9.08004576314469 0.00000000000000
0.00000000000000 0.00000000000000 13.28956479945133
PRIMCOORD
 96 1
Ni 6.4192746374607035 1.9216827505221734 11.624116746230014 1.1776755481945589 0.7111985018702461 -1.1223212397939704
Ni 4.3877142517120165 0.27581274971903147 6.192552247801884 0.6722982252606228 -0.49757248217753663 0.08955949352738768
Ni 3.0069843146973847 1.6957984490983267 4.804602766305919 -0.7017481550906237 0.3795105103350819 0.4209065567833654
Ni 2.983984558476514 4.499952698868031 4.96075503936442 1.0201664261000751 0.43427500767047145 -0.4119511473622906
Ni 5.06190765850225 4.715467587893838 2.6863924107032457 -0.15609295847324728 -0.813348944688767 -0.7464982056128047
Ni 7.3912572290198595 6.190820683052054 2.8193279144442793 -0.11593001310111647 -0.6615944656898735 -0.5880627150493098
Ni 5.049023073394704 4.687410246116306 11.341009087648823 -0.04965828645707577 -0.38898451126378814 0.4863236487365948
Ni 5.799534265829003 7.9417077705207015 12.174344826606728 -0.074306166912743 -0.03775047927589628 1.7544783740593333
Ni 1.9374457101745353 6.770627012891654 0.36284589750926804 1.12797560986627 -0.13077067765837477 -1.0645873754176118
Ni 2.7985791015977286 1.7564985558241544 0.41737974507615644 -0.09814363565197291 -0.16088780875872938 0.6963025585950201
Ni 0.3548472850912005 -0.025150819090481714 4.987653767287322 -0.29826724998287346 1.2474280342983486 -0.9522923879659213
Ni 8.778906160997106 2.50810843381026 1.4591542933034842 0.41452559295768615 0.05413946215688095 0.571113488789481
Ni 6.98041239296548 0.36880331561290536 5.050274303717339 -1.3283185392968284 0.7369023343942535 -1.3939464617092832
Ni 0.6350293528889857 7.23587040382927 2.1821865428829783 -0.6308918943996941 1.3638905228641671 1.3134087120645317
Ni 7.7598616916279335 3.8688350297453113 3.905657339813412 -0.8013215812105877 -0.1771423229443788 -0.34634533643702287
Ni 7.7387505849506635 3.8796675244833687 12.866783677593654 -0.22974837917586885 -0.03154306491360374 -1.3571966557837594
Ni 7.7811997994522715 8.515902632004796 6.962895168448582 0.6080792673805527 -0.7040158680788778 1.2531194282561708
Ni 7.12856242158756 0.5783843946543703 0.44865959513745846 -0.7872486480572893 0.13951679928212102 -0.4600186922934787
Ni 1.7040794509433461 6.552424430284568 9.373355880831733 0.21628042659642105 -0.29967312919146455 -0.1823963722544665
Ni 9.392217860143859 5.0889480351409215 1.1465700817732958 -0.6208278252954728 -0.7588646975979576 -0.04214243769600484
Ni 6.055873041143414 2.050637562148233 6.822424134629498 0.30611785637554373 0.2502554979902851 0.09269855337700164
Ni 3.6332623193646274 4.584587806540648 0.2156774218471075 -0.2935639309699331 -0.18450287707450805 0.593475658534765
Ni 5.84393569019539 5.4566898933901395 4.778103560401857 0.6339044559737729 1.4150541902221758 0.9511862993859361
Ni 5.305180247791461 2.9677040362088385 9.165055088259727 -0.14544422051014952 0.2061042573943676 0.8330309964987266
P 0.3265438740702465 5.8398315094564115 12.268248845116403 -0.6791311890220562 -1.149859297313239 0.19294843673869996
P 4.002983627616273 6.585947959683486 12.658244079814933 0.31416849459416213 -2.114693783610229 -0.20563785928091033
P 2.5569954008426996 8.586572629109824 1.6807845932312877 -1.1576975624107353 0.489485334294028 -1.9299052569745023
P 6.140426428403087 7.462971431401399 5.775710949446572 -0.3165858457864032 0.8322239272163989 -0.3790140303146376
P 4.812324437324565 0.9819161617548259 12.71366141584621 -0.033828518513670774 0.17181705407672346 -0.6678553589979208
P 4.1273348559798055 6.181531796114055 8.154171764129924 -1.1499161186931035 0.9847080852924655 -0.6296312825197156
P 4.96382500287736 1.0933464848272805 4.008664104320489 0.6402193424482071 -0.16042886684443983 -0.33451517657131424
P 0.2832856274804909 5.502453324638931 3.6142568753275546 -0.7285981854039323 0.24271599508013034 0.043221015472164274
Ni 1.5943016962215424 1.0339720648003263 2.937139693763093 -0.8655991602427351 0.4085351797022061 -0.785736325177821
Ni 1.5647098266898338 6.872123765768439 4.765969895088809 0.7408253235977434 -1.5406608071811079 -1.6847132895500534
Ni 5.883134248270992 5.468157991339985 9.100042867744207 0.5916028669920844 0.2318767383727813 1.4337288838135438
Ni 8.87979455079975 2.3640081056518625 10.1487091707965 -1.1761058897145937 -1.2887934846190126 0.8084867315004592
Ni 2.323883382896226 5.0439836479298075 7.319572990789734 -0.9167031780074018 1.1451608633963053 -1.0061022346975252
Ni 0.6814601675101555 -0.35052155123268375 9.018671128561833 -0.5348012846220079 0.98654076762583 0.2949171025637179
Ni 1.5402300229900834 1.0308666891084441 11.506145158103664 -0.3918566906052607 1.3979517262139343 -0.3885129709440083
Ni 4.147828519537052 6.910632240356955 1.6655682523410644 0.07595707225260466 1.057461820116424 -0.7224591623857299
Ni 5.681838711097488 7.94443178428551 8.021967204082447 -0.9507831504102463 0.12208292007638975 0.5536677825092078
Ni 5.190335827467113 3.1887395931313254 4.63756624224783 0.21855508156321068 -0.6876615950905706 0.5509213301123221
Ni 0.9010783292703534 7.438391747196938 6.887795924961973 0.03242983839393125 0.5138629918074441 0.638407486050449
Ni 4.783695052656422 4.506081729838852 6.921683564200786 1.1544610577513086 0.28689577492113816 -0.4921453976246944
Ni 8.183917994441638 6.933486715843704 9.437145927171443 0.2134298445215034 0.6359119733221048 -0.33580946990270555
Ni 4.628780389851733 0.30780810739589004 10.668569945723126 0.7312703329194568 0.23019832222909384 -1.7557446423662666
Ni 8.251173894294773 7.080247497445731 4.99102882034192 -1.1498307580681486 -0.9340653234349332 -0.354027535572629
Ni 6.981129716590213 6.018790133758481 7.141838356672651 1.5181698251674434 -0.480733813353643 -0.416287055733483
Ni 2.2950360771268983 5.451223705768756 2.6060839448937343 0.2497775299126021 -0.11363478930903656 0.4564456302302397
Ni 2.3697830148332577 5.12072819573036 11.395204249504287 -0.792208563165726 0.42403507511001814 0.5820291072607202
Ni 1.1130138642092016 3.377740748179658 3.9204750666893844 0.05419679775737763 -0.3480147537196458 -0.5509236441051673
Ni 3.9148345421870534 2.509179879224418 2.5693778594129326 -0.6636971138551732 0.2903973603164934 -0.13302167847608057
Ni 1.347415248671018 3.142667440322522 8.405955080424986 -0.9797448277499192 -0.3240042497376614 -0.9304459815147912
Ni 3.547628406644914 2.6570121062406042 7.386087958898841 0.29566092270827793 -1.06514401925203 -0.08395988795242315
Ni 3.7595929977305866 6.827440859979688 5.9394387047850055 0.5381455185038925 0.22461157216993577 0.247508017152135
Ni 0.8377250331376016 7.779002428348658 11.526133063105245 0.47117496602061437 -0.8106909382406297 -0.3434122219506279
P 0.17677124124892848 5.790989942653385 7.942003780016478 -0.016998077219893305 -1.3302216698568123 0.18592186890922174
P 8.586935830945132 1.132608603224061 7.883649049142151 0.48559576943163474 1.8543323075341933 0.18195697072420275
P 1.7828670090675056 3.1023157164198176 10.466901218663843 0.9540571931758279 0.5730477296977163 0.6953473937706025
P 4.000504775090297 6.318694969218072 3.7330256914824047 -0.15246693168488581 -1.0860756271983747 1.3423189673409786
P 7.102048687610085 3.7795146183972235 10.343414410668345 -1.0753996355417672 0.7051525527864824 0.9583524781170721
P 6.359845737158454 7.632141766241921 10.16718161614026 -0.23342248559334638 0.37227182649479756 -0.11975504327416149
P 2.3394011813097544 8.625880147736018 5.6104822625237265 1.4574784208246576 0.6437427822204332 0.4531224793942777
P 6.799138356963322 4.018574066396864 1.4613734565172152 1.0337590771828453 -1.1435703789807339 2.0710724473758524
Ni 5.316403184502475 2.769532034818982 0.3543805707328299 -0.21384687745426395 1.3812007320078408 0.6160232048179778
Ni 1.5159136601162213 0.9958358720930001 6.92272050544059 0.11176945396552364 0.8570546131068336 0.9670669751719345
Ni 6.863524962317524 1.0402736166429178 9.123206972795556 -0.05640691803481898 -0.6819167221869933 0.6196949972426102
Ni 2.846040501426585 1.352981316797111 9.390074061310953 -0.08887532297616953 1.4336774617503178 -0.517540183548715
Ni 6.438270093447306 1.867656477520128 2.4133717750931436 0.6144846566862643 1.1954485559072636 1.434179083977085
Ni 3.8738381350266775 6.840043963664871 10.434155849197074 1.2743382284256313 0.23296097257589554 -0.11255544020192874
Ni 8.242947372725048 7.523807738815467 0.0963737909897667 0.0256341556283365 -1.0249481637594349 -0.23957642100988416
Ni 7.672502570190509 3.440492945274975 8.262454943299435 0.5290551261668501 -0.14562908282744597 -0.8556952708654617
Ni 3.2210009961525468 8.59575255549723 12.436720016423958 -0.44277893137642454 -0.42059776729369497 1.024076816898075
Ni 0.08665723389069292 4.764054913412148 9.905935076026251 -0.04001022184435045 0.1066429313722357 1.1035652993427059
Ni 8.56362735316425 2.275259737194385 5.811885852243235 0.08797080888402914 0.3035254130580192 1.0952076714066297
Ni 3.5865000830687386 2.752170987091266 11.586134914302693 0.47488146833792405 -0.19991175543041054 -0.15825499912157262
Ni 1.0491175813326645 3.3772867458855234 12.584673008050384 0.3105404109232716 -0.08172251398147215 0.4207144953772174
Ni 3.038265072763275 8.312518684278272 8.196525638149762 1.2396869569003488 -0.8554355894461719 -1.4004516098176527
Ni 5.652437522529315 7.983330700846984 3.474158123389662 0.9352979102904537 -0.07144324354265115 0.5429118295442844
Ni 3.3540690685634678 8.427154263547317 3.6051668413943867 -0.2639080557767132 0.42648996440841386 1.3708525560042972
Ni 3.3948929548520725 4.5266661938549255 9.3102177817864 0.3710114717251352 -0.9542291999773178 0.8059847910142118
Ni 7.074427188034922 5.9319848951199 11.472602560608394 1.3851484038016788 -0.38817589931956376 0.020346681977152052
Ni 0.81989454703775 9.257379178785811 0.3007165915615039 0.17222920191347757 -0.6750382498996051 1.4533530858023744
Ni 4.814539968519942 0.3818994657895189 1.4440841411519723 -0.7865403091363551 -1.2166498725752273 0.8454800208953568
Ni 5.962820730937539 5.729300110926344 0.6247752570736562 0.08547066816999474 0.7861477016836267 -2.2807579943635754
Ni 8.112557913849525 9.132165346063424 11.057662623860917 -0.7904136760488323 0.0022036925195381405 0.2528134885254485
Ni 9.142516598369697 4.815420732970564 5.932847499478757 0.3816594383572846 0.005574408763983948 0.30255353606305313
Ni 7.89685234386018 8.910094663910309 2.672319247589654 0.8695571164492185 -0.34655616689624835 0.5152976673714416
P 8.526135843714595 1.7059590204410642 3.694777814210721 0.1985508705271419 -0.23125350296648559 -0.7757272776812512
P 2.0664550020758905 3.6225932654524584 1.5727801714703746 -0.3353070763449903 -1.7306409053201035 -0.6795451366310232
P 4.819924435728383 0.9378597791319814 8.429796556899182 -0.7051237564310759 0.29336209937177216 -1.164413026757698
P 8.617553745661587 1.6502892591342506 12.63182477831464 0.02973172273647783 0.4798501251971091 -1.0458093234791601
P 6.511936505693624 7.663422524307812 1.407870194158013 -0.3891673166985556 0.7506690491610427 0.025467033922852916
P 1.8060211260683823 3.1223826178205774 6.215396735238161 -0.5945727482536857 0.22114366822599332 -1.3602413561473543
P 7.020364594849346 4.054703568964114 6.246866358258411 -1.1320574932451277 -1.0016837939148557 -1.5554518494473535
P 2.514646066845802 8.556653877926339 10.268793685599755 -0.909081656906402 -0.7885102883785324 0.9018265180058854
