# total energy = -340856.6718136589 ev
CRYSTAL
PRIMVEC
9.33589593249626 0.00000000000000 0.00000000000000

0.00000000000000 9.33589593249626 0.00000000000000

0.00000000000000 0.00000000000000 13.66402738403528

PRIMCOORD
 96 1
Ni 5.626277516157164 5.72512597934653 4.376383137990933 -0.3680793856800048 -1.7101810948038545 0.7279145290733464
Ni 0.11450849456014947 0.9763292957515705 0.13900308398874245 -0.7463436823128115 -0.16778145055476912 -0.22228292403675914
Ni 1.5052731358460139 6.84796348560346 12.451727489389908 -0.7673033152836141 -1.506785751700218 0.2791523835302934
Ni 7.246876971022657 6.413218832662466 2.8075614940146107 0.6755987503887654 0.46305542223727353 0.12072486338659855
Ni 2.4812103239800973 4.894203258413094 0.6690560284869354 0.35231672352910937 0.16274928744750036 1.3579381619354742
Ni 2.2760166733908362 8.90010538120047 6.436454009767272 0.5699716618755539 0.1784949803175313 -1.0069216452750271
Ni 3.9633024309161 0.40929873574521314 4.645823621705456 1.9921773755408465 3.187327426371085 1.79735254771504
Ni 6.20963095612577 2.955632533452525 3.0230563718689973 1.2495404526556608 0.3971968718712514 1.9530870944076044
Ni 2.1199298339440067 3.6189199120145727 3.3170110503929875 0.5883864169373156 2.4085847589022777 0.07134914116694809
Ni 7.9328972555033035 3.544158059613699 10.25064351529042 -1.5851421774229346 0.6298130595132185 -0.43418373350824574
Ni 5.2249833773460805 1.2984083599346055 1.3276063735939128 -0.49844331481826415 -4.588288885945621 0.6998427105377947
Ni 6.0500898352867925 7.953538920795302 4.3770935996502365 -0.6982002898383654 1.2049953190554346 0.4280141143624242
Ni 5.769200742731212 0.103823561983626 12.478180749726805 1.9041741707569848 2.3649654795504302 -0.8169065801330382
Ni 4.094499772548153 9.182917668260869 10.658487718492669 -0.21986968660957618 -0.6097047187991177 1.6164564141551838
Ni 5.572540100770123 3.207010859844374 0.8769710926594702 0.19232777243556556 3.296616537116916 -2.734034997057846
Ni 4.036029058064303 2.5338180959929497 10.410882027534784 1.5011599208730082 0.1730470698290826 -0.9102358251155034
Ni 5.525113750845492 5.4762403370944215 0.8531281487475582 -1.7237837731889536 0.7226139427960393 -0.27814014021569516
Ni 8.06745551957096 3.329180390378569 7.81268079434002 2.1151005321303447 -1.22641697926432 0.30857017457077823
Ni 0.8381318995578074 9.113477276383035 8.231660853878902 2.409864911166282 -1.5574387979703952 0.19113555189967726
Ni 3.2831637606977617 3.496348937967236 8.277052912140427 0.6684863077137003 1.1494342939606788 -0.5125967235005108
Ni 2.8137642630874304 1.8305544122385269 2.154557604515945 3.1402854944909335 0.16298197228359673 0.5699585492494313
Ni 4.751168001091192 2.451970298790345 12.519897265869169 0.11356922617842377 -0.4642597269580198 0.6377415703316759
Ni 5.4645424598393895 7.250751367719257 12.703486720324456 1.0784368797061943 -0.7541703774460818 0.9464313011994538
Ni 7.342663260437364 4.396656035404582 1.576049494392001 0.6273851667980164 1.2756430632799836 -0.6075393357166827
P 2.726380279761734 8.283777557780331 4.25805252774985 -1.5757357965073702 -3.857838220713982 0.8979310396062212
P 0.9097148794883393 4.884652637158586 4.668205497947445 0.3238587252987326 -0.7788190292326974 -0.8368778810486426
P 7.170005206203878 0.4644720118839099 0.4349108318836444 1.4459459947050257 -0.22106833490336766 0.2831951861410994
P 0.08255452450364716 0.9118275926749425 10.871988449035264 1.440221947737055 0.0807730055840093 0.4211307569790295
P 0.8231356503680567 1.8364546982921424 2.3124864161753984 -1.8243797270361615 -0.059189108765646446 1.169401995331857
P 6.028439893264112 0.9448953350830211 8.710831299881185 -0.6498460669046937 0.46232317205693924 -1.0279370711844296
P 2.3578831423847495 3.386064002601162 12.927768543168817 1.888593799820225 -0.686636753370482 -3.1806561849984964
P 3.161003566059221 8.021485569368425 8.482929016702029 0.10933153394799236 0.8735040169121087 0.3038144050533477
Ni 6.703481164455119 3.881165220948207 6.197373858721036 -1.8035370792591972 2.2203990336595436 -1.8494384697770019
Ni 8.2561526425388 6.600580922551718 5.224686495864269 -0.7419782062552641 -1.3883424852589443 -1.6579308792498868
Ni 2.5059317756730937 6.054505713931349 7.924752620134357 -1.8535666330127625 0.3672936565539158 3.3571212793701926
Ni 8.440209825366374 7.971211771269186 6.896712731942326 0.7408420357682919 -1.2101339258335804 2.9719296594899336
Ni 2.5515936413190317 0.42629846814240985 0.5602760395003592 0.8617314497572127 0.33197852619238954 -0.42368026287376065
Ni 4.179773843455942 4.866064868910567 12.51253217778737 0.6301313620845856 -0.6489248406420051 0.8702464292067593
Ni -0.11502383600027537 4.150300420874829 2.832006603196235 1.1035457589586801 0.34346467245511814 0.4897421874998404
Ni 3.080136037900334 6.015500341887038 4.130799602031804 -0.3392727458609576 -0.3000096865952769 0.13640396468475216
Ni 1.637973556678434 1.9341735181073203 7.982319619918856 -1.29696239358305 -0.09765435472038021 -0.36756542215806376
Ni 0.09354567445763674 8.750077538033382 4.748932987671515 1.3010103384001788 -0.8863839581985703 0.022999031998334585
Ni 1.3846346921991495 6.246685125978301 6.0597496865204565 -0.9929554129029221 2.2546091038823493 -0.5954824045521486
Ni 7.48356993355005 7.18562415963378 0.5502082096265952 -0.913296466318698 1.2564294664660105 -0.05620457221602578
Ni 6.806194688445429 5.273679409079716 12.550600225907976 0.4821456060995051 -1.2880566064529881 -0.7712615286004137
Ni 8.026732342726227 6.2023396216196405 10.404678324872402 0.2002611683500293 -1.549738344002344 0.8628889604004236
Ni 4.734867527278514 5.913701735670863 8.452348356896296 0.7738961380097833 -1.349832244998888 -0.8132144759934318
Ni 1.8018091895184607 -0.11611053425445392 12.111178289244098 -0.4923269175078812 0.6836218778035582 -0.7223177517118593
Ni 1.8520456440350819 7.659840979401809 10.399540781493755 0.991093677103835 -0.5575038684258463 -2.1707818848530485
Ni 8.951751555960914 8.277914615309333 9.883518754574641 -1.196867033521345 0.9271817089412224 0.835796989279638
Ni 1.6706025119907533 6.551950242087663 2.1596951478945914 0.9167186046263697 0.03562417696151284 1.6153451833688761
Ni 5.853606575343138 1.8335418988479524 6.446072783060058 -1.2445316865871598 -1.3227225332662897 -0.640085130863188
Ni 4.785430738143042 8.954057522187565 6.759224863818303 1.2513345684416062 2.1815666341733784 1.769016162664192
Ni 5.549564461564509 8.035059961650001 9.032290460592765 0.3672224369963482 1.1725626524480257 -0.2846925966222323
Ni 8.971356936835269 2.8360397101189596 12.208042874606894 2.5161113784310474 -0.23720740655707537 -0.1462381771663546
Ni 8.337608332123917 1.38616577908648 4.293196573351479 0.22791184018776234 1.2922994408897421 -2.4172558043137147
P 7.655527795609452 4.668890752688482 4.203641994286122 -2.752968086516923 1.09600728448979 -0.8803331240188
P 7.038854544050096 2.5200383140069746 12.299892216824116 -3.621148891443906 0.3418070822470371 0.23664973428139247
P 4.197418686242862 3.5731180079338176 2.4886837084514886 -0.8270624376201176 0.6657362557723889 -0.0183767027349748
P 0.2103013191018135 6.529282687438648 8.749691031953288 0.06924109368500977 0.08446125306887389 -0.8583170247590249
P 6.090374225035765 7.105811587683847 6.7720691890597005 3.1852098658074497 0.1738204576599974 0.7902645520654777
P 3.9246985023849295 8.73831430950877 13.070311798789728 -1.2009005801607706 1.2277117868163436 -1.4468751913875146
P 3.5415440088304515 5.043605596571333 6.4642871154818975 0.5995033527860837 -2.090864028180483 -1.5643296115529575
P 0.03565565268349364 0.9120003067445498 6.5528987690861555 0.23692304254743712 0.014393549717510697 -1.0639335438836968
Ni 5.742920196463922 3.243318158044549 8.191365261055145 -0.5432260183505935 0.4646657041471869 2.2674265673619916
Ni 3.6012003820624177 0.8689571598296861 8.733103012554453 0.5303620179037317 0.1778941135087388 -1.4562196087168922
Ni 8.696032038089744 3.372321564197805 5.368842060664705 1.9770788293365111 -1.104834910083749 0.6711563983466958
Ni 1.7463913129136173 1.7987190080568363 4.668341802024 -0.643962097320091 -0.9027472300479421 1.0704008967755951
Ni 7.283539033257702 9.053307428890074 2.4958574106723717 -0.30883088443133266 -0.038859138959042756 -0.11412304179936476
Ni 8.445830034550356 8.458172088605545 12.334230574630766 0.7767837439702235 0.5354317191171553 0.7471846901568681
Ni 7.321984251562746 5.489403949967203 8.140234427734827 -0.5195299602852342 1.084542735493616 -0.35467211113516334
Ni 3.0188925624071103 5.343017106105352 10.699875611107998 -0.5223558597698036 0.24346392898974842 -1.4190728244632658
Ni 0.7268032110575652 4.73364452494778 11.046956203853664 -1.959887405158889 2.9294254675791356 0.816512172908097
Ni 8.241569973526541 0.839046817331944 8.427001400194452 -1.5769323879186323 1.0897777586403103 -0.20430602784336427
Ni 0.8073038385172323 3.2256546434663202 0.5621833629825643 -1.0573348076202564 0.26758807573146176 1.3691833958319906
Ni 1.2752086592332852 3.8540817876546343 6.704090798441354 0.6417378359752626 0.9443949874957155 0.2615277284699947
Ni 1.9161459035985684 3.1113926165514485 10.49726613643589 0.7367421546673053 -2.9225516232774376 -0.07375492239496331
Ni 8.197784622907148 2.370748006596589 1.767756510118837 -1.1624085947331593 -2.7456347860803034 -0.5807700380426385
Ni 1.0293665189645278 8.180223803181118 0.6354075933691494 -1.740733513669415 -1.2387911845589568 -0.5519672548783332
Ni 5.115949451997703 6.398813545667641 10.731959350114098 0.8546951117357215 -0.5910804188297111 -0.6745769939924704
Ni 9.205837292092555 5.769042032505086 1.007780994621863 1.1593003881214807 -0.5624064479337861 0.9543220168014404
Ni 4.509583029240866 3.3156059980969923 4.713351088563693 -1.0107178790926659 0.3670697134685678 0.8239318624109359
Ni 4.1982589168517634 7.014077076983174 6.069725091027242 -2.238695003755254 -1.411075408080086 -1.8062529355284636
Ni 3.467276958899264 6.847197942159795 0.08581461926618275 -0.3992452697598479 -0.04264688813624913 1.7887313817049326
Ni 3.8680296157623895 8.9587441418061 2.4636373675897167 1.2107232226781472 -1.6712826179664444 -1.1587339740950495
Ni 7.360606851885226 0.13319615689167158 5.767735940703028 -2.0187204161366976 0.07366004868831184 0.6900907733573535
Ni 7.277171952421364 1.093746855397648 10.630517375111923 -0.6841227286993765 -0.5706730588179526 0.3097076306093311
Ni 1.5023510005061698 9.027316295388072 2.738858637893478 -0.6877251013386543 1.0803014437187588 0.09611812058151188
P 3.384934359226973 2.1063087621841574 6.391867639300727 0.2682053976004865 -0.6120719334797136 0.0525273804747547
P 9.067974120963221 7.6635006504983565 2.6591151515713873 0.12672556105472368 -0.15561293351303523 -0.410058558325268
P 8.888099419388842 5.741482468533136 12.675093460870563 0.09695681443272335 0.35259954487685086 -1.7078532180016264
P 5.927164097204586 1.03232599788699 3.8393861543049566 0.6862215202099343 -1.0442190961739048 0.7174221141824547
P 7.012545990095843 7.997370950892967 10.883015075392741 -3.017240467611591 0.21562299551808026 -0.1975424838672856
P 5.45519722828928 4.350247298106287 10.103687181793648 -0.32314730105400474 0.094138885367954 0.08503923705953097
P 5.39203055829124 7.275500827099216 1.8367870561774409 -0.02277920267804464 1.3775621068139887 1.22471748007471
P 0.49487715685133815 3.845240694469865 8.996668417133627 0.46499634801372824 -0.4327871102710353 -0.6590146207778391
