# total energy = -340889.521170679 ev
CRYSTAL
PRIMVEC
9.10612581526972 0.00000000000000 0.00000000000000
0.00000000000000 9.10612581526972 0.00000000000000
0.00000000000000 0.00000000000000 13.32773559194916
PRIMCOORD
 96 1
Ni 6.865900512947785 2.3305490016137576 11.427733548872691 -1.3460236698860755 -3.109830520435186 0.09557021849784186
Ni 4.7315794173238 0.5217464080547262 6.4269806938072165 -0.26702731813198527 -0.15038845188930228 -1.8523384170326163
Ni 2.882917489684374 1.5657163851588358 4.837301538468228 -0.06666793364119486 -1.0141042790663952 0.4719277850262389
Ni 3.7400224793999755 3.745467942659611 4.443426992080902 -0.8765237775750389 0.3295488337049744 0.8188084251414415
Ni 4.866195275797365 4.421734379075713 2.4437600006590623 0.5340083564070673 -0.3613292114403648 -0.18282137560702705
Ni 7.304232986970884 6.206489515484167 2.546210290784783 0.34475433780081916 -0.938631602649377 -0.27885542111516487
Ni 5.161780120960856 4.49360903042739 11.52133450589521 0.06061092881383755 -0.10309429478902891 0.24802815132166317
Ni 5.696491831003992 7.998757205720713 12.436843454989281 -0.8920465558009862 -0.0008402365131082303 -0.13913961844836037
Ni 1.5111706913039584 6.508439542618369 0.40683347408763926 1.0112264432979683 -0.38089787760091176 -0.6636163812159087
Ni 2.914980158810087 1.469063965363232 0.3179667918956951 -1.4402815973303968 0.3334774793354192 -0.5479990142592046
Ni 0.859777637653232 8.925360147940559 4.603013668866461 -0.934892447321919 0.0456908171688955 -0.044615838937161874
Ni 8.408815158972628 2.2700114769481115 1.2950896097311457 1.0698308832047383 0.42755208712434106 0.7854254788056214
Ni 7.519820516522506 0.47939199549081896 4.851895926371603 -2.080098819244179 -0.03650580823551778 0.7160267764968249
Ni 0.7243932221577395 7.225346618712988 2.4253947660402786 -0.3626846970269947 0.7053533559433788 1.0908491373276181
Ni 7.8286274564234395 3.8822146345825974 3.68293344459457 -0.1269325348592072 -0.5713063215265773 -0.02178727107842054
Ni 7.49239286545558 3.9483615327732196 12.728347845158387 1.122510215876325 1.628222039331544 2.0456534930821157
Ni 7.895776028457807 -0.2525265290712061 7.262696304508507 0.1796442634306261 0.3395203430953895 0.03779084559552846
Ni 6.9468357595224335 0.49946827115723763 0.5522856223253608 -0.6838388789103707 0.639415358489673 -2.2408207918490057
Ni 1.7313659205368106 6.548023871698027 9.434611130100851 1.3002618902699283 0.8410602945611063 -1.046151023089295
Ni 9.330318670715224 4.7303956209630105 1.5267986244915612 -1.5472942533372254 -0.3588452686762465 -0.4048844703234963
Ni 6.621501201199697 1.926983716094485 7.210464477232682 -0.5996370501504705 0.9901791357093657 -0.3581040196348477
Ni 3.1871986850367477 4.5991672413064775 0.37315902068608076 0.27613442263957605 -0.3340706328347279 -0.276916038000607
Ni 6.237076992221818 5.541596630257504 4.7365968926683815 -0.4643911103295615 -1.1507175315484761 0.7645452929225027
Ni 5.2623390687470675 2.8686481904739245 9.724862517352689 0.046930346002951435 0.852846231452441 -0.2928216534872699
P -0.01636006570612224 5.628332479000026 12.566228754773322 -0.06580815674406086 -0.5441932673598693 -0.24644100934020136
P 4.150062220400186 6.194660658002116 12.355090478313102 -0.7561287867240333 -0.08579796960242643 1.317979876374982
P 2.555834555198008 8.137507245331191 1.3180343150410176 -0.4794909420854774 1.3006784089820569 0.4363516876938421
P 6.439925051706165 7.900265348502959 5.919700277281348 -1.0870230787133084 0.20210259243414225 -0.07060120725733003
P 5.092846748259451 1.109526798339507 12.567015524046955 -0.11329488947111456 -0.4473223277727329 -0.18509448791191996
P 4.2830480823462 6.498031240769266 8.35206578266151 -2.724911180379707 -1.232031240127304 -2.4143129196353064
P 5.013687196225987 0.7112266747879955 3.824540075884893 -0.6029895115624713 0.3930339987428134 -0.4147415656232341
P 0.3431597996784836 5.533656088514357 3.708002609065768 -0.0657968438901512 0.23707705162679815 -0.5215701306437146
Ni 1.597779054284549 0.6716860551124283 2.3242639535505467 -1.052949276958051 1.0959070114664997 0.8318022662979481
Ni 2.122965756686249 6.48287864735115 5.043188312149467 -1.89257952394085 -0.34096453174108377 -2.063365565649898
Ni 5.984190771179449 5.760517001871044 9.358483007363596 0.9173721790499684 0.38557882801634885 0.3864254922873603
Ni 8.933464599949046 2.651203011248447 10.148297369481533 0.15315007379483947 -0.6717197270493336 -0.23123241992056304
Ni 2.3411849566091663 5.754379473046639 7.14863752514636 1.373966933263563 -1.4075080024438018 0.8816122478415398
Ni 0.38493142018784793 0.09625448209586102 9.336172088413038 0.5552356412169599 0.7561411280192075 -0.04310942959496447
Ni 1.5082294126536873 1.1151634902420393 11.492706667440961 0.12167977110070011 0.3884600062188858 -0.7342325008715741
Ni 4.042710102728209 6.767854855896789 2.001039284587772 1.0437272441391507 -0.2871544278991635 -0.5335599560157391
Ni 5.602207003929969 8.079483011400761 8.039996117867721 1.2606046808896225 0.5286494060879992 0.09729517160874857
Ni 5.630354038939221 2.4893598364767056 4.973697644545904 0.18178007882670627 -0.3307027448037595 -0.3592525314169942
Ni 0.8078526868186277 7.648271527794108 7.158326443053135 0.2971380214744367 0.41742631154424886 -0.5053608678737039
Ni 4.94181254487431 4.626531149492438 7.39592074695185 1.6622097091308987 1.5101333280162121 -0.3739744110082011
Ni 8.381715328436382 7.160893459930881 9.234627857809615 -1.206484244896135 0.6197780438747197 0.20040900678180323
Ni 4.573906848192382 0.2955365826964742 10.433524907100693 -0.12795069171107643 0.7542133148688753 0.29352305042966864
Ni 8.108112671080182 7.23183928644563 4.718858159508231 1.1287466837043398 -0.7398663021185838 -0.358748338087066
Ni 7.3158250851807765 6.394521908206931 7.107934963812048 0.464292122857852 -1.0563310489460904 -0.22822885720754887
Ni 2.2807931299571558 5.154158293622537 2.5782501945958654 0.6234279819224812 0.04756103760841487 0.947611180440168
Ni 2.1570955163804193 5.510717757492581 11.555226595704639 0.20960044347308418 -1.3305795674168635 0.01742822277877644
Ni 1.2056601689615332 3.1936822466435375 3.763938808338281 -0.47758961129770644 -0.2890652717686312 -0.011036460319819702
Ni 3.4649628419074183 2.2080625027753684 2.464257889952439 1.1935945334176605 0.7512552606818159 0.8709298284270292
Ni 1.3447653474802483 3.784360206174499 8.295035937674145 -0.4346231350385095 -0.692367228096356 -0.8066602198146817
Ni 3.751405136715267 2.876443034203436 7.129165896236529 -1.2828241544094552 -1.384352647373261 -0.8778689787490236
Ni 4.0871024662578455 7.064769195434707 5.99516183160622 1.9641171269695206 0.6957472003121824 0.8601795318890605
Ni 0.7745725286664709 7.440141915315465 11.40540988134594 -1.2093600237820334 0.7244219425390557 0.5496046681834277
P 0.31379891809312793 5.680073486092415 7.9396784824165945 -1.2284671769251294 0.2334803354144753 -0.4100631863109582
P 8.55609763850665 1.7035284938065334 8.097732598221222 0.6976225629580243 0.35857273174115023 0.32649024938430865
P 1.8828372179628583 3.482446603543706 10.419623495374676 0.21045379261231498 0.029703440601703688 1.216023294734822
P 4.0479734434707995 5.778792996456476 4.016912448188831 -0.18738251261514827 1.4608118560732648 0.24483638385724288
P 7.13043346895516 4.214023648386273 10.498884125405098 -0.3677042617287732 -0.2108314876667079 -0.8974810965529962
P 6.363460912924963 7.8560551074903655 10.121575443168156 0.589918794421442 0.17252307900481256 1.2534436443648092
P 2.4601200663651843 8.676371348762945 5.988724711241276 1.140477341877707 -0.7551132009753253 -0.18410512741545712
P 6.925345302511164 4.111306548773081 1.57953675236477 -0.26128655899346614 -0.6561573538347022 0.3890436466364977
Ni 5.019624390281642 2.958525652635467 0.3479896888305081 0.7028120775787638 0.39782499237355357 0.04819044366229765
Ni 1.4751650696842284 1.1169573970349294 7.083398507703206 -0.27032321527443764 0.6149184017895732 0.41710595209035256
Ni 6.863396328338421 0.8160400045723705 9.445099565857452 0.07264549138086844 0.23208319795663254 -0.7984946532847539
Ni 2.655109539239055 1.8582233597842719 9.128579737359678 0.35143714913763346 -0.5318609710467613 1.1591630912126683
Ni 6.167815798989732 1.9636358726497238 2.2451635913351224 -0.09899184258488113 0.48458301189640424 1.6629635565777878
Ni 4.092356700874584 7.021369399622962 10.405562726446243 -0.21410115955691514 0.8645262388935304 0.30850898231553964
Ni 8.041046054178484 7.3729660249035405 13.534448513363044 0.31869620726118664 -0.2803502604931365 0.15870057129942344
Ni 7.515713653763149 4.270499840921823 8.248482690479772 0.8247348179282055 -1.2832206185169255 -0.4334540544310729
Ni 2.996489091313427 8.33424509436869 12.450450738850273 0.8619204258395672 -0.5735573223442832 -0.37632619906982934
Ni -0.006999878942611692 5.136510621720909 10.101784189240913 0.11113541992595054 -1.2576535686810986 1.2903024650643713
Ni 8.84552674259403 2.2853370867574196 5.897389358330791 -0.10931919265281817 0.8510104637952828 -0.3454027700180955
Ni 3.6188290504326033 2.5683372659931245 11.71994457440793 -0.6338206380107149 0.6781983927951417 -1.347976165626756
Ni 0.9017086153650105 3.331230277641521 12.711128161171814 0.40639859297517755 0.36325779592164537 -0.507024885839688
Ni 3.264564330277321 8.616744436682522 8.216949087266073 -0.8244329704170704 -0.32373839767078444 0.08072878260963516
Ni 5.588566027403323 7.559386633350459 3.930282230506196 -0.6261124707331797 1.927973587169428 -0.9946839655582548
Ni 3.0239986975130235 8.27654868096894 3.7089359869656215 1.2982574582453899 0.5466887800882133 -0.18825925879314673
Ni 3.5575083989436647 4.730550425102499 9.474341157194143 -0.4728047883145535 -0.8597195615335065 0.09184186180366118
Ni 7.194804672604596 6.198457912482497 11.541858802953561 0.1549984398574879 0.11993476338513538 -0.4062137306578811
Ni 0.7657477821030716 9.031446514119075 0.14795360100933003 -0.5624064479337861 -0.33024637399263124 0.2185846492495655
Ni 4.521537518416189 9.264026074510964 1.306451322956977 0.8772418866879861 -0.9755187054837134 0.7103582653571379
Ni 5.728253997976582 5.625026955315666 0.4095043008000993 0.4860359422928468 0.6296788479281994 0.20163208055562695
Ni 7.915545427683006 8.979313943615042 11.384258172216374 0.2747336856373075 -0.7513293084528608 0.46107747257529624
Ni 0.08788048876214734 4.919784826437757 5.700845469773944 -0.2738358564133864 -0.4488580476909689 1.3907431242806372
Ni 7.859606496572737 8.720918516432071 2.4378291808915025 0.8600365785532931 0.1953105092129733 1.3739561346302855
P 8.763516973168818 1.4326303558284468 3.540432591745557 0.9430844962144082 1.0604455853350963 -1.0179529633885243
P 1.6836498210711084 3.0431397740544175 1.485455902509837 0.682542014475818 -0.08317004506127612 -0.13098536477234216
P 4.761028628329924 1.371728586128711 8.40580285254071 -0.04708384086168021 -1.349681578353637 -0.27791799690256
P 8.647769007461081 1.5253398231300335 12.538934053143839 -0.0677313419087027 0.5384807903561243 -0.05770146847652642
P 6.168107195017003 7.658652511265654 1.401091288939237 -0.3007445078787724 -0.013021866180964669 0.05294724162099268
P 1.8933365810704832 3.3391070765037028 6.03579791822181 -0.15245381905876323 -0.435083876725012 -0.5842335711112068
P 6.685917935478395 3.990058483050596 6.151496710849945 1.04208225233656 -0.10213578753050151 0.2349926582939437
P 2.3295928583992738 8.536100586135143 10.244350606196061 -0.036672672830685225 0.870727739718552 0.2311267475806342
