# total energy = -340892.945452041 ev
CRYSTAL
PRIMVEC
9.04502264357901 0.00000000000000 0.00000000000000

0.00000000000000 9.04502264357901 0.00000000000000

0.00000000000000 0.00000000000000 13.23830492378012

PRIMCOORD
 96 1
Ni 6.228393667685467 2.184336830537613 11.21649853093129 -0.4636112947407435 -2.061842187026836 2.2236113699492543
Ni 4.4164675616473295 0.6680346322849416 6.196453883109349 0.7424595167670568 -1.1366489692705524 0.39699272628024534
Ni 2.7328451042873314 1.5519359701478002 4.76102413837773 -0.12623525168186647 -0.22431512397543948 1.0074320092525424
Ni 3.2939802298914507 4.21181487535959 4.848304086063292 -0.47828303782030535 0.5375747336020871 0.10921532008510224
Ni 5.098652227629281 4.454221486891077 2.549803691019449 -0.4725016552518379 0.6959258919818918 0.1188934666048146
Ni 7.3624857637172765 5.975820450506168 2.5092014880902065 -0.2576397062694982 0.5985618148084206 -0.15920682151188065
Ni 5.189111500835491 4.58512105711808 11.431527667396228 -0.7566566342030452 -0.4519050620474088 -0.33062252638512735
Ni 5.753819410452854 7.7063051710879815 12.374559032929415 -1.0072430331701878 0.2937981584679263 0.5738195748667343
Ni 2.052080506887859 6.514144028562437 0.29577405516425137 -1.5930516620779982 -0.3896931072950386 0.9586851788661425
Ni 2.8118352885598865 1.9568545066563854 0.421208622604414 0.5962491075148441 -2.162144778003341 0.7181265964486471
Ni 0.7512316566703062 8.777452953326968 4.662768960004394 -0.6318136348830151 1.4289036945107585 -0.5362521581359216
Ni 8.673941712193896 2.3458357129590572 1.3812717661045328 -0.5170280197989869 0.26447678379598966 0.09283250785170465
Ni 6.882475447770839 0.843762240101915 4.67204915341601 -1.1849869942543074 -0.9560045467101858 1.1224361681052797
Ni 0.45588543108536234 7.371358931102066 2.5456330309979123 1.0096336448895513 -0.2174075982223288 -0.3493591835626822
Ni 7.492272796137624 4.0237055358065925 3.824559459410657 1.4332012934448477 -1.0402853083371375 0.14867712562515037
Ni 7.714834627605675 3.6892296370072315 12.527911063298383 0.05285853856192833 0.03983795793254429 0.6436746479866592
Ni 8.049292436359398 8.770063169684384 6.738681293014013 -0.7083952280934961 0.5303540474839318 0.053622927531778615
Ni 6.906363353034073 0.6181893205376386 0.31629630743678094 -0.5857021852369332 0.23453011683522834 0.000806040841063128
Ni 2.0132049988146377 6.4978720325122445 9.287491840528007 -0.19717198790174428 -0.19835855201067773 -0.026211882508677436
Ni 0.22179571803533793 4.949029460168315 1.2239489707183158 -0.4589347152006806 -0.33364382970995443 -0.2736080566732965
Ni 6.375872764738486 1.894290083821934 7.010463425152619 0.06119842588619138 0.546504174881233 0.2486930385991717
Ni 3.3929960946838085 4.403894979929838 0.5012733555877878 0.5221463148621588 -0.3879617264262286 0.036874761539162304
Ni 5.942109650462218 5.585554850963291 4.667031879258677 -0.010539723189059267 0.5477943544475663 0.7420735941825478
Ni 5.481419503255753 3.008293184174211 9.24654592673167 -0.5293513172510302 0.968769045464706 -1.863624274359081
P 0.21757621489058276 5.488185180323872 12.274768009681527 2.106835721018391 0.7169032655645072 2.3905623541829284
P 4.089743247403286 6.151348163318857 12.641058871742112 -0.25026912483703995 0.2410193241039978 -0.15130736415914586
P 2.1950099574632533 8.358505586427139 1.6101488325043485 1.3747387784325809 -0.11679776041805047 0.22650004744190025
P 6.338914801502754 7.748753463174446 5.828984454575533 -0.6528627422438305 0.5650114896568011 -1.0151522607149355
P 4.817469603275574 0.9982358533003552 12.523079212108824 -0.2601051370908553 0.17966586069718088 0.8518509574187071
P 3.9870912834379557 6.18116960355092 8.241400580500384 -0.4270936594306838 0.6078812924371337 -1.653214447610824
P 4.6962753425326484 1.0973693033893515 3.7737770832993744 0.6658794662184725 -0.6626676441493942 0.23708733603944332
P 9.36286492017551 5.386754294439017 3.4612742584326046 -0.009256999821893735 0.527245326651621 1.3114328192850835
Ni 1.602461467611042 1.1898998868209603 2.7076963228432214 -0.5486590164407067 -1.7109945918440854 -1.593001011345721
Ni 1.9354992077822868 6.617555774444507 4.710652406302399 -0.6480537508909613 -1.5807988128525743 0.38755446368548097
Ni 5.913807774063636 5.549917461059036 9.07375976033522 0.32482777408022123 0.41824186546700876 0.39341117957657407
Ni 8.503533482296387 2.2562990320803187 10.324686416111513 0.6690172405165058 0.26362831975276535 -1.0696375362470094
Ni 2.3228975350917493 4.978290108985643 7.13350015704364 -0.5789746367051125 0.5295320658032687 -0.4532386932571678
Ni 0.4920302467697271 -0.4037146439714644 9.085911748491657 1.0490918508851739 1.2981528143467256 0.3210886187527631
Ni 1.525551638586705 1.2125848040493548 11.497613317613862 -0.4551042857109968 -0.9094464964449887 0.3734311369102214
Ni 4.155627193612068 6.896540458253358 1.7184647897585226 0.46570005894897215 0.08232698033469048 -0.9982840242046871
Ni 5.677958804075444 7.924272130964316 7.965885567444649 -0.793378157993795 -0.333463081157716 -0.08853336625571849
Ni 5.291817734937731 2.9269512939688878 4.850263238005745 -0.7019474155856233 -0.27389499178609605 0.08177856403038819
Ni 0.8798835387269521 7.478072110312831 6.818918785933217 0.48669825846719406 -1.0586951783028928 0.3955259119267317
Ni 5.067338358632192 4.69354374564151 6.818468343796864 -0.5097116886432318 0.17660701926619907 0.7450301057077103
Ni 8.109722233808723 6.943004740471165 9.169075306292594 -1.7228100964217747 0.24549021539115787 0.39985950630507905
Ni 4.631187358331881 0.14880509739818712 10.445605708160763 -1.1298309179074542 0.652367804885283 0.39180449721108657
Ni 8.229993902224177 7.045701929550586 4.854685349661631 -0.22352733796682148 -0.46537481439906947 -0.8724663196762136
Ni 7.260087060390859 6.168949777723344 6.932794718713825 0.3735337239263567 -0.36820562684522395 -0.20570445085278766
Ni 2.396406435536391 5.292821732470566 2.5449184741952635 -0.7539600612074886 -0.41722190884292665 0.6509935502455757
Ni 2.3811927071559444 5.280348646004076 11.492371726890632 -0.15691725414675556 -0.05260939866559971 -0.852478563700377
Ni 1.0599952691039745 3.0861256055260187 3.8182188984150014 -0.7468633022617073 2.049547171709567 0.4565749567192524
Ni 3.5023956456716197 2.711923966508513 2.8041506371734255 0.3601161649688701 0.6744957471325739 -0.647501220821601
Ni 0.8478876750093595 3.105536224494174 8.302601918396112 -0.07220480429902404 0.2715702003076613 -0.6812392365039944
Ni 3.582561682910559 2.87547606910972 7.060067234790673 -0.46890905280457307 -1.2036660587210497 0.3490434520944763
Ni 4.132860871178308 6.970682510295283 6.060760450788627 0.310637084402136 0.2600138629286296 -0.10150766702819938
Ni 0.7084559347578172 7.506934778126151 11.28736266670385 0.059956325948974154 -0.1819561993932544 0.6786717328871343
P 0.36478305675676936 5.713994174983706 7.975760923357711 0.22699447057981553 -0.9788801657567787 -0.8578300578202775
P 8.52301646144709 1.2738105635066919 8.142590037726004 -0.0743889564345364 1.3823196761036323 0.0912592498273138
P 1.844035937043242 3.4223924188434105 10.233077520505093 -0.5730513292421422 -0.17305092648382456 0.342226686282959
P 4.022529682840208 6.094563510065323 3.84646921818352 -0.4097819076251137 -0.39406295422796 -0.11901739377718858
P 7.005270677552611 3.963465683836454 10.376316310860874 1.1040666644591566 1.7553273523231896 -0.38260046211431525
P 6.226874103851987 7.739011973599095 10.214133624714364 0.8199397105324072 -1.337857074914883 -1.188244839069973
P 2.543388056334401 8.563357263216883 5.8157859572790125 0.3181717022162843 -0.5186724973809455 0.052269498827677716
P 6.937523456643252 4.0247004883166095 1.497080620261419 0.9407887582016959 -0.8194386025262725 -0.11817150083712552
Ni 5.320996978549692 2.7877212577261945 0.4633403388922374 -0.19281139694020344 0.2799820785204404 -0.29290264323685045
Ni 1.5690491533200974 0.9338172007881443 7.106375038113723 -0.9232713181432228 1.2498538701310218 -0.5497080265305113
Ni 6.657543820324383 0.7162572669386346 9.165103636773061 0.9073523329201211 0.0034501633321295413 0.3252023838108206
Ni 2.3922095449486815 1.4514548116588712 9.357654987032147 1.4769871802815466 0.2708814017707528 -0.5811719014667476
Ni 6.357149567504525 2.2548789634978395 2.7036586246571144 0.1669383858281835 -1.1002336638663115 -0.8453918320569247
Ni 4.270164317560695 6.684145232433119 10.36094610358567 -0.49970109848476524 0.8526294874559445 1.2134431927124714
Ni 8.215187199870556 7.30779051073478 0.2520820724402645 0.3051233536727584 -0.25366375234088573 -0.020803824119228688
Ni 7.7063051710879815 4.2700376872412384 8.235285240572905 0.22554693950001156 -1.2220047091292374 -0.22358518778795042
Ni 3.0999554454152594 8.364122545597327 12.686148310491532 1.1827223665898468 1.474238671002132 -0.674334024743729
Ni 0.19977289647724594 5.11238257226752 10.183910585469166 0.3807366694326991 -2.087366813660502 -0.9361049795727814
Ni 8.564641656457086 2.3519049232701623 5.976380337418623 -1.2162940318977054 -1.2840436286388532 0.015836967032256597
Ni 3.3381742113818555 2.8645225464767115 11.661675559502022 1.9660004600351624 -0.054214538369190504 -1.1937868519341246
Ni 1.1995871062594012 3.335578289832992 12.575794509596387 -1.453444617074916 1.0334317757504137 0.1374696869451052
Ni 2.9551898552077422 8.38545070940297 8.229500043978296 1.7833606043113224 -0.07670603460348725 -0.6649780374501256
Ni 5.7621679665141805 7.735005028490571 3.5449669500684142 -0.23761646907003592 0.6794528340275331 0.4824677653256142
Ni 3.268319500155823 8.197513225283522 3.644174569344521 0.21631847892320807 1.5572979015171566 -0.30210924943678297
Ni 3.561631500108922 4.337676367876778 9.239900548467036 -0.2687126762542082 -0.42087827464859123 0.5253141710671791
Ni 7.4569972071461015 5.977077708677917 11.49519106050311 -2.2981553639044163 0.8407571614983907 -1.0975643445642647
Ni 0.7357899937148379 9.254957797952724 0.3658286613945693 -0.6999026172414526 -0.37242249314004894 -0.04529358173047683
Ni 4.464686578291896 0.52074638521339 1.6679863264139358 0.10022262966818869 -0.738888768696663 -0.4711834506610466
Ni 6.0715167919241955 5.495140802871174 0.22462319216835072 -0.24852617400400426 0.8535183178188012 1.0172037439273256
Ni 7.62614817887186 8.888534878558989 11.286991820768298 1.6085497577135974 0.2376195543938295 0.49108250357781874
Ni 0.09675189558092757 4.6417519449837 5.673328656894736 -0.1969470163751318 1.6122210359175975 0.3336715976240963
Ni 7.73381108547855 -0.12741452293509703 2.5226785720895317 0.33586551995162156 0.13024771527536924 -0.1534776323375873
P 8.500973740838797 1.6256619511400818 3.568848523815675 0.2711038021942041 -0.05854916118880239 0.1911196110600773
P 1.678032633258265 3.282999572189987 1.6155894137295794 0.5534998894727758 0.29743292700703616 0.03758952821799978
P 4.61158679388454 1.2608400007851934 8.519260063470634 -0.9087983213380283 -0.7485597161275237 -2.108815470452581
P 8.56217236522768 1.6256167260259902 12.387506078591585 -0.15141226516812634 -0.27019363167510885 0.5356818874547484
P 6.35326020769264 7.588846504769029 1.3822115439753582 -0.21708775298906482 0.3446494367918387 -0.5124866802852077
P 1.486178654258475 2.9775220165462217 6.029557835572202 3.310072662621822 0.7888797559028092 0.6510035775479047
P 6.819666809320293 3.910488985189442 5.9327598103749 1.7613118520413988 0.022892845437773476 1.188352825402747
P 2.4965800632494966 8.488138853459574 10.44326214274853 -0.9669638739351669 -0.3081240881722951 -0.20815059840043507
