# total energy = -340890.6694762479 ev
CRYSTAL
PRIMVEC
9.07612160310194 0.00000000000000 0.00000000000000

0.00000000000000 9.07612160310194 0.00000000000000

0.00000000000000 0.00000000000000 13.28382139457475

PRIMCOORD
 96 1
Ni 6.259501489657516 2.141610706327948 11.340119171275237 0.132254718403069 -1.2004110421188616 0.5361122901239477
Ni 4.379900258922039 0.34610427939259797 5.997751591140073 0.5407220209818172 -0.5620030418477805 -0.8028958676762431
Ni 2.4517417781373827 1.4410611918800986 4.767005917211304 1.1259583223259255 0.8145375656802295 0.24992871077848575
Ni 3.372822892902049 4.052397490552954 5.095248389483007 -1.1342786692661628 1.0863687329587612 -1.1548963455165142
Ni 5.142185551843631 4.555523210034494 2.6076541161784714 -0.1048174481277227 0.18158493209676468 0.4610319640493415
Ni 7.2728958362446505 6.167896195312399 2.632746869302017 -1.1156363715746271 0.41717202944159765 -1.0807997235114162
Ni 5.124777550797963 4.630482897540321 11.339893175849776 -0.6300228615311795 -0.4901317096287753 0.3389657561435001
Ni 5.89593021442947 7.898975773747917 12.592730129520545 -2.046924132264423 -0.7369650693113888 -0.2837837116547177
Ni 1.7945488961166234 6.700383167861059 0.3617088550953185 0.27259118537300797 -0.861308246176865 -0.29451446780866053
Ni 2.685887560710979 1.6386029764259677 0.3318220945930859 0.617343209180982 -0.5812703747178248 -0.18893905846899073
Ni 0.45123571761589976 9.03653146251688 4.627392478168031 0.7272691821798636 -0.30148447136859047 0.6708419524300705
Ni 8.444713883693176 2.4779082364349123 1.413517885950333 1.2435189290519295 -0.12411743400791526 -0.5618672876008646
Ni 6.885998928749989 0.5464641996656202 4.826145017322603 -0.13296742819937746 -0.21875665605105551 -0.7631913499977695
Ni 1.0187946388823246 7.253364022766925 2.4243237226843797 -1.6025446891700983 -0.3968340892151939 1.2948471470122604
Ni 7.563231887052728 3.858694905403497 3.6609280330443155 0.8444654635879135 -0.31707024162198943 0.9180406658719027
Ni 7.515818228313118 3.9640777521924737 12.379578323599052 1.2541563541611176 -0.6993444307451375 0.6961488066259753
Ni 8.04222419945375 8.81597263383555 6.999112815836516 -1.1575777490034194 1.0212264919334735 -0.3066547027156203
Ni 6.813117673068697 0.7492047866092781 0.17676745003417407 0.40992588940214564 0.838552440537588 0.9067542943248061
Ni 2.1827618412294396 6.733302260557952 9.51670185548919 -0.8395184039952831 -0.6937900765858116 -1.7231409973986325
Ni 0.030609219773992332 4.921944387414958 1.6700689820699866 0.7933750726700014 -0.43621413367471323 -1.1551303159041912
Ni 6.274132197522801 1.8823149910653276 6.662221707383156 0.2948057737968342 0.5057545037676967 1.729629176226137
Ni 3.3632566608362855 4.29033709191544 0.04855543482487893 0.5622030736737285 -1.2697007296536196 0.8437900347874436
Ni 6.200461319270616 5.677658568367278 4.786173778216699 -0.7725954169204888 -1.0404976814582596 0.6084489920151457
Ni 4.917379098298184 2.8899460004970927 9.3370917641998 0.9331548958055219 -0.18033563307069586 -0.14654542399412826
P 0.06837133090569655 5.7688735894877 12.44931833362763 -0.12905472340853258 -0.6752441952628242 0.633288933876961
P 3.965076125557971 6.238118147392867 12.941577212831808 0.46106873082454786 1.219888691227499 -0.9318282065742984
P 2.6176532792400007 8.309270922481229 1.5698686006600904 0.5346979262749243 2.115783931350614 -1.3498720970978881
P 6.217905624802302 7.755400607667921 6.009481570572515 0.5573071790340078 -0.019624716209462975 -0.7699752056888223
P 4.683042717172993 0.9967033591403238 12.636048642237316 0.8721680717095044 -1.0026032204053312 1.444254723045532
P 4.0707857127211104 6.449809605364282 8.0609019498979 -0.3530309759873146 -1.6179553672982134 1.7386588905285731
P 4.727125439320446 1.4125803225989162 3.972739094944237 -0.35873059747525315 -1.5088971416162658 0.003708816310154903
P 0.06289842963847124 5.771369522901443 3.7042601599433436 0.7999043891480869 -1.764543214494503 0.2753672054562483
Ni 1.8714508736244178 1.219594751048316 2.529132958594271 -0.9236582691689964 -0.5242186240101553 -0.0516586047165562
Ni 1.9271056506901318 6.160798668295865 4.859368160089898 -0.43422461404851026 0.41959477995047734 -0.30546428195194486
Ni 5.851076021954134 5.50578405543619 9.166660354587929 -0.05384789905839113 0.624019592759893 -0.10492774845334188
Ni 8.65566109970122 2.3878095782595468 10.300779823755281 0.40499914152448957 -0.06445987024628254 -0.054857314159511984
Ni 2.300996476068817 5.360039696316615 7.130157488567372 -0.639793053544066 0.4697359195812426 -0.5461994991566206
Ni 0.7322360698444282 -0.14537768381079305 8.900984125907632 -0.11259272119776739 0.6787959171698246 0.7531895015900513
Ni 1.251125197155017 0.9800759045440439 11.716449658114337 1.1217530259953263 0.6280973623736925 -0.6879621570501248
Ni 4.367465972460847 6.780697767054553 1.8255819707648766 0.1381623421367556 0.8896785697894419 -1.0527456455876774
Ni 5.730744803047212 7.97212023695284 8.167915775721239 -0.28894494414068306 0.237156755824798 0.24251004971691137
Ni 5.397061195933549 3.2307089823842814 4.816806595906603 0.6156305973652494 -0.5530951978351893 -0.9188004268560628
Ni 0.6248101881047838 7.312231746845239 7.0262912616818 1.283429649203938 -0.6419419815662687 -0.5288054720498893
Ni 5.035522971922517 4.508236616995946 6.995247295687741 0.8735035026914763 0.4389736986977214 0.23891641882838208
Ni 8.085217787020659 7.311923158714085 9.15802533258853 -0.15331873816221983 0.09998608817735039 0.3375012557828317
Ni 4.589967091144145 0.30375600406465997 10.543103191804452 0.25701827063541544 -0.03779393091932201 -1.2162186985750796
Ni 8.002434482777936 7.116541491086291 4.827818654128037 0.6950956827711126 1.4659954571567333 1.2271379165907446
Ni 7.390041336503485 6.004362638043966 7.221523173304768 -0.6892888462813483 0.4595021576683764 -0.569449985044129
Ni 2.5175345829236453 5.174641762343793 2.4030429405927323 -0.04793127646364003 -0.18245859295096967 0.2853626261060634
Ni 2.311597385986096 5.559995729182686 11.629215423885798 -0.6613149867762417 -1.0025834229109896 -1.3026267909576792
Ni 1.007848836347874 3.2979267382467534 3.546501738788235 -0.009558333112396442 0.5624295878622378 0.6159550705842037
Ni 3.900626586754377 2.634180896499731 2.342456199101462 -0.8215859878865787 0.2465924473164011 0.3428254962092225
Ni 1.3144856013780686 3.3421728305812866 8.263028083415701 -1.1562001519296021 0.333854917279496 0.1746244416185315
Ni 3.619530027637901 2.6490475835241343 6.9831451952736145 -0.1591476861391711 -0.34946408457166267 0.44644686714631504
Ni 4.244366536495048 6.541242453400813 5.8976446937816736 -0.2657643922591616 1.71586631811409 0.4274590131899025
Ni 0.8479865702280179 7.611244569811637 11.530343786664163 -0.48780511837812757 0.018365389881065144 -0.5697055526983608
P 0.3294060310485828 5.667311789852125 8.48910610158393 0.30469886454083006 -0.2069532356582242 -1.4351280781539155
P 8.714456214807498 1.6914260035822717 7.958683039065399 -0.17716186332840456 -0.8754698823892277 1.2166344459562597
P 2.0275510873806506 3.4812190120305266 10.549320335035047 -0.28251255825177796 -0.20440013021906733 -0.14170943605806563
P 3.9603202378896025 5.97035441076653 3.8808551636689317 0.2903461953635838 -0.3345519433465206 -0.7719382429524642
P 6.831569428087385 3.7876470262661175 10.16277376583046 0.3661934815112016 1.0779398854651179 0.05260914155528359
P 6.424269399450564 7.970904036671235 10.405216938683488 -0.5639390825282288 0.06080273310966947 -0.2180534593364438
P 2.3872014781187434 8.307065424955631 5.907089305819276 -1.189452743335145 0.16604621303121728 -0.5079329994762543
P 6.956593001812143 4.020122802482882 1.6132134341292246 -0.21735437638689017 0.22107604821285154 -1.2372809185620175
Ni 5.387540344475308 2.871231037954774 0.350911900953542 0.14356525831988176 -0.056885400333134294 -0.0009947598131015126
Ni 1.5966349905890689 1.1768825232480469 7.0049841588377895 -0.13144790623105748 -0.7799819391925471 0.053135703482714944
Ni 7.0438599100780985 0.8933753462599701 9.210177634365651 -1.2389937874880663 -0.196281614876991 -0.9615437313608601
Ni 2.7027963750738992 1.679100630579134 9.24686785554767 0.033703562900032284 -0.9142287483249804 0.6692121301361313
Ni 6.3752855716906724 1.8408371157896732 2.491380831196221 0.5701894343133148 0.2873827418598857 0.734939811351244
Ni 4.1421512561111475 6.897053644742495 10.813933749887166 1.582257913896604 0.3720365705555399 -0.23608537713749017
Ni 8.1218490134129 7.597875442835479 0.03708684769176797 0.15913483062336461 -1.1815190903103652 0.4146284370841375
Ni 7.962318025727959 3.806525358995518 8.240153534387861 -0.7311471770780311 -0.0961101501617119 -0.3677834517061408
Ni 3.014116418800426 8.504598133379996 12.463625023955204 1.063623725952762 -0.22424030487344607 0.8825023637559769
Ni 0.11916493729359003 4.719437964406117 10.426417850905896 0.1313687162536899 0.4956693516175527 0.39592828957147297
Ni 8.75191336825665 2.108074437368748 5.82646974894323 -0.6396369875821759 1.0452472803281032 -1.138960133902232
Ni 3.6874647970992296 2.4653650365156663 11.560590869190126 -0.4346390758781095 1.5218945823171983 -1.0272989233797987
Ni 1.0789511722142804 3.4857570727827865 12.697725425921279 -0.8344792989094789 0.42303183065648436 -0.8859288729390227
Ni 3.2191096991015056 8.51830307685182 7.953116653746678 -0.4421508108741224 -0.2669856662607724 0.9990299012317764
Ni 5.4597499671652665 7.773235186424302 3.7445899058486765 0.21341056124779373 0.4582294616035399 0.5301900111022418
Ni 2.814214842663382 8.173564753745653 3.7036620435361955 1.2329280409099606 0.3235494215884298 1.0342334457161029
Ni 3.241436958002623 4.442162452443043 8.969993508155097 1.3193965542168502 0.572631210985588 1.494281191475304
Ni 7.201366922667531 6.135058787709047 11.340371487453062 0.04673777037617112 0.059367286214723564 -0.1772549372628431
Ni 0.5661611985547287 9.150454939641609 0.7815194096139696 0.5458140907927439 0.7069806071341567 -0.5220732955323784
Ni 4.637961621660044 0.3141917285705566 1.9297939978797707 -0.6668983944012902 -0.5938746937453965 -0.6946760787351908
Ni 5.88211635749959 5.327347506657335 0.2436530198495808 -0.025702289862110574 1.250846058840962 0.3489022985309217
Ni 8.107563198164787 9.176503408359581 11.217920994174836 -0.4627841708537578 -0.5274803254805626 0.4129435931825469
Ni 0.06661328617027111 4.884205874199166 6.052879045546375 0.14540848217620764 -0.7243154988681785 -0.7826468876192199
Ni 8.160150246161972 8.519237917366786 2.7458190062296226 -0.7977541755743035 1.0533567968091149 -0.20969865961384532
P 8.629186053272536 1.5739174584632565 3.3943487302743183 -0.19221155857267544 -0.3809215317499956 0.9591960570642899
P 1.911331351515277 3.352292706058826 1.3960499825027346 -0.51792173525785 -0.5419144986280215 1.7589713768336805
P 4.660061977523549 1.0876551727371147 8.160756531078475 1.0366875636835502 0.06644579032805975 0.051130757237544205
P 8.610788754982874 1.7941313945274153 12.601603853515513 -1.1348489399473358 -0.15238465638372464 -0.08589978528761336
P 6.448666014054712 8.007208522689313 1.5691116521266133 -0.7346377067297929 -0.2756371712881834 -0.09180380947687417
P 1.6181635507977896 3.2600883876944113 6.026737092776907 0.3925498600175433 -0.11984426055385812 -0.5444516632275785
P 7.038759129792559 3.9065351418538192 5.9781181251014965 0.6094355242981311 0.6921782520140014 0.9740662893079031
P 2.426664454420395 8.706650750313612 10.298481749790339 0.14441912167974483 0.36487219159661677 0.03831843596422434
