# total energy = -340873.0027323526 ev
CRYSTAL
PRIMVEC
9.18489311417765 0.00000000000000 0.00000000000000
0.00000000000000 9.18489311417765 0.00000000000000
0.00000000000000 0.00000000000000 13.44301949582498
PRIMCOORD
 96 1
Ni 0.9843265938776061 3.6340487692281673 11.62869521057401 -0.6228129740463016 0.015081319813154673 0.13767074721231773
Ni 6.439656945542549 6.425163184670472 10.289407411744246 -1.2480008760826828 -0.8986159814883878 1.3064821601480274
Ni 6.431362987324878 5.807019897794138 7.9856241211274375 -0.32913385765474285 1.2649112786847763 0.29450881138170576
Ni 1.8040782781824019 4.577374001551302 0.9141053327905982 -0.2735504639624837 -1.0091217382501394 2.1542566335045152
Ni 7.763677615524677 6.918915468067366 3.30124244425037 0.490977088348206 -0.42891785712361613 1.2613366739596406
Ni 6.35131664638688 4.105996117067196 6.474816715262647 -1.2602789221190875 -0.6633081059468706 1.5172555408832902
Ni 3.4314575882678215 1.649634305391532 0.6191104560904207 0.6951931275809253 2.698144453808824 1.8631285656695846
Ni 6.1431318656983365 4.578751735474503 3.335508523898952 1.1581122813506506 -0.847917683802572 1.1232463227114011
Ni 3.652510403799065 8.824119416212747 1.9933715713160085 0.27438992914464355 -0.27411636376828274 0.35647522578217317
Ni 0.6555092678521179 7.503129760861662 6.89349995114143 -0.8845451052176186 0.7596206019273757 1.0637247703070003
Ni 8.398932357727173 0.33518888617565334 3.473313144854678 -0.4369173303893249 0.1970218354771252 -0.6128766887691961
Ni 1.0674315041251108 7.267913840599909 1.8673024879181113 0.7424019240562441 -0.33876983808261013 -0.17707701692408212
Ni 8.909511364772767 8.338256955749385 13.461032648499835 1.4972492729646925 -0.38275061453893433 -1.606225480455795
Ni 8.162164190578611 7.830405861871729 11.10195722158783 0.7734752484222808 0.11771692979821018 1.116951490841625
Ni 3.9168883587685808 3.372784492925087 4.1722559338803595 -0.4911920325724895 0.4786705030667111 1.8890365437845984
Ni 7.0259102845431824 2.4865617392722377 10.747250438166821 0.15513290855282316 1.050559950790268 1.2887050386702643
Ni 8.309104105934445 6.607896627351076 9.151482773704616 1.1420403154894525 -0.4288211836447518 -2.582910695443784
Ni 7.008091592469778 4.567040997127292 12.556801075492181 -1.3778747529584012 -0.607807758886721 -0.0026338380784212707
Ni 2.6664111256069405 1.9469401011255592 11.349685721340098 0.6557542048590126 -0.12276169131096923 0.3454307950425535
Ni 8.660371146993857 5.231522068287297 7.07114863715614 -0.3104627636078008 0.10417878610245929 0.5876595660736201
Ni 4.056213997975521 4.658338831771434 2.2790355153989847 -1.170151729013688 0.010885022343619963 -1.5426510981382593
Ni 4.803166221778358 1.6294550958630432 10.066401887999186 -1.301530729680023 -0.24709458376380025 0.7494218070175028
Ni 5.4259478795294696 1.0738425593144076 6.52007894859694 -1.5916596668264782 -0.9993865132402465 1.3801265251070554
Ni 0.36196744119627666 1.1400656365562853 11.534984504585701 0.9739529036584904 -1.2735761534486258 0.3744793756690777
P 3.9710700415216786 2.136865314885274 7.95922214671249 0.33848213163886226 0.14501458917189863 -0.31818378640114237
P 4.071020045203525 5.749568393196642 4.417752504677042 0.6416632739835852 -0.3299555822250898 0.5833676235664856
P 3.437372659244766 6.291927129404081 9.448896032684655 1.172453380563671 0.8484370466411517 0.6393950467746988
P 2.6032466176745697 2.883835908473754 2.589474789378249 -0.18596506344233135 -0.05272175587374791 -1.0017750680770814
P 2.841346594282225 3.9256599314129628 12.59254684137428 1.673063878236583 -0.7579853803167979 -0.6988248107962417
P 6.344721893341156 7.89357955469692 7.048147828552934 -0.10393401708150486 -0.16678026298376436 -0.1356200353308761
P 5.9219872012388795 8.856881928906475 2.8517613442523446 -3.9822191927959283 1.5291494641073986 3.640461989950221
P 6.162190518302621 3.705433756235639 1.020298308123111 -0.3296110544014775 0.37702682468127974 -0.11800540757290644
Ni 6.619258339771076 6.145042323405176 5.512068190090221 -0.2965836916328634 1.1600472935898343 -0.47531187100712335
Ni 1.6197007396867775 1.1245799072595024 3.4755312964710323 0.8604111882838924 -1.3563283942461932 -0.21110376749148804
Ni 4.189679675562446 6.349782769285715 7.418462500345247 1.0301039969287613 -0.7810152655530678 0.8194303749961565
Ni 7.85203628446599 1.6283069842603752 1.1535472222394514 -0.1637566456660922 -0.30405403186797963 0.5393989312950195
Ni 8.57690802592632 3.9007045776173754 1.0798109026697158 -0.9061107472035361 0.5642928663232217 -0.8588075912421984
Ni 5.16667672496862 8.009474532316617 9.005048027453958 -0.34002016554994346 -0.0345114035133083 -1.7398583101533134
Ni 2.393133009493544 7.8907873472792325 4.017715519714865 -0.36451300848498513 0.6677820825578241 -0.12342272193373584
Ni 0.07594896025039692 2.1714372514648064 9.515654589178016 -0.6281701245931569 -0.04225916577952722 -0.24776461324763135
Ni 2.2643699970311473 0.06785339571766587 13.215347787400315 -1.0877152196843267 -2.2972935301247532 -0.9048694185972674
Ni 2.428898982139851 6.126791941369168 12.85545153953525 -1.364319897092102 1.192031816916231 0.5758769716163953
Ni 1.2484014473840173 6.351996328455659 10.21692299306606 1.1090252940160126 1.0561744687635681 0.6174018303330593
Ni 5.321442169008238 6.558628862257396 2.703888243785863 -1.3460493809176883 3.3093303851391584 1.5286172457530125
Ni 7.433884853881563 0.6206002457060424 12.287537676030993 -1.3734485988662475 0.9016457694536472 0.877006116528096
Ni 4.986138471672317 7.348364316822045 0.32653671713794896 0.6588274444676976 0.7806087741432686 -0.8335385322627644
Ni 9.068244682511201 5.762620125895769 13.098703322526399 1.0692891517686551 1.3461717654281655 1.0718527987307735
Ni 2.4441183495448153 6.447537583583261 5.84115279649681 0.4032891008119183 -1.0255300044048339 -0.47439398717854425
Ni 5.896315425803228 2.507301227262828 4.9120255714969066 1.3775196836118275 -0.6567191398754432 -0.8788804507326735
Ni 2.468972669519367 2.215974796755495 5.86147896431044 -0.5138341954520377 -1.2893547564391215 -0.3742898853660909
Ni 2.6472698089672626 8.14607225835562 8.2248290403415 -0.32221450482709024 -0.4864311208487364 0.7552985775132541
Ni 8.155982757709848 0.09926756614522063 6.617447078906707 -0.26170282059527833 0.28131673817146385 0.8612336841851876
Ni 7.17226236675845 8.353935567795416 1.5342656221304984 3.1098215215741214 -1.129416713188171 -3.0454575534757553
Ni 2.055551458737931 5.034956177017752 3.7523501887670556 -0.3221815947066258 -0.5056776277831743 0.008737379872997856
Ni 4.108724030235135 6.57022019699793 11.549274360837146 1.5038294972853714 0.1991458237986635 -2.34204718019136
Ni 6.548084605298494 8.911789218192459 5.030808279419633 -0.29637543227679924 -0.5973955624144615 -2.0839392760361917
P 7.5900464016300235 0.5670412986862315 10.04853543448311 0.12272800985955637 -1.6727622878357642 -0.5754229147981123
P 1.9130570315076276 1.008611450497235 9.428826123380738 1.2723237690987634 -0.11566544658582015 1.2778069037005217
P 7.5381793118679035 2.5678755954195807 3.3759321556949615 -0.7967421893700214 -0.734189820559097 -0.06119302656955268
P 3.3390116420210116 6.6726041972774315 1.6034829744321335 -1.148359572839261 -0.17673454598299884 -0.689352352529432
P 0.439951773695883 4.482273621279124 9.24130918851878 0.5780037881514111 1.3591805189830077 1.6491076245313019
P 1.2958597885918923 4.486223125192302 6.211387559721577 0.9699011021866197 -0.21952233057248643 -1.9324568197517622
P 5.965339895355614 4.340642573974026 10.523208858511513 0.1561155841810666 0.3296930725923225 0.9754109762612556
P 7.691401693913535 2.4318473327355017 6.718000530046916 -0.14073473084962212 -0.7791363033628 0.04710260991475759
Ni 8.559162812995487 5.202929496934459 11.02577588354905 -1.0728421592272364 -0.5196091502626019 -1.5021598228924322
Ni 7.955770463990229 4.10390196150393 4.904927486324573 0.8413490294461187 0.21826506112661767 -0.496687508469422
Ni 4.963690593616957 2.714438930169739 12.528907474483045 0.6960055961798917 0.19641068425568753 -0.4426637459547989
Ni 3.585681123630979 4.039598526861713 6.704490471196004 0.3948939347696876 0.6902272989352177 -0.02639494505376099
Ni 1.461858356552011 3.2438561523919063 7.991337124462313 1.654026401989158 -1.3389503079790617 -1.5455369043264868
Ni 5.705784009117305 8.505927174202986 11.12599408610128 0.8322056723839538 0.5121233834085179 1.3431682027151512
Ni 1.059523311405935 0.8168483396839694 7.548765819333783 0.6617788137865377 0.534691241406705 -2.5756532425504224
Ni 0.15614685191994676 6.115595557019952 4.9683381493845555 0.15567875375396414 -0.4249059077507456 -0.8976237927784476
Ni 1.0396839429118359 2.005411128826224 0.36143288043407457 -0.2182792021940047 1.0082357361007603 0.1598825074226666
Ni 0.26746132348963986 8.656384903509394 9.174726063478305 -0.5991027749135553 -0.09029714302436061 1.0585558245115512
Ni 4.677838359231143 5.010212075757055 13.309099825406319 -0.3567521335926436 -0.2534464941237571 0.32057234123797695
Ni 6.374875896473623 1.7439539697738957 8.514902651468002 1.6973165801363608 -0.046274200476191275 -0.7590187066773185
Ni 1.941860855395357 5.6705874998259205 8.031115058292981 -1.1218093331545584 -0.2768846705420393 -0.30515060736626803
Ni 0.35406016696638315 3.125582287531482 3.0615672585238554 1.1449631455632023 0.9300824275277852 -0.5365177530924824
Ni 0.015496751168168644 1.956896524943894 5.110713173008182 -0.16568985813306303 -0.40805386919041337 1.5746433347741398
Ni 4.058785767965497 0.814669683106747 4.237360291176597 0.25651947662212593 -0.4201488526817344 0.32677564183521146
Ni 7.716981620420973 3.8873589283479655 8.867795418556794 -2.189831188175016 -0.142130068535252 -0.7921036621567455
Ni 3.3566374513451676 8.719953546725904 10.588541919639002 -1.327235847755611 0.09754328306381266 0.2788165974574295
Ni 4.956260015324491 3.909540444511507 8.749738317166953 -0.19479757413229679 0.5553675388091338 -0.6015283536359124
Ni 6.918823619139154 5.890979003074027 1.3627588739454208 1.19949598650376 -2.111156459880932 -1.2629274154855281
Ni 5.63062403116026 0.6110176470255361 0.6390242222163728 -0.715089095173904 0.7122696234472378 0.08211383588261988
Ni 5.388620475103534 2.4135418413425667 2.5421018676736122 0.166957411991577 -1.2282324352065042 -0.8717584949759115
Ni 4.481364316889811 7.676072107794715 5.582643988040132 0.4748994660600531 0.8954308988921869 -0.8279895774200772
Ni 2.7269854937636926 4.221992128507927 9.924981174739697 0.44849706480712437 -0.05940662409309124 0.9241259528340342
P 0.1451874378055212 5.400937416376954 2.637655063161882 -0.9221492887236377 0.13531818781974114 0.0932179162155814
P 1.4340648708746293 7.863673543670631 11.801707362692504 -1.130968373946007 -0.29911751379831064 -0.032595931658150314
P 2.9667754906504746 9.122453919942764 6.3791698338676 0.23963838459607112 0.7507546668963135 -1.865005985197956
P 0.5342218396570114 0.2921080648864297 1.5843269619639422 0.4046283884486322 0.39357213063447055 1.1505794633087152
P 8.34007556452801 2.738356391076514 12.499479996372747 0.42285313898677496 -0.34833357051164526 1.3487667798488514
P 7.170976481763462 6.979710273651832 13.024282728441472 -0.38857519164051146 0.7620742056741908 -1.2887371774597804
P 4.3693361791479 0.49610453444844105 12.357992233395663 -0.33382637803440574 0.5536395003744337 -0.5333874349936168
P 0.24557280540709917 8.297485216515446 4.917361994226107 0.012383461266017382 0.3115086883738119 -0.12628615952445993
