# total energy = -340897.9665847568 ev
CRYSTAL
PRIMVEC
9.01037074771051 0.00000000000000 0.00000000000000

0.00000000000000 9.01037074771051 0.00000000000000

0.00000000000000 0.00000000000000 13.18758837151414

PRIMCOORD
 96 1
Ni 6.506280563223853 1.8002900880408652 11.304110142877093 -0.21616806938827285 0.615457819232811 0.16628249741173942
Ni 4.649810813823568 0.35939485432412277 6.004256045790037 -0.5152611577065513 -0.33102207581639115 -0.18355362578736129
Ni 2.5825434417282347 1.673054643284431 4.6666791288245255 0.9133116358273496 -0.7513308511147577 0.9709711953223472
Ni 3.210223885933512 4.38299571644183 4.802247364410982 0.47062397861315075 0.026327325040619173 -0.16678309119724177
Ni 5.028318466491813 4.642142988351737 2.820402811805301 -0.37658665182006756 -1.1354179250769285 -0.7400331667137513
Ni 7.093711681480047 5.956909250834889 2.6179605058670434 0.9494939992851777 1.148619511368867 -0.49284987989088674
Ni 5.290006662941152 4.384563520944884 11.623830532903254 -0.34845518369117406 -0.06244283981625375 -0.5534014162216986
Ni 5.5432701627792555 7.769056986726436 12.377065987728072 0.2769270937442005 0.4674036719036401 -0.01678596120908722
Ni 1.6811369458087935 6.338390325836513 0.5224339081227046 0.4919638777415076 0.2020128609338134 -0.5561524966042745
Ni 2.8638291944657435 1.5946013455368018 0.42606619133501145 -0.05591249489690371 -1.0632457737880525 -0.7294111682235309
Ni 0.3915186279694481 -0.044517538553085066 4.679180117143701 0.8178180362037141 1.0201031769623077 0.18591441271005402
Ni 8.603957936456002 2.1064534743009653 1.3128479545595892 0.4389335894884054 0.7431280035889912 1.035203780049172
Ni 6.785286692172439 0.8406423579441957 4.7305329229152715 -0.1748599546681053 -0.17686747201643732 -0.06732587894016792
Ni 0.7698830157434484 7.498448523276965 2.585545697247875 0.356870918558695 -0.0338503728905417 -0.16553430639180525
Ni 7.446467694667102 3.9709334432599555 3.778468320805785 1.0432988983524807 -1.163313623045932 0.17991500059350948
Ni 7.59983321447443 3.628629460093258 12.682081452760073 -0.17421897864999672 1.3232133568597793 -0.68513728600682
Ni 7.834823682518322 8.905913479595837 6.660259689276341 0.824238080797445 -0.13909462414303786 1.2826112670677008
Ni 6.906142794468172 0.6580715235636069 0.31939061045827644 -0.5939880793948092 -0.3884286387603181 -0.05216999713533595
Ni 1.8886007313421762 6.54264641939813 9.313206563562387 0.03722931666510362 -1.3568457002022438 -1.0275226093548304
Ni -0.0725253748593594 4.688627490830205 1.4318425142672142 0.4664001703397903 -0.32585338713125817 0.044043254263143504
Ni 6.39686763172627 2.180725960040452 7.0558744317692845 -0.44088325701560843 -0.7985147078894118 -0.1545562101137467
Ni 3.48580607401336 4.29129717375461 0.6338705688811264 -0.5940503000913124 -0.027160619575191933 0.07734649640096357
Ni 5.998807474623391 5.779918539033273 4.807732878097529 -0.4464579228899085 -0.5541560349995359 0.17711661191276593
Ni 5.2486310406536685 2.7767709926927338 9.429416017684417 -0.10839976616234234 0.613466499834395 -0.40534392645841805
P 0.04736661777070312 5.4256037317138714 12.46568658778171 0.9924239658794842 -0.12447430312670175 -0.14636596099347052
P 4.098574354698214 5.94724112306606 12.604156162735887 -0.3233293351578238 0.7595213573453501 -0.6261620930241926
P 2.4405039578998635 8.40906361805917 1.3081715721625502 -0.02287793303943802 0.3233951553987527 0.7180301800800989
P 6.290680412941865 7.755793721045431 5.717953318642757 -0.3509357840211827 0.17527261672549171 0.7535967643307989
P 4.808591566425925 0.922815136719759 12.509825690765092 -0.13351970115842166 0.2556296178180049 -0.14307931982239874
P 3.925881589723933 5.9509714165388425 8.313033790172996 0.9232381509124423 1.7777170328723 -1.0981842375364506
P 4.73244492357934 0.9827701434054975 3.8442872767477723 -0.5751012697926353 0.7247991233728162 -0.7484306467488272
P 0.232902765151033 5.547757327391443 3.4412092441980513 -0.1369032729186739 -0.07738891960312477 0.7924713299088094
Ni 1.567867575648526 1.106933051750775 2.6416721974201223 -0.9752978477221591 -0.45722570292937387 -1.1116388203794598
Ni 1.6008635531783089 6.627623225537775 4.934993551891942 0.9178105521389677 -0.41560854160921973 -0.8612668514159683
Ni 5.963081354769325 5.676641669987296 9.106966386371043 0.33922903710721575 -0.7923090932993323 0.20840616605466689
Ni 8.616608496928917 2.387378812210186 10.027024349654399 0.004872754711269027 -0.17715466423955295 0.9830042152274812
Ni 2.3516977442096563 5.289574165147206 6.990344708726998 -1.3186697033531547 -0.37191547159664334 0.010327350067937053
Ni 0.6550737732293199 0.09573068357869377 9.181093805142146 -0.23932959510640073 0.03370227734845164 -0.3135612000274664
Ni 1.5408544842683272 1.02553336278189 11.335510383754631 -0.1430106713679924 0.37053504630934897 0.4333188144047892
Ni 4.113162144873177 6.768013811526728 1.4925715117967016 -0.28077989183138746 0.7236223294558957 -0.040570979443826906
Ni 5.591700905330479 7.895643684791951 8.029777469361822 -0.6318542583129634 -0.03641042030823407 -0.3596291980301226
Ni 5.295475957960425 2.9991559521172473 4.757791997415777 -0.6636621468521796 -0.4972387529872017 -0.1380420145088074
Ni 0.8621041599316861 7.4742917194109495 7.073980771705412 -0.6507654933951695 0.002254600362131601 0.35984748468851574
Ni 4.918040539406337 4.4884981470524865 6.763689734624341 -0.1263540366479179 0.34847806650930957 1.084870294036364
Ni 8.205798665275344 7.167524638313467 9.16497785609524 0.4185187732774792 0.427540002939483 -0.09236405285571835
Ni 4.607606237431023 0.3971149692156928 10.212363169916241 0.005349180127055303 -1.1451174117528793 0.7740884565262475
Ni 8.086366201551348 7.089729097627464 4.551959990017469 -0.05422636544373242 0.09256794133640833 0.3455544651046113
Ni 7.289885472517303 6.176798337573508 6.992546843327839 -0.3734699605679568 -0.022263953604522945 -0.19731365568593115
Ni 2.3580050037046996 5.387246583613303 2.70313914431053 -0.8124904533432136 -0.6117346047449529 -0.24133814089599726
Ni 2.371385404204898 5.053808805222495 11.461438423721448 0.0707287339741298 0.6421569257905521 0.307408035941877
Ni 1.0285968888223394 3.284964910949773 3.723673553424063 -0.5051017006750461 1.1366484550499196 -0.3145233068304196
Ni 3.611996315767758 2.5293822545557285 2.5123805860683044 0.9816813826509997 0.501714272260052 0.8966290329653461
Ni 1.0853081620534843 3.2335337149530496 8.321526064564535 0.19838349171134223 0.6701850355723619 -1.160386422096808
Ni 3.4957174817912846 2.4974585111401026 6.8027911393453255 0.18430490213108905 0.5758268351047502 0.4204252462715727
Ni 4.184848654219697 6.846881586326889 6.109387249127558 -0.6051538662036418 0.21570424237797692 -0.11400271417141655
Ni 0.826050963620949 7.253492585230904 11.430513930417254 -0.010678562759768707 -0.12135375521984905 -0.09489350414579141
P 0.16445278096254218 5.570616637875621 8.036621746951015 0.958939975189426 -0.011641698003986402 -0.7489587513381554
P 8.482849543780466 1.6893814350058856 7.874124216431936 -0.608575747400997 -0.5497365657756016 0.7803853452785527
P 1.7388844116712667 3.1812825752219713 10.520451171359399 -0.10121224727496762 -0.4801270330075796 -0.9416696181447524
P 4.042367662226672 6.306709862429981 3.7340390838856305 -0.2965772638749602 -0.26091580591760877 1.0467657738551583
P 6.948320339748597 3.912248898843933 10.322083355054941 0.0996778129083122 0.37848104062930304 -0.2511515274419932
P 6.41849252142356 7.691324518635383 10.197039232454499 -1.2496857199842737 0.32813781229006067 0.27552738518319647
P 2.416950848871231 8.47532588423995 5.770809955285359 -0.09556173385740961 0.5316367708510973 0.33421461461175994
P 6.806785436679829 3.887551472735485 1.5704310261147258 -0.1619332193041082 0.14059280595511917 0.38749018610644875
Ni 5.329021568103347 2.846069753801843 0.3256501149885714 -0.12701018217467802 -0.7900179832723103 0.228486995964942
Ni 1.373252578743617 1.0332282193658424 6.945731660244417 -0.03554781519762265 0.6583553899272855 -0.40871438559254775
Ni 6.967953937519595 0.49519826058603766 9.182095758364785 0.27146967017405504 1.0640551570632253 -0.7282053208408877
Ni 2.7977741668112275 1.655241140396288 9.161022303354775 -0.35939857007655523 0.2420804183786605 0.11712326207826927
Ni 6.321901347442329 1.9962836716639767 2.577777856661194 0.12100357096928192 0.07176103189338609 -0.19333538776447348
Ni 4.215402821287826 6.757859123739709 10.43031412591574 -0.16011596358971134 0.3638861735342636 0.15411757991443134
Ni 8.157674275328164 7.18791510722387 0.19455102327288795 -0.40984130010813935 -0.1490206250074982 0.5246690812840125
Ni 7.637000993641648 3.946893774213134 8.17116189923978 0.22301851665120298 -0.02798517235901632 -0.11359082344497858
Ni 3.064724419753574 8.161629828068628 12.343767261742526 0.3882790005563313 -0.09344674439693584 0.27887701838171974
Ni 9.093536428831957 4.993403280001396 10.174461946573455 -0.06448660971915991 -1.040428518783221 0.4248629703279522
Ni 8.545093184625834 2.4012818142114027 5.727593514262395 0.35404579040507417 0.27548830441514494 0.04342207573937683
Ni 3.631359602417541 2.590130173863701 11.450202491449565 0.27536334880150637 0.03312043670305264 0.029088175615207965
Ni 1.1376674262330495 3.228523948839844 12.668366767506637 -0.6408713742099091 0.49326305616890537 -0.15408955488997333
Ni 3.0287730406318287 8.526225468364949 8.022444829680298 0.6986453477955838 -0.6829356503698109 -0.31180745056115333
Ni 5.740678374603397 7.875928993684588 3.4831056659124107 -1.0693811972618292 0.39737170688621887 0.35745275920409403
Ni 3.022636978180222 8.320338497705327 3.596018225392673 0.7957746832504294 -0.16138968809581236 -0.133606347334957
Ni 3.231326174129785 4.219880975529307 9.188860744691754 0.37207976508864954 -1.088855503936357 0.4704110912713963
Ni 7.214234400059615 6.083171575554946 11.377565387993437 -0.12232666065607964 -0.9167625704904278 0.08059688501746119
Ni 0.5731857221681045 -0.0766413121984104 0.33639317998277124 0.6498519804419647 0.9785826891210179 -0.07459927267312959
Ni 4.707450155237555 0.26713406450477345 1.5556873565265272 -0.4822726185956726 -0.22151982061848946 -0.014859176500019571
Ni 6.123420901504028 5.691725030551155 0.4827558396764591 -0.5223172932223843 -0.6845006808640857 -0.913402395768943
Ni 8.192967897388284 8.948433418963134 11.281586018183223 -0.47003416754795174 -0.8248834276909277 -0.198708993371561
Ni -0.02804838297445676 4.918436995717455 5.703262810241731 0.18672739552965262 -0.27446346269505634 0.18920619608744835
Ni 7.8329315046698085 8.843516662448446 2.490186240942318 0.913730211422007 0.6343073478391462 0.4126057502271539
P 8.469775495884313 1.7198184672548222 3.5884089673304382 -0.25829199514151646 -0.7000324579510977 -0.21390961237139938
P 1.7361272382348623 3.1447725531163786 1.5654987491896022 0.3941930520479211 0.3236286115657975 0.6572773263717583
P 4.711468780572968 1.131657508971344 8.105342042260721 0.36449886741759807 -0.36098931160244285 0.0017681476440163095
P 8.503951831976739 1.7148447426244453 12.369087304466841 0.6664119416831749 -1.2432659325008586 -0.5606701819689699
P 6.404508426085979 7.7322496223875055 1.3846173593166142 -0.7747518011418594 -0.5434191081980061 -0.6455186431739335
P 1.6205962650270866 3.360958377494335 5.961634289233748 0.4917070245356951 -0.565724970784058 0.11810053838987404
P 6.855882946663386 4.027707789086051 5.921807549670834 0.3537089758909457 0.402456577608294 0.537136617623404
P 2.453974462107134 8.322996557063952 10.194573093991936 0.2861686669471265 1.5955944831045101 0.7481426831947632
