# total energy = -381163.70715355244 ev
CRYSTAL
PRIMVEC
9.26164840568504 0.00000000000000 0.00000000000000
0.00000000000000 9.26164840568504 0.00000000000000
0.00000000000000 0.00000000000000 13.55535862349192
PRIMCOORD
 96 1
Ni 8.19619761898871 4.3765085908582915 10.028308191969586 -0.731982785605449 0.7060485822381904 -0.9409507377008569
Ni 5.252002951316418 0.550941194496083 11.535081137369962 -0.10119887753852895 0.5277718885790523 0.5038791411218547
Ni 1.7109598765838252 0.8200263482630991 0.5008736494760301 1.4163986200652123 -0.7651682712184822 -1.0460628342508629
Ni 4.985397140822838 7.9673608106209155 2.7633952509979265 -0.22566546735574686 0.03146490337750065 0.868230427217995
Ni 8.68926925586279 8.805669652801694 8.353719734769813 1.8096383070609288 -1.4949895303962382 -1.288926410652451
Ni 1.6904638487014416 2.231584917411853 3.8077683604903765 0.8214651460379981 0.3480584624733877 0.20058435601740293
Ni 2.7075039814715733 1.0471960599210763 11.733044240836755 -0.20742194776452666 2.2159075735470934 0.3211999475196468
Ni 6.645982911824971 0.8704560237351182 9.385405312135703 -2.8031963865448564 -3.54887312469763 1.0681874340640443
Ni 1.7306130944629114 8.40328807694176 10.12710034299345 -0.13767074721231773 0.3123610090717782 -0.912432575656506
Ni 8.005027934614432 2.1062655530754175 10.245397525522193 3.219138400234095 1.6111727971587413 1.2861154235662173
Ni 2.631836314142575 9.120649052825183 2.4952297789158275 0.5539392910030395 0.4633598408515697 0.3740147773278333
Ni 7.987847576854911 6.390139136758111 13.485751923693797 -2.382198041378633 -0.04227742061197235 -0.3963280961130529
Ni 5.414794945030225 7.823240300057079 5.157989810860702 -1.2523534966244236 2.767300186868879 -1.9407113464510708
Ni 9.125604034712701 4.558740784538264 11.94785613505078 0.6746178745327349 -0.25846091661921294 0.28282623283745484
Ni 0.9360655409148766 6.6453623813829825 4.612807509332204 1.3931167667191362 0.6188146515201859 -0.7336917978767558
Ni 2.44414900956214 7.530748182319368 0.3137781642275809 -2.0764717640145527 0.5599618430480356 1.356346391968322
Ni 7.847079783007487 6.4280563252581 11.118240276046867 -1.1505234132597992 0.8512907140398629 0.2977586857775711
Ni 6.929074456448982 8.596819481654947 6.774602201482009 1.185429481108365 0.547707965381347 -0.7433501469021262
Ni 3.9562057253678047 2.4692295533965254 6.493057352138775 -1.3504125429823903 -2.2218247103624766 0.5414797250834481
Ni 5.899688546377803 4.386909421997883 0.2040517111169841 -0.24517936901895837 0.5705262488274432 -0.25096229424932265
Ni 9.013751107132245 1.7700306700017385 0.9206430440193749 -2.5979922723672546 0.41601914678407703 -0.584624121681406
Ni 4.39138279816923 6.328289848823832 0.19721013145285549 1.5914213255634269 -0.645449737609211 1.6302462688504245
Ni 2.142256318710728 0.42592468606193135 5.28423163537657 -0.5415157205277061 0.6158020899461072 -0.7063704843539834
Ni 5.673519092745717 7.467018779762349 12.012812706019192 0.5311438903750788 1.4074254700323245 0.20668455537786987
P 4.15718349538485 0.4563047451038629 4.63408892499788 1.8560120092294614 1.352670999999264 -0.868844149542594
Ni 8.230706520881961 4.026112647399541 0.37112814337502575 -0.13960190279675957 -0.9128668349804472 0.07695440316886748
P 3.2472172796270264 4.35333594659181 0.338763313083571 1.180022965380813 -0.19418076648390428 0.402586675428255
Ni 2.5747845600732195 3.3521795408068966 8.31096611348167 1.375792930728708 0.047952873730194835 0.5581481868780646
P 8.529200186775018 5.19150586404677 7.140583646847888 0.9157387572116036 0.5728340710250135 -0.26011310751065525
P 4.065919212170659 5.831411674462335 5.194521456761865 0.44141007605335586 1.3698035459144924 -2.288064555327318
P 6.325131626723564 7.976863261866883 9.874753766357852 1.1441475916404424 -0.9005000858849781 2.107175106635681
Ni 1.26755846001396 1.379309509462148 9.910959402235761 -2.484205530861386 -1.029987011734923 -0.905604239880763
Ni 8.31397800153741 9.016696311319592 10.483429298409476 -0.10747596879649232 -0.3870955217711914 1.997845886680533
Ni 4.106355569032153 7.1303856458079915 10.172483346258911 -0.8529107661417892 -0.056145436843316215 -0.1699722875585008
Ni 9.126780264057961 0.9801324639444206 5.339319919987694 -0.3398219334962083 0.6837869426265126 0.4361681109281262
Ni 4.665962887924777 4.286846572815203 2.263826567779749 -0.028109613752022557 1.705215780378779 -0.4427989859810826
Ni 3.8984500860209708 3.4710250129202023 11.611059069919955 0.1299263273802085 -0.7032224256433051 -0.5908171378659954
Ni 8.131986610715524 3.2444573084074375 5.754669655920342 0.9206071410474983 0.5685534413717886 -0.0832626047750824
Ni 0.23858376713120327 3.184988264108845 8.498911818052127 -0.5387114183096916 -0.9863265947324948 -0.9897294497664566
Ni 8.111166425139563 4.769637779978732 2.597138474622213 -0.42114258405357147 1.0146642653349234 0.3959506581689761
Ni 3.098002862449855 7.856322908098594 4.573483476442095 -0.00016429349200616864 -2.80908292723262 -0.4725564197491733
Ni 6.091830703832809 5.542513076299122 4.307784381325688 -1.5196710923033183 -1.1029811447044617 -2.512851733843169
Ni 6.626542711858805 3.3479747524387977 11.791739011330119 1.0651671591804817 -0.8365135557306884 1.803520881309281
Ni 2.647636686292302 4.529612900358374 6.066388955711297 -2.3260045249062005 -0.21758937521583174 0.4091784697131598
Ni 0.42290168402812656 8.556744329080582 12.330184389821271 1.0298312028833492 -0.42384404214513455 0.6295598058518319
Ni 1.2466827045476732 5.2955975302781795 8.446439022945741 0.6739817836106328 -1.9371105164736897 2.468091141798027
Ni 7.991561497858451 1.3450969803173105 7.729631893635913 0.07088634259791662 3.6284084012197964 -2.647861903504188
Ni 9.22439803806624 7.042909376784443 9.459782831844269 0.9908846464168225 -1.5873767231804083 -0.42196328018265394
Ni 5.262737201797973 0.9475870315094022 2.128896390911208 -1.2943838342225966 1.0529024828805156 0.43834249287162574
Ni 7.435343942275792 9.05418746399374 12.91565393567222 -0.008434503920598376 0.30394527420425715 -0.5123426985081757
Ni 0.9619055399170682 3.7490226509308773 1.787504622015156 0.3696742409709504 0.6902782067778113 2.0524921132705036
Ni 1.8391503519205041 0.995590155103796 7.383183264720078 -1.3439691013498918 0.7448686404291818 1.6413495778524376
Ni 6.539501740309489 2.8976826694683484 2.0807339669645426 0.4554074187737125 -1.1251551096983397 -2.515200950801636
Ni -0.1453643499423291 7.906011651699583 1.103054913678072 1.5869136675010604 1.011410020063684 1.0439028504850667
Ni 1.519373418032092 3.3395466524058253 13.248560182315293 0.36009405348168305 -1.15082088989556 -1.7112149353850077
Ni 2.821116622245725 4.708353452596114 3.651637344297134 -1.0816178485373371 1.0789636987439417 -0.1931754651478415
P 1.3016598493781426 2.9124827835921843 6.4845857223583785 -0.9122996496230674 -0.6269876742492814 -1.0185962533994781
Ni 4.175123308312179 3.043377660258125 4.199599066506836 1.298997678845524 -1.9183034110695156 0.047933076235852926
P 6.052579837964965 6.377024642640869 1.8565826265161762 0.7677308897393359 -0.9375908200896885 -0.7184790946920594
Ni 3.070097515857165 6.734589101951841 2.2759176497501294 -0.7608863560136766 -1.0095711670827323 0.9904699274769071
P 3.6619724177331716 4.872266105764855 9.898651597693105 -1.2268211566812741 -0.8675354580334995 1.0813923627900923
P 6.734570578655065 3.421401100857929 4.001798968051672 -0.23305404651033412 -0.012363663771675481 2.4074185065083182
P 8.641451365236152 8.20731159705417 5.114003464172132 -0.7903709957363549 -0.1452868689966788 0.1129274788293668
Ni 7.212592036898834 6.119050688444796 8.571337908445367 -0.42264693651323987 1.2067297852480379 0.7602487224296778
Ni 5.4865171501459855 5.414044751510807 11.259257208235926 0.3038311172238961 -1.7096133952258428 -0.5192119148241833
Ni 4.845833361265839 4.398041923360118 6.554869593479501 2.4050983430155743 -0.1953454762159668 -0.5515417373051404
Ni 0.8686953843765819 5.695469199424998 0.25378027980604057 1.117608150589017 0.05067438642641596 0.44806640502760897
Ni 7.183334489641514 3.7918762980216085 7.900036036159721 -1.0865240275897028 -0.902677296041955 -0.6446562951736381
Ni 5.093480577509425 8.208034005628425 8.2321281839095 1.8360427651963862 -2.9964039904822135 2.2400767145941294
Ni 0.9820496251607121 6.78633393149494 7.07814717040582 -1.5061907984286964 2.9509576852239565 -2.123347602630485
Ni 3.220339976005392 2.4965143695472265 1.686774934148548 -2.055899853400472 0.3487783713585477 2.3846022799447515
Ni 1.6118787621302604 3.3709158554955825 10.548590551807262 0.30079798682452713 2.341177633102213 1.1315394159581287
Ni 2.9650241148966403 8.213859582464403 11.994797873739923 2.158897988931269 -0.5904314723918025 -0.7588538989646803
Ni 8.633625272348391 2.413215103946613 3.1546433993307876 -0.6789090457089211 -0.16749914342765992 1.2596101781868372
Ni 3.3169945385813318 6.675064487762921 7.0042707058750375 0.560182443699274 0.8629630081714685 0.6984023785468424
Ni 3.430690534190975 1.1692090157830377 9.323443032091093 1.7849297485706548 -0.41093941826832453 -0.20704168160697245
Ni 1.1653932166472303 6.54395659318406 11.416797847313804 -0.8969136540853005 -0.559682878355036 0.19081802065925846
Ni 4.942358260764349 5.528138998001128 8.424600982211954 0.3907467453705335 0.32515738950549805 0.9777463092626515
Ni 4.309704321036497 2.1740330343295526 13.485602811154752 1.6915809632041643 -1.1289994231450944 -1.6296909105675867
Ni 6.903882772833941 8.732289612624502 1.5767724839159925 0.3194420842882757 -0.35188015021232305 -0.21181287774337068
Ni 8.09307842583803 6.060822705030179 5.1336715006886395 0.5430223869802197 -1.1596809113893511 2.2361046173202586
Ni 0.5101177007319755 4.251559692457372 4.300844628188648 0.509399813829768 0.5221015776671525 0.373612399683092
Ni 4.685931001849052 8.63284729388381 0.36133395020484016 -0.3084539607078881 1.1702224343506231 -0.37211241809879786
Ni 5.935799713442156 3.2317225418741 9.711154156904621 -2.2393933153738597 0.18829191180329505 -0.6774628001806977
Ni 4.1106622355325175 0.1288786158118986 6.952746303563569 -1.2059417421291039 2.6053373998784166 -4.1154133922941325
Ni 6.258216217121115 1.923209072688924 5.895645836856493 -0.6994177071852341 -0.33900740801471296 0.33748788604639296
Ni 0.03894615763588387 1.578703537604866 12.23070224599251 0.2819669701609531 0.5568875749980859 -1.1660063393867466
Ni 3.1253895567328227 5.663479465893253 12.071033280115099 -0.630753826159933 -0.2634799671003591 -1.0609436080174373
P 6.4412449125624445 1.644100036871703 -0.0048493990958951745 0.06288609800125944 0.14277438698747028 0.0689706136324425
Ni 6.092895793397416 6.355278292226122 6.403944549845088 1.5107871595501272 -1.5322031633320579 3.5518167807069863
P 2.683432957311467 8.43289756683782 8.227302865099414 -0.5307934490141956 -1.1700889940965526 0.4548955121343004
Ni 6.969612691442742 0.3350466135855138 4.143344740363677 0.10862808012306452 -0.4992362430332047 -0.35002664194335203
P 5.384944652276081 1.6830545299911357 8.12779293632549 -1.9614655482792862 1.8401087077356437 -2.7770073868543146
P 0.6661940731997292 0.8022254600615893 2.523004536266247 0.6601302224395211 -1.0844028674816422 0.12099148678442388
P 0.8236708069037308 6.1933105852188355 2.467495772818314 -0.2802538441245883 -0.40574861809600443 -0.4207988275609076
Ni 7.742960331830915 7.169386447169363 3.199715211210417 0.34148286613839895 0.8133887967877668 -0.8201623680661747
