# total energy = -340892.27808822575 ev
CRYSTAL
PRIMVEC
9.06673393186804 0.00000000000000 0.00000000000000
0.00000000000000 9.06673393186804 0.00000000000000
0.00000000000000 0.00000000000000 13.27008158880314
PRIMCOORD
 96 1
Ni 6.376225949437627 2.005117268905419 11.40176060285203 0.15076666116432744 -0.11837178977338969 0.6780906635726838
Ni 4.615529693031144 0.26716854118276245 5.957948501043238 0.10308735281049343 0.13602292719624962 0.0008001273037921704
Ni 2.8135344637063193 1.7444305357883698 4.847919149643661 0.10947191618059857 -0.41849846156250503 1.2608967582087447
Ni 3.486549054432025 4.378398334588486 4.919298825624832 -0.5651549572132009 0.5121346962624277 0.1257750242159963
Ni 5.06581996548263 4.769809237087896 2.794785364672766 0.04309348875536449 -0.6819514320796707 -0.22178078758936
Ni 7.232787501252006 5.949173715974002 2.507275605983461 -0.36495523822872633 2.0329987804325826 -1.0206546785904034
Ni 5.165082568229065 4.617080104528189 11.341208420495247 -0.19973923440828828 -0.6395408283239437 0.11184684417067833
Ni 5.627195861687252 7.711447584079232 12.070253613381384 -0.35069281477244124 0.29467027666023443 0.5717588356829637
Ni 1.7677683088491407 6.496242306083092 0.6182025576015462 0.42109347598319086 0.009953511668286083 -0.8805434402573932
Ni 2.828295106496893 1.5279622639057338 0.4729081468405307 -0.5266130923842608 -0.08764993520950067 0.6511791838938205
Ni 0.5332119006884303 0.24766871658221853 5.060333684799231 0.44964737636148366 0.11412869822631957 -1.354752565118641
Ni 8.73636931769837 2.167611273876335 1.252053391242558 -0.2213514133614252 0.6228492266008757 1.1459681897889489
Ni 6.954964641062363 0.7246233467626956 4.540159747460213 -0.2663922556511477 -0.7649574407592568 2.104823061463736
Ni 0.8998688062917574 7.6056659996580915 2.738865376665924 0.40111908974379307 0.751381501847035 -0.4628157954226416
Ni 7.634235278179649 3.986543162127935 3.6323666157391186 0.34676494047294476 -1.1911751253428904 0.46913145322802435
Ni 7.602873445616632 3.7979188300547886 12.854568709453673 -0.06241918566716992 -0.3086984726185264 -0.5572801824508145
Ni 7.900189783693088 9.113064911076712 6.922975390513407 0.3475820370576014 -0.7449149202860849 0.18856110630428172
Ni 6.821502318041947 0.5509663790130618 0.30670222101060995 0.3015166101581065 0.11494065260465365 -0.7243435238926365
Ni 2.0335868133540678 6.125893426435341 9.091890460724683 -0.38422977018762217 0.7307926219520898 0.7551756787821445
Ni 0.039303384786766066 4.7433253073635315 1.4242116278783825 -0.1087340095733095 -0.616437666647577 0.3217439929485749
Ni 6.372970991967224 2.020947786296292 6.8832313624590595 -0.11116961559799564 0.2591098630571215 0.5419759479935762
Ni 3.61507000747648 4.250974456346032 0.6734144336907321 -0.16383943518788557 0.42464314100766226 0.1193089568756784
Ni 6.499705798433213 5.926017277591248 4.822586695124705 -1.6011964026723198 -0.6028419302410134 -0.4204363020151663
Ni 5.474149393441015 3.025133899484203 9.321475576541669 -0.0868876031221794 -0.2759989255029763 -0.6969977848898318
P 0.2643279334516282 5.33939959420668 12.625513997569886 -0.13464995810812294 0.4994756127375205 -0.45694570979510984
P 3.9987832528940737 5.9422739314754605 12.531455700082537 0.2581878654634844 1.121499001002991 1.506158402528864
P 2.4042076950188433 8.532404071864999 1.3743690716052759 1.383403396086114 -0.28249353208838446 0.7258357921674468
P 6.349660419108155 7.829868195558147 5.978782042200597 -0.40739386700891134 0.936916162620167 -0.9791763568409588
P 4.55883540594917 0.9354421367517164 12.326565647391277 0.7845734152179713 -0.9991299171447502 0.3806338253062477
P 4.055459406508246 5.924203930811079 8.178576594731364 -0.35599674348385785 -0.2640790341369388 -0.5327546865056244
P 4.857058417415711 1.2346080885439454 3.816647982273761 -0.2801144903332466 -1.540634581928863 -0.5156365387680991
P 0.14053981550341324 5.787296248908344 3.425393027597446 0.1705862669934159 -1.27831109703045 0.9257434338327992
Ni 1.5767775592278745 1.049873385314261 2.757032391383044 -0.3782488700138389 0.6866670923877851 -0.5971564498204619
Ni 1.8868054582333138 6.6907237482561825 4.765419124533107 1.0389920434470106 -0.339495403394725 -1.4906986163303682
Ni 6.011652579284714 5.61901766770869 9.177668110140392 -0.05031468909415205 1.3881730495606157 0.3019382710765574
Ni 8.749443547983388 2.3900001229962218 10.377760956070606 -0.16704740060222198 0.37932487668683706 -0.10763974806786623
Ni 2.251913765686377 5.501966133048802 6.773221960019956 0.21397671816390892 -1.3494046705431664 0.9345818580600356
Ni 0.5005553385243725 9.157582574529853 9.113587154949402 0.09478680336459805 0.5123779226214853 -0.05791384159764864
Ni 1.4045912157169573 0.8327387084899127 11.299859580540451 -1.1147318574824867 0.511045576963307 1.2179999588452184
Ni 4.071480325311036 6.958981204180436 1.7156753892218448 0.07756066929429868 -0.9497565089179449 -1.3486719061422
Ni 5.1852651178923415 7.917779247460725 8.061601220636243 0.666342264787504 0.254070243750685 0.41949270715497433
Ni 5.404516877082537 3.0496684814198853 4.719942200633256 0.4722936530060899 0.4076365791473367 0.3386399973729652
Ni 0.8028801404076552 7.394402033034539 6.6574143812512645 -1.2042162747975649 0.8056358923152255 1.6524246047196767
Ni 5.22200352365856 4.297105998433524 7.120287467010341 -0.5323247980570573 0.7346024826164832 -0.24426971272049544
Ni 8.427982497528985 7.250857501916387 9.276079346573535 -1.3669557920530522 0.36235585293266626 0.9602311831970238
Ni 4.603942407105866 0.12851007296377423 10.240906767897886 -0.3732120789208798 -0.2780779195191921 0.3267465883694889
Ni 8.312408840494934 7.461740665716104 4.715046164326801 -0.512397463005511 -0.47817170905342166 -0.4380596715238843
Ni 7.38192620718698 6.28283859025894 7.006417449276259 0.46295797742746075 0.02110464318909914 0.6876713652825835
Ni 2.2263546428198993 5.1267574840301995 2.654175735318316 0.3348753881242103 0.18820783672992103 0.29613631968279963
Ni 2.2764302141542574 5.089175872011204 11.558851741091432 -0.6927431233785359 -0.12528985704946163 0.3061769917482533
Ni 1.045947489535196 3.262074856514944 3.8656146920520458 0.6371967535717994 0.7508631674497197 -0.12166383026110014
Ni 3.630293053695996 2.852086216252706 2.905431251831708 -0.40612322782660376 -0.2607617968382477 -1.3220956983155683
Ni 1.2052318707052125 3.6525790856242693 8.396510957485768 -0.7346970992128186 -0.5235588789389694 -0.4527085317853107
Ni 3.3688991153346803 2.75183533951108 7.5396356966784195 0.2506537618699683 0.8030699313602621 -1.5043015518257836
Ni 4.174052285931277 6.798871750225443 6.045928460123463 0.32893793959385287 0.17882022486743399 -0.5276086235283107
Ni 0.7655768771194152 7.105055354056924 11.403392614954182 0.3778881442403105 0.3156941872100692 0.020250265608603837
P 0.17393803650056 5.791421612833227 8.122816181241179 0.4665552078604158 -1.7335413667963497 -2.3571961200176563
P 8.533510213400902 1.7818670800649523 8.137704664979752 -0.13487390119347095 0.879577219689382 -0.3279431797807513
P 1.9158915405872194 3.0464860578206894 10.639990847297579 -2.0236245383065343 0.4910645058556897 -0.06878677975641058
P 4.098553592738954 6.303565143956268 3.8117646393947666 -1.0728766120095976 0.6685032769945648 1.013413166536642
P 7.039874604043761 4.035267790111067 10.510037350296791 1.0045945398037472 -0.41692057555242396 -0.44823738338783453
P 6.4812731284127985 7.882346451376229 9.98629383982101 -0.45681586908546495 -0.6023467357721497 0.6185022624860896
P 2.4721628656056645 8.631177070980787 5.666033216351514 0.35498115773514993 0.2820538734478046 0.6319478464680343
P 6.5281390759462585 3.7729943785613704 1.5733938541360797 1.2349499564359958 0.9588199046717939 -0.6611103269646034
Ni 5.186516327170659 2.3353186508402355 0.5731689969894471 0.19678195155217723 1.31827221080442 0.1754507941745688
Ni 1.4414112220882827 1.2411905373559575 7.100993457269346 -0.3946928745024751 0.9339858763472495 -0.3793040507512306
Ni 6.754063951287475 0.9463312841666293 9.198780906701895 0.5067634046481853 -0.8673169142647902 -0.2044399823180673
Ni 2.5672547707577102 1.4796093720125358 9.416263746108038 1.100404642226537 -0.4296321095818214 -1.0072486895971429
Ni 6.660359256422258 1.8593695214493617 2.5647614189349786 -0.8739480464280627 0.23254702496692853 -0.704807767852554
Ni 3.931390219809104 6.604127372769227 10.358320065240417 1.017444399183222 0.7255617125704537 0.6916725160221765
Ni 8.138055547581715 7.194262948907323 0.12093844348317989 0.350418478065132 -0.04914483715576697 1.2366448276399153
Ni 7.575228973952961 4.197453526129354 8.166846054410454 1.2052920243602467 -1.9215242319996582 -0.07117404904166452
Ni 2.788845747294323 8.515476479672124 12.476636413571256 1.6739539941510202 -1.4352034114765413 -0.17421640754683546
Ni 0.06740935320599054 4.976603303898332 10.160914601384304 -0.08745118893513326 -1.0736206892644735 0.8333670396819067
Ni 8.575879060919542 2.242466228961698 5.68179754658491 -0.05479895011775078 1.8046236274551566 0.8117211792773569
Ni 3.6213985877392685 2.8303713885601858 11.910999152433241 0.22308176578897065 0.289372775706721 -0.708370802613464
Ni 0.9826616869073089 3.0773220198174576 12.672437065526921 0.5975300311097966 0.734498095828135 -0.3813833018777625
Ni 2.661140800300944 8.463125158128653 8.002137953020952 0.9967475329555028 -0.5069469814139012 -0.033245135206374996
Ni 5.7179538680346935 8.020659477033595 3.3796241548659887 0.3313059256053972 -0.6716477361608175 1.3124969988835395
Ni 3.3260950645887988 8.585925002081677 3.4254855082832343 -0.3137676596113177 -0.3450762399166122 1.6532964658016687
Ni 3.3898523373795295 4.076739030973525 9.558758349440472 0.8161334494124396 0.8926281393360692 -0.42460148913644935
Ni 7.393132690288422 6.0340020783502935 11.469941535112984 -0.26233428353169014 -0.11991650855269025 -0.663523050171154
Ni 0.5620223543317503 9.115331594551924 0.5537335461995992 -0.4290620960109643 -0.7713929119719554 -0.7702752534277444
Ni 4.746806933181456 0.2181655644688741 1.5785428523183687 -0.5984047204052663 0.6006323241842043 -0.49711945380051803
Ni 6.087015271468524 5.615934978182403 0.2749550522568068 -1.0846700051000997 0.5184020173283781 0.5200068999216529
Ni 8.100872871854357 8.71387475089038 11.492447888675045 -0.7538495037715532 0.187759950559225 -1.1655859640198765
Ni 0.10477064359119594 4.89036053103351 5.547769459369083 -0.8334904526336484 0.526317672631029 0.3128885994404741
Ni 7.977529023867283 8.796363895920253 2.430680744662526 0.04281015318699079 0.09794103272286357 0.10230162368440444
P 8.688986566332565 1.7269770730292464 3.5166914112853784 -1.2334594879333982 -1.232623108075032 0.22674841600728046
P 1.711763093543631 3.1170615145048544 1.5972139774403755 1.0543158182882746 0.6326798395380524 0.2889986801967539
P 4.53679417583622 1.1485013166876357 8.269078919182803 1.0278643089649655 -0.5093476204355938 -0.6391471924299509
P 8.57584279398394 1.4633073844588194 12.492215782433076 -1.004154109832219 0.34964560445484943 -0.9011030095762997
P 6.34701293280911 7.742936350916861 1.293603512689953 -0.16474986281729692 -1.1563299926392472 -0.0970491170362135
P 1.7068307903015723 3.438586032096563 6.099938087297397 0.6251925300220716 -0.8900814616548156 -0.4220818080383892
P 7.000361777703886 4.066693089811391 5.9116093307494175 0.6580201180750538 -0.33830498263104963 0.08416891863943568
P 2.3351463828961188 8.179980125139215 10.236779590626222 -0.2109304751384174 0.20506784571005326 -0.4164654902928763
