# total energy = -340894.03822271293 ev
CRYSTAL
PRIMVEC
9.06376306667605 0.00000000000000 0.00000000000000

0.00000000000000 9.06376306667605 0.00000000000000

0.00000000000000 0.00000000000000 13.26573342729660

PRIMCOORD
 96 1
Ni 6.498917545485122 2.0573654585418253 11.454960549155023 -0.36356015765341254 0.8442191519050621 -0.07706573193575114
Ni 4.659009891238393 0.35761530499188054 6.197949853491903 -0.1627341179388488 -0.13484407639680004 -0.5477848413658695
Ni 2.8707928779509397 1.6657474462803108 4.841687317389876 0.34527601463224405 -0.6598219471704829 0.5835817964598208
Ni 3.467868272163157 4.412475534918509 5.074434783658356 -1.1924151683975788 -0.12537881721884214 -0.6192041736491207
Ni 4.9363519783351615 4.4417696172576955 2.72238100819899 0.5156794761908926 0.2599423862607459 -0.5317450142941874
Ni 7.4566310096830675 5.980569997559466 2.6016625602227674 -0.6759641041479842 0.7217968462113827 -0.9000396013087918
Ni 4.978516604276342 4.467827936170183 11.54096297170564 0.876498323653742 0.13385882966539525 -0.5169174623630517
Ni 5.706708395493096 7.987006171242416 12.387873744758762 -0.5557382918849914 0.23193921617960053 0.7574619037131599
Ni 1.8644070059060167 6.491911256608825 0.4085436834744464 0.08858273143641518 0.8521733737551325 -0.8764373885088196
Ni 2.8960898407630276 1.5949594564693443 0.5276061819323 -0.7388324615374308 -0.32224561517534184 0.22127068072216086
Ni 0.5477195786275005 9.166274260656657 4.694994843497995 0.43786555323520715 -0.1930919042950997 0.8541821766550449
Ni 8.629826377820311 2.410571242785558 1.4027315431393954 0.7032275678496276 0.00506558744836547 0.06331624356014257
Ni 6.979577966440993 0.5351127905317165 4.742022178342323 -0.31381548213011756 0.2636290910837137 0.07166590107641851
Ni 0.6962229923867602 7.525542800532335 2.736574861213583 0.2555864232848953 -0.1697943672197398 -0.7562573418820975
Ni 7.495106684042549 3.8539483251705744 3.8491717220168766 0.6453453508208628 -0.8192388278106407 0.05918345233869162
Ni 7.749173027498529 3.952262963516228 12.821039140694346 -0.6856286238209417 -0.1825025588150276 -1.0312260263483466
Ni 7.870437114013371 8.623445488597914 7.078674807542177 0.5224142238115648 0.9270066168159391 -0.45140369693095805
Ni 6.898185373803032 0.9718166795815395 0.37840485841434074 0.013448926416054257 -0.5195847247825697 -0.7231096514855353
Ni 1.9590055013806718 6.740022707708107 9.086297427814916 0.24783737546709575 -1.098679174894998 0.3844123185120734
Ni 0.34052648604314867 4.776304049515437 1.089140748276814 -0.17601360865657426 0.15852573628445601 0.9588134769138905
Ni 6.529208641765306 1.821336003654837 6.931584434450206 0.4488387644172593 0.494705959263019 0.49921978797297245
Ni 3.155322529186005 4.281712624674872 0.2995483066917581 -0.601651509477338 -0.21389881373812195 0.5234591201363114
Ni 5.758562184188172 5.2764606248994 4.869957194498763 1.1044631285666269 1.1704309508170037 0.002850067854285414
Ni 5.073595479195296 2.921268974654816 9.568480560971588 0.42125828369582935 -0.365364557852003 -0.46066815295201957
P 0.06557541965215893 5.831144799092938 12.365268719587371 0.801632170472471 -0.6285077104382337 0.18080125985320475
P 3.9654144837743215 6.000764061746257 12.68125869254252 -0.6221498865410059 2.0120345194760896 -0.5980205975929701
P 2.3623882781459806 8.581018013526835 1.4287064754313632 0.2985336162703826 -0.698047823420901 0.4991992191476822
P 6.5280212887992075 7.591137254087004 5.836617499252715 -1.6058580698140474 -0.1237767628390449 -0.3456066584987854
P 4.792201889992829 1.1735941737136442 12.788432252942112 0.7766644447835398 -0.6589616560527168 -0.48230501449550484
P 4.008639569998201 6.368426548134483 8.193911942536499 -1.486348052671156 0.11970387832125193 0.3312064239130554
P 4.831121688744211 0.9185308163166648 3.9968195165394964 0.3606509544264176 -0.04280475387035208 -0.8995606047898442
P 0.22022315841690565 5.4331005787935265 3.5809921930378934 0.18969881945315073 0.8874064859258137 -0.31934592503004355
Ni 1.716006012669787 1.059798627993198 2.888653023139481 -0.9673973619281597 0.6332789065746319 -1.9872274877347387
Ni 1.8087464367089432 6.499470435034221 4.83399308889429 -0.025698176097052515 -0.3321975841817311 0.4416730999067554
Ni 5.857891964001025 5.411003124355736 8.984085371336263 0.224774065889729 0.7070346003005435 2.1531209772381756
Ni 8.638998906077507 2.3154833041035032 10.124593184229683 0.368209740610282 0.4393171980800692 0.08052000903293875
Ni 2.1334194947138894 5.340441728622269 7.075265926240268 0.19170839368401177 -0.681945775652716 -0.6123521837242938
Ni 0.6594839350372376 -0.039405616453541334 9.060085024929727 -0.018187983762936417 0.32501237928720156 -0.006750174239639988
Ni 1.4529302886924116 1.1530284952397536 11.209996036604059 -0.4493766391986002 0.10963106746628215 0.6174486244105947
Ni 4.155472532218131 6.7570353910467995 1.6128739842364859 -0.16521060450379932 1.1847116291057338 -0.0984501111487982
Ni 5.647322619661924 7.849327609753481 7.961827943726938 -0.1910756451960193 0.2685237001718537 0.6861132767668442
Ni 5.243948906659716 2.855765158731147 5.0884437359057095 0.41800609530711885 -0.6237318863161452 -0.4660420156694232
Ni 0.7748103503452729 7.425596684828682 7.021579444646373 0.2845758685387099 -0.15603845108622805 -0.6341764786882369
Ni 4.801727905010925 4.789509952352131 7.031873160399038 0.33669932870682656 -1.266534416110496 -0.4865964427820071
Ni 8.16995822941583 7.168919977599903 9.021853165797635 -0.1694578098159275 0.4370566841806667 1.0385492994826373
Ni 4.743946415248453 0.45655262386250367 10.652636239543403 -0.07650805966006824 -0.6345675434790684 -0.5433867122981738
Ni 8.283092120429975 7.292196219522945 4.670864386996877 -0.3733887137080602 -1.0154111708032771 0.21366201513696753
Ni 7.19619284076779 5.9416048799925845 7.143172545761746 0.632635359453362 -0.5462426936897302 -1.2495918747188868
Ni 2.192823398071261 5.469582225271009 2.5549932440208893 0.5089172177663944 -0.9620314696305559 0.307817869785786
Ni 2.2176399814390493 5.1896025831121415 11.177680095647334 0.4891271796236608 2.0134540255314355 1.762893851816538
Ni 1.298003386024185 3.4352387250031726 3.8260364667041373 -0.8457674702287886 -0.024691846319725215 0.612950736540241
Ni 3.771549654828513 2.414196748025556 2.623020411591597 0.9604751808870298 -0.23748714258102324 0.770288366053867
Ni 1.1485781875576557 3.307702514423133 8.268823944557962 -0.20460736113386696 -0.09591114677702837 -0.1376722898742145
Ni 3.67323501648286 2.6926446142205243 7.103044547389135 0.09686245494670415 -0.40994620111711977 0.5252241824565342
Ni 4.212592367274304 6.90316137974493 5.97471390022056 -0.41327089461497857 0.6528110630702886 -0.16062581334659434
Ni 0.8308561294740964 7.549570836510423 11.048485216419996 -1.925675792274187 -1.0105566709244531 1.7745761732504728
P 0.17755549362367587 5.539998600794876 8.163612688869522 0.7937512250624975 -0.3408400903480775 -1.3115534040233476
P 8.63243674159311 1.4965994993081908 7.948708146639694 -0.590242496309448 1.0661989428791057 -0.04797267122453673
P 1.863799733778317 3.366816377361305 10.371641455917336 -0.7405481586769569 -2.21801304992587 -0.30463047319673986
P 3.9747864148197167 6.137581565740692 3.7355248220112705 -0.5137017836392314 -0.2961962263864576 0.6365357229490327
P 6.893100602703933 4.011512782900899 10.298878472126882 -0.3434248203561182 -0.31170537776565027 1.593176874801953
P 6.450471731715644 7.737689239650834 10.186371793519253 -1.2577152751569693 0.36569905837328637 0.26004625882846183
P 2.3816125196810716 8.524016007390962 5.809728033263957 0.19643151019129396 -0.03791965786390889 -0.28572669431370146
P 6.9644142907747 3.9840495807079126 1.663071823413192 -0.5015731186964975 0.24744836755879318 -0.42587084276717624
Ni 5.178599174708746 3.129590505745117 0.5324163210094678 0.8448480437383127 -0.6902602090556822 -0.15953155184115106
Ni 1.4432592534647162 1.2234358070005202 6.939318543503433 0.19910082949334099 -1.2626319957322965 0.23746657375573296
Ni 6.98771722570479 0.6538363042496302 9.076109758090519 -1.006253672673725 -0.20964312378556155 1.2723260830916088
Ni 2.900757678759526 1.5275613140577762 9.43534566392468 0.1805652325829987 0.40497960114046383 -1.2918163306057364
Ni 6.332914724308699 1.9507937320120758 2.5468222615862435 0.4485019499031308 0.7587662243468803 0.9337861016316175
Ni 4.11731408956715 6.834249588895662 10.544480167223774 0.4347905138543093 0.39087992851428816 -0.16364763089205364
Ni 8.494876009024475 7.421998370877983 0.43797100313120246 -1.318193792158001 -0.4434805854291395 0.15207175312899615
Ni 7.797582586215606 3.7438326672687263 8.340763938658938 -0.5661456032612444 0.02946098557359442 -1.3902343029650186
Ni 3.1139283231083246 8.38092637933133 12.606519808396268 1.0692392723673263 -0.19341971994816365 -0.6912207731967386
Ni -0.07118770176367627 4.947310067923056 10.239740137028338 -0.14865681391017624 -0.23519397567147238 0.7958348470644035
Ni 8.678997292637789 2.23714519963024 5.55117875257872 -0.13637491121902964 0.7050021432515471 0.597414588577855
Ni 3.5198489535416324 2.612693159915462 11.719041444460188 -0.12476740888708834 0.1502400992368961 -0.8334156335316549
Ni 1.099806078316579 3.2614863863762547 12.49710387300574 0.105241937259651 0.11049264413562908 0.1765831080067991
Ni 3.0111633770805737 8.557071551416646 7.898484022549997 1.0203026945676235 -0.017274985030363794 0.4356754875624239
Ni 5.496918534780596 7.742973413538131 3.9042513039992404 0.23373076086238456 0.4662582454452873 -0.8067813187735782
Ni 2.984171490568786 8.172622975767228 3.626586546936112 1.0197547924839534 0.5928837905870369 -0.3078091280350377
Ni 3.258948532708256 4.353896434003237 9.068229722451383 0.7916418920289785 0.5302635446526545 -0.2605915898089705
Ni 7.052713470894858 6.170192985374476 11.601944876218724 0.8093742763117351 -0.883096288586234 -1.031276419970308
Ni 0.8859755920141001 0.10101201424421213 -0.039024032027031516 -0.9674500695429661 0.33579712860753136 0.4751162100565494
Ni 4.882567608099787 0.2597447910381269 1.5964776367885936 -1.1033727237159254 -0.47767342926076445 0.45132219296074527
Ni 5.891998904546308 5.63506841195073 0.3869084809547567 0.7931781261678469 -0.008596740530075517 0.5090493724688846
Ni 7.827828363680291 8.984210451267042 11.39928457156068 0.8083226951187693 -0.460978999324219 0.03531821568531982
Ni -0.01825532525970135 4.8544246236743005 5.633068039434561 0.19131398645907052 -0.3867815900751984 1.1381180976169107
Ni 7.825054852171693 8.930353570926869 2.370572856225277 0.18537268127397108 -0.3640054727209473 0.5661839126983474
P 8.622249071868715 1.6199663788622325 3.432336508058554 -0.5471117265582448 0.1386588221571999 0.6520083646633352
P 1.9712778366180659 3.2046203366868817 1.8126964246679211 -0.8986558335873879 0.23085575330743466 -1.185835972518164
P 4.852892847710401 1.0828840326088869 8.366631918546327 -0.07452676756398133 -0.17533972251800126 -0.7262134872218396
P 8.57046779327844 1.771095564791561 12.319462273632613 -0.336522179699014 -0.28314402118818977 0.9913610718326088
P 6.342069125039695 7.7328854452078355 1.2890502008340092 0.5266953676854219 -0.9631861520602896 0.2132077012083683
P 1.755931889125268 3.122321367738921 6.0690595167047245 0.20813157223704154 1.9224747688383859 -0.6690298389219962
P 6.982288031607892 3.8765352228157637 6.16206550900271 -0.329538035071697 -0.02415731397249388 -0.3878257150689966
P 2.4749511520848277 8.502172338319971 10.312303718030595 2.0853245864194925 0.937747914492843 -0.2975121169844037
