# total energy = -340886.9528666626 ev
CRYSTAL
PRIMVEC
9.13625944532127 0.00000000000000 0.00000000000000

0.00000000000000 9.13625944532127 0.00000000000000

0.00000000000000 0.00000000000000 13.37183920549011

PRIMCOORD
 96 1
Ni 6.918770411048201 1.9774062857479624 11.299096951327744 -1.5057208007708134 1.0286528663045316 0.23257942086676076
Ni 4.921620668911478 0.5554799984768325 6.151259760795434 -1.0257459770703818 -0.45545652684409305 -1.2290788423671994
Ni 2.6773807934873766 2.032278659218992 4.2198718996122775 0.3623825924055436 -0.8333513559526228 1.3922343641141828
Ni 3.425603886691411 4.621138236162778 4.901647892413806 -0.05585258819324575 0.5351329569298139 -1.7316166389698113
Ni 4.146390793159931 3.1304753019037546 2.5607208118666263 -1.7665813279704545 -1.5653038025407686 -0.09630041179564706
Ni 5.395399668426491 4.82431037090283 2.556642385706542 1.775941686139432 1.3793240838104182 0.22551197249701807
Ni 5.854487562956255 3.250909472249261 0.6386400580519248 -1.293205240533463 0.012101925469856577 -2.1055792229034704
Ni 6.13358201263874 7.931561301617216 12.528584381307002 -1.4893760408642027 -0.5184313279044168 -0.1399045216388429
Ni 2.116460152585969 6.7483517659674295 0.24640674109030286 1.382369555504961 -1.1347273267678069 -2.5930048464549924
Ni 0.8567846945642585 8.999644833585942 13.237839501262846 0.9307974513169389 1.3630232897678654 0.342532647559152
Ni 8.219061109873351 9.016108372879113 6.932416327967337 -0.992393369751865 0.41059874709945415 0.03572522131575138
Ni 8.940478418234894 2.5987084644898686 0.8890000585496394 0.36849461884055246 -0.22066261482451674 0.5093116249913359
Ni 6.986780725420219 1.0278474459270326 4.841809048376867 -0.4182138404425507 -0.7217433672656279 -0.9139536402867228
Ni 1.2827856259695911 7.745528789359955 1.9693910454472408 -2.5964686366338765 -0.4133919935738752 2.890600781402454
Ni 7.613811338755255 4.307609225106281 3.844296724267327 -0.3562733941840122 -0.7474608266363901 -1.1437791525574303
Ni 8.347169738046974 4.101769302645027 12.31684060807369 -0.003404397695858653 -0.15050672263472145 -0.646209498593371
Ni 8.568459075016971 7.49583482216661 9.300515557355705 -0.406799427958022 -0.7541053285361012 -0.9274169648804802
Ni 6.942890135650851 0.9428071441840518 0.046943927633840095 1.1431947408088698 0.5114610672341707 0.6664067994768523
Ni 1.8526872097817582 6.88680263969037 9.033091765327548 1.9134900488412725 -0.23696700841149515 -0.24538557149249354
Ni 0.35996861717591755 5.12961674857206 1.2811758170775505 -0.23830063962125408 -0.4067868295525317 0.08877864949730517
Ni 6.440770459727723 2.0941768161064753 6.990383152469774 1.522873915511332 1.1228637425610017 0.9215890453447935
Ni 3.666929040348383 4.435507719315563 0.42891265725035693 0.15034397180461204 0.7776118962984737 0.1307429097442329
Ni 6.257113374893451 5.979763950740931 4.9090162855547295 -1.0809388201924417 -0.5695343172278191 -0.4923084055651199
Ni 5.527363798032811 3.267647099322009 9.34416129537532 0.32515661817454966 -1.2323104619306195 0.08042847776039697
P 0.6020109671894455 5.973505613107288 12.113294800327482 2.1035681060107128 -1.422594464463279 0.9541574661991181
P 4.157856798605509 6.377072459754359 12.454824618945421 0.08591418346531655 -0.022301748820993852 -0.688644270718814
P 2.8463285008177595 8.839129893607167 1.2870687043384252 0.24730464289207732 1.1802777617040963 -2.2864912973029266
P 6.359147118970117 7.9868630792762465 5.7219167857311435 0.8732831591505541 0.8653520772289355 1.0435572942201898
P 5.010781423607411 1.5243848674061384 12.543239854880909 0.3454685902590244 -0.7645437502606058 -0.15014316864771562
P 4.101668803792516 6.497890352991272 8.107185787258059 -0.1389555274620123 -0.5833678806768017 0.09910625667555835
P 4.788222146592046 1.4433919285415568 3.7689600435472532 0.737707089683736 -1.5946118074762665 -0.3846689146075698
P 0.23238258303535278 6.1635489432056705 3.4171601558286198 -1.4530288696937361 -1.1631328744936935 -1.3618143570614287
Ni 0.4650511309873961 0.43500380133845806 4.9170123397108805 0.8719222742472854 -0.14142944292380158 -0.38312805248301113
Ni 1.8565335749551353 6.767163323905633 4.419098997578305 1.8362649085095215 1.5926955642901601 1.9995464143114081
Ni 6.132449116483162 5.846941012758608 9.197325162849232 -0.3263303267676767 0.3240518151461451 -0.2558311923058498
Ni 8.821286779156798 2.359329334067884 10.138728977601858 1.6826036994062183 1.5814690994467215 0.2875141252314274
Ni 2.453779982909625 5.622718936547152 6.701524782452874 -1.4109339974062152 -0.022499723764412862 1.369296781481403
Ni 0.7851354081054084 0.2576050541378288 9.098520172815965 0.9439100774394968 0.38777660699861605 0.09207968884608013
Ni 2.0486234271410155 1.4347855722628837 11.558871867053881 -0.570248055465392 -0.2921631939676646 -0.6077342253363082
Ni 4.608786013563239 6.5943966601798305 1.1175408445412747 0.41568978846911636 1.3884401871790732 0.8306275292635565
Ni 5.828376133822023 8.256729907046354 8.033987904844606 -0.6206067104236022 -0.47582094943305797 -0.04118958686443229
Ni 5.276683114832993 3.2334774894682545 4.8363939874783854 1.4319872185320885 -0.0687502700915203 0.22936348503262433
Ni 1.2374606434871107 8.052881689116683 7.001522079831726 -1.5902807842010804 -0.9346805884214291 -1.291601386381453
Ni 4.929285990480274 4.901703623595653 6.813994875549846 1.2089388770842147 0.026722760706824947 0.2564163753853584
Ni 1.3589728924322806 7.843341581631158 11.12785695653418 -1.603596270363064 -0.330333791500115 1.3228382329085475
Ni 4.978521291951367 0.4412438664534619 10.39495993833808 0.6057495908061116 1.2003030557860876 0.13787592124458836
Ni 8.334141432257816 7.429149265395873 4.904068087507458 0.2618617147706458 0.26912842363538814 0.059893591031838785
Ni 7.400324367243842 6.411561838684286 7.053458059557569 0.7364683321806283 -0.2855379753416631 0.25859872774865783
Ni 2.487794276354954 5.538500898142899 2.505722358016992 0.7262584815271621 -0.8596588834989001 -0.5846716870898898
Ni 2.6316081342982565 5.557632225157273 11.096647494699841 -0.35720079109428804 0.1833422811075036 0.5618914559705808
Ni 1.029647289012912 3.7660848627395054 3.6152242079833155 -0.28717756782761505 -0.30899209259954524 -0.5314357105838847
Ni 1.4381203069143866 1.2236192106185442 2.242109299750867 -0.27358825917895463 0.17581743348536816 0.09750625917829014
Ni 1.450490802032564 3.4595724988401435 8.275790884863971 -1.4655491136479342 0.31269242426926797 -1.0522375956030072
Ni 3.7945625830374072 2.729420926569459 6.7335236170923904 -0.3827056202336119 0.21577289083238324 0.6182222693518256
Ni 4.207558049301879 7.256812005858072 5.93780567981757 0.030529793157740966 0.004233321355057226 -1.065571850818068
Ni 8.60167851390153 7.236319376205139 0.26310965037763817 1.647260544020234 0.7958543874484293 0.718144594170776
P 0.4271877314908946 5.929770339746345 7.760828369215864 -0.6696258206347823 0.11067827778387389 -0.9584828330473494
P 8.560784617188855 1.7498312023663654 8.142941451729623 0.7754246588391678 0.5394177003480968 -2.3357937430824802
P 2.0264405895140323 3.662461409541301 10.273811312513814 0.6547766714370917 -1.222436140239701 0.9185291754725472
P 4.248570717385704 6.445329453127996 3.505695076761189 -0.2851497387643089 0.07318645148600299 0.7254591255543184
P 7.204397286143903 4.259744362533068 10.22124675814681 1.0905035810627413 -0.8535394008647236 1.4149102084451437
P 6.60898726631257 7.778044736276938 10.265707450497695 -1.1611533821698197 0.046019404152907846 -0.19221644366868185
P 2.6766133477045653 9.036518776198175 5.637420091417654 -0.6522413066097476 0.08483509146852486 -0.607743995528321
P 7.49559727942431 4.047399423436553 1.6369938316447619 -0.01605653924223041 0.6221871675368446 0.4738936505033581
Ni 3.2487259062719755 1.9362565737743502 0.5195279044299048 0.37711938439508597 -1.4894557450622026 -0.710678624811034
Ni 1.57867252028074 1.556498818913076 6.862428013452714 -0.557905217629323 -1.1683514425801556 0.09484413896509472
Ni 7.324137100781153 0.47111121179381193 9.320132019739932 -0.7257172643117115 1.240069279940432 -0.29877555707785963
Ni 2.9738341358763156 1.7327829424767647 9.230045761974962 -0.2424740542726534 0.5920864914967222 -0.17206876507621335
Ni 6.539259335188546 1.9734594217220742 2.4133090950034286 0.6880143504442989 -0.4799753379210636 1.1719682133971365
Ni 4.312186491025194 7.306540665332401 10.217996990706974 0.16262124651006832 -0.9987758762394412 0.09641893965138233
Ni 7.87382927897928 6.5323066418466444 11.575693547712365 -1.6074500968915153 -1.149665179024562 -1.845405437358209
Ni 7.971431937286141 4.147094285127507 8.14061536010696 0.09228794820214427 -0.779460005250806 -0.36334007122280654
Ni 3.5118775834424816 8.740376066626089 12.367359553979128 0.7189349512825554 -0.3102964132332656 0.9879317344360858
Ni 0.21087126046832996 5.214236782386358 9.826375803119738 0.11825531880018345 -0.8131635681508383 1.4434659085956496
Ni 8.572086169966688 2.6780020591210816 5.550716990478581 1.2214755760986449 -0.6345901691868877 0.2506815297841102
Ni 4.086913744992032 3.2866596549652347 11.737747033760492 0.020548513575312996 -0.19848890694095495 -1.1527098793881567
Ni 1.8070424582231062 3.5060577862561604 12.519798954345672 -1.6240751070427062 1.2134156819086457 0.496697535771751
Ni 3.257999209480949 8.575941671399384 7.788868462692377 1.4408878634558282 0.8501116061300973 1.5429076942337556
Ni 5.606118353364192 8.234848565976906 3.614221046710069 1.1034262026616803 0.12781056658878634 -0.13131780841109644
Ni 3.343761275710145 8.703739666756155 3.310425806332232 -0.4605128583210778 0.22891534175161224 1.6235734848159393
Ni 3.6181779606212077 4.347927537481849 8.866826463733279 -0.5944704183478665 1.3185550321521613 -0.0806922729447449
Ni 5.852020772940075 5.03165777615175 11.818352595229939 -0.3653563303218869 -0.10848332701508415 -0.20782535385053238
Ni 8.329801709081202 8.861084324751172 2.873032873181807 -0.3155142099887792 -1.580188432962085 -0.5872363624932725
Ni 4.971586871128104 0.1714738830321373 1.2515898685242313 0.027842990354197208 -0.15953335161336396 0.03189273494353862
Ni 6.987511626165754 5.74099694969333 0.4483281219295585 -1.472345310634161 -1.1007208879153754 -0.3935973274454512
Ni 8.155500153789777 8.90080878027099 11.422639277093639 0.872805191072871 0.4940364439998201 0.795363820965256
Ni 9.119128832962254 5.0596786834836935 5.427081474867633 1.0252425550714022 0.8332251147874037 2.005800879861552
Ni 7.248635053767401 6.513230132388184 2.614996587604113 0.6428596082845316 0.5281058748797034 0.6591164364630261
P 8.616433572702016 1.6941365655566092 3.2427909922182323 0.21399163056224438 1.8002568658460283 1.1962186013040688
P 2.0550827624796795 3.330413200844815 1.6086458462291926 -0.6323391683691819 1.2266946584057392 0.21667714781420747
P 4.830806251278771 1.3440442447047312 8.265896316021294 0.7549620201094417 -0.331725529641319 -0.15956549040288
P 9.021900761287478 1.6108869706401887 12.317456391951804 -0.1370500829091833 0.5895135885632234 -0.29257842712821225
P 7.030077458333841 8.249073721736876 1.1853108752931985 -1.5149844854609262 -0.20953359479089073 1.1445144880615579
P 1.7949460508845043 3.429642113310491 5.821163057089526 -0.39728223249620614 0.7775630453384093 -0.3934859986785675
P 7.082355134158221 4.131334237801912 6.159349918422572 -1.5479514273052501 1.0747080087913814 -0.9852477598460194
P 2.8302121393787156 8.917171820711651 10.201977473616715 0.01941594263276656 0.8034507117384485 -0.925480924200032
