# total energy = -340891.5901497471 ev
CRYSTAL
PRIMVEC
9.05769409619443 0.00000000000000 0.00000000000000

0.00000000000000 9.05769409619443 0.00000000000000

0.00000000000000 0.00000000000000 13.25685087553275

PRIMCOORD
 96 1
Ni 6.697784265148999 2.0622648200078832 11.567622630128293 -0.6062563552392011 0.20698331756521127 -0.9070908517286185
Ni 4.440878659492998 0.4025048987180675 6.206830984847151 -0.411138164542692 -0.2827550132798872 -1.9567311189180945
Ni 2.4889908981620175 1.4550551318754152 4.783350068369882 1.3547715912820346 0.71700868079412 1.323956662783707
Ni 3.289328737050184 4.320375098961443 4.797787126783235 -0.45412032453117274 -0.47209696361425146 -0.08340324411800475
Ni 4.9923472989550515 4.2189832726994 2.9347490028787573 1.2440863715196253 1.165690865028857 -0.4818283319694024
Ni 6.980855316992968 5.99731655993649 2.668524356043256 0.993169071575625 -0.08558791047414938 0.9287372263538006
Ni 5.294140604227967 4.683298780814895 11.485549959327598 -0.8180062409551201 -0.37631231511275837 0.36299091541350387
Ni 6.105411079733812 7.7360496091516335 12.358632855769661 -1.7193866725625226 1.1340079321032792 0.5461766163384852
Ni 1.9744323616138302 6.708173440128682 0.321840699329176 0.6481617372237354 0.0562217986072064 -1.2182056470981213
Ni 2.7457674644209655 1.794791117174389 0.4162318339244393 0.14416843912151944 -1.0355171975245328 0.021265594246995635
Ni 0.22984260747988652 9.019343690338545 4.67205908837175 0.5572315886010661 -1.0996191702107645 0.23428329093174488
Ni 8.91287955545521 2.365262798578356 1.484979035432849 -0.14929676148702029 1.0763041496339076 0.03044237565025725
Ni 6.854292159197763 0.8925007807676477 4.774520628291247 -0.7770411113966683 -0.8515442248115657 -0.13871538642674822
Ni 0.8966972103823703 7.576280945274899 2.226673740503705 -0.9338177262005015 0.4224296782961112 1.5681124756341573
Ni 7.571471309778637 3.6510115148302127 4.0061935856504185 -0.5677723402313899 0.5944264524838085 -0.26869596408365987
Ni 7.874822538413807 3.9029784455929 12.510105577742396 0.07227705229785616 0.03221335150775097 0.6024817186881172
Ni 7.93513772253735 8.872744913489235 6.823301259291064 -0.6916177515248412 -0.5474824796341022 0.2512276320955673
Ni 7.130669575200417 0.8777512319124475 0.40989235391722084 -1.0645007292410764 -0.7916321218369656 0.2260380202038172
Ni 1.8713920350498672 6.340974526722999 9.226369966716582 0.3336751971685221 0.6594704773683352 0.2377987602841711
Ni -0.04483558513463585 5.058839830363812 1.3437007480195164 -0.1819824246454995 -1.2908197710204221 0.7124933094222696
Ni 6.371997128558579 1.7317676825548345 6.908807701874497 0.7636094113717946 1.4911105070568063 1.2818450783256377
Ni 3.3060945285823475 4.409856057657416 0.4410861461687708 0.2681694021562284 -0.6287625067615171 1.160960292322407
Ni 5.906332024042062 5.662344921663943 4.960859131649587 -0.5139205845182567 -0.09860052068373341 -1.707056947352576
Ni 5.4989169494247045 2.7677776607597866 9.543778736387905 -1.0617799878758036 -0.5181222813044303 -0.9376959782089851
P 0.3993482923707098 5.623088876012729 12.506857488685975 -0.2930823633478243 -0.381630127781246 -0.9235225149220805
P 4.107899713893102 6.055294859016652 12.670248324379951 0.3949258164488876 1.8012822217867492 -0.7499128877213085
P 2.51947909605357 8.677922973961785 1.2376215651297613 0.829366660273262 0.5624074763750507 0.37005142180471107
P 5.999109983341874 7.777823693725561 5.903010567664512 1.8708421322637585 0.12709245747583917 -0.2387809216917823
P 4.873854546484081 1.149430422054631 12.451934349780744 0.20968657542898725 -0.45795872444065644 1.3886371336812278
P 3.9213021604873175 6.250279837035501 8.212619271434534 -0.9133784845095431 0.4167277428153275 -0.2736381385802836
P 4.6857262427979425 1.183396774429355 3.876634142691064 -0.2724860272537114 -1.264466477837874 0.07507466964765135
P 0.10726211772179214 5.757124631330374 3.54053391575028 -0.77247380374096 -0.2421380110894733 0.18568095654300926
Ni 1.5147453351152638 1.0706194268513043 2.8344739902827945 -0.8282564579282187 -0.10190824490072772 -2.346254533404488
Ni 1.8562838015135898 6.548404776251947 4.725603646255265 -0.9891753770351996 0.10292485909070015 0.09113095177956564
Ni 5.739344378073951 5.506824316257539 9.165428895939948 0.16373864794396314 0.6443865864520193 -0.22609432736304932
Ni 8.934853521018164 2.1995613451535014 10.179392447030212 -0.4294439048304152 0.4996136809772815 0.5316532259113295
Ni 2.3459065065717466 5.303696471362723 6.872921118378854 -0.3867839040680436 -0.3715056377527344 0.8065900286983787
Ni 0.3966608745708216 8.88033526103324 9.040442682664326 0.34938180927050155 -0.6630196281721742 0.8924700164916501
Ni 1.7345665099905117 1.2027530664359645 11.413406332653079 -1.067553142914155 0.1190724153848401 0.6773373303464271
Ni 4.313192347645934 6.521965367563461 1.555214205988605 0.03204802957448029 0.9207665494434982 0.6246078611631952
Ni 5.623288145279994 7.726222011197881 8.240193609177032 -1.008776953316211 0.9814271005483485 -1.2832049347876417
Ni 5.119734706901217 2.9745919870990067 5.100069547530347 0.43064409578610346 -0.9957746275192723 -0.09402087173285097
Ni 0.6171967015000337 7.280058121791438 6.806742888950735 0.22940873644826296 0.2211421255640966 0.20819713536765433
Ni 4.926823940800718 4.873809258014248 6.8249714980585034 -1.0110809188590393 -0.849839326305317 0.9828612618917136
Ni 8.124235199477914 6.811811574494441 9.144005638170162 -0.25116823961254164 0.5646571916411759 0.14485800898937634
Ni 4.830966365552262 0.4904089128944568 10.398249883267415 -0.5858235413061459 -0.2536591243551954 -0.437501227917253
Ni 7.910129429495586 6.962549717486483 4.902436099795666 0.43617865245108756 0.8201438561234133 -0.29759979160220357
Ni 7.080091412090962 6.0604758599655435 7.108163923001624 0.7588245883886415 0.12893593844248116 -0.716930776368333
Ni 2.1389472571290606 5.6645821720736915 2.4475193405665747 -0.01688417734984834 -1.1219278610102938 0.42840955002862996
Ni 2.488157590317091 5.326612437098204 11.385553017936408 -0.5156496513942216 -0.05257263189039333 0.37004216583333044
Ni 0.9843358341255385 3.304129008991597 3.9350309072324827 0.14506395435259534 0.805011114247033 -1.218905244268307
Ni 3.6180505664857807 2.4648521437410467 2.4832736817303043 -0.24353437721636767 -0.16973626028829478 0.23651218026226364
Ni 1.1499195375288271 3.189041949452065 8.310573702836255 -0.2396697520546389 1.251226324998516 -1.2130901802484269
Ni 3.7247230283303474 2.854586599735615 7.527823188323022 -0.44898068931176227 -0.38466865749725365 -1.3925431536038533
Ni 3.968374996031702 7.082310547112777 5.941269361210004 -0.47838073974043416 -0.3925542308929175 -0.12658235060864007
Ni 0.3961581725556757 7.313091531687603 11.121013102178695 1.8644429136056342 0.1249756682431525 0.17280075814623144
P 0.3078230121464765 5.48829227440189 8.020739270907432 -0.3291305152206332 -0.9990954643623889 -0.6629383813122777
P 8.505292384652487 1.621544604675363 8.107664148366032 -0.7827453608702971 0.4396393573061783 -0.5796819471847823
P 1.9862345368523011 3.3782934071900614 10.31340555811294 -1.1335168513994738 -0.8406373480910747 0.8039687890254475
P 3.7751290952544383 6.039126875286283 3.748865405828905 2.1369225131014424 1.5861641909295456 -0.08517242020328558
P 6.90991545784661 4.173984649073366 10.221482645123574 2.216680961378008 -0.7538726437000048 2.4778711040029258
P 6.490752554154582 7.890193445075115 10.166281435013568 -0.13964998242587562 -1.2250681785459094 1.6606462212985207
P 2.1717813977579605 8.560797933279769 5.633472616376031 0.5158219153060277 -0.5662754439708892 1.0237299750816176
P 6.900740013858452 3.7430195701428657 1.458200868990013 0.37599452676202344 -0.20395507226184875 1.0569612263309216
Ni 5.243843229631476 3.0860740844398347 0.14398834944813718 0.621352330340375 -0.46003360469181415 0.785218505001138
Ni 1.2214572044769791 1.0186101480951268 7.147112912827371 2.1654275625196706 -0.7984293472644571 -1.1575258127195613
Ni 6.937278751319688 0.5998666156337512 9.163599241758696 -0.07301650156704198 1.3042614983476248 -0.4016410236855341
Ni 2.551470871143577 1.3213907420104007 9.140465891368017 0.6902285844867984 1.215681338014371 0.6983000486410232
Ni 6.302886923593475 1.8507314351120683 2.590243235936975 0.5404278867801661 0.890648389901879 -0.7253269708518283
Ni 4.219073849639066 7.121476015824325 10.487706386189679 0.1461201635312516 -0.7409813895596336 -0.18593626708692496
Ni 8.373847129809286 7.135977383864841 0.44407427940834987 -1.0476368636062021 0.9504157397684987 -0.46012487885403985
Ni 7.595084717949546 3.911465504839597 8.251912453631011 1.1897111392028543 -0.7486777297626268 -1.0241431513596362
Ni 3.2396291702554874 8.58095130235544 12.275472355923577 0.745620945214174 -0.3141625810568912 0.9767497496773372
Ni 0.03946890145942943 4.7330074053035585 10.433618366668167 0.7509696111205969 -0.2107121884800242 -0.8681831189198272
Ni 8.850707544068515 2.1248987737868745 5.788869131375092 -1.225251241090993 1.4095962524313983 -0.029818626023329287
Ni 3.6774599812126643 2.732824019742704 11.51124120249444 0.17617096017004497 0.6085680340915132 -0.37601920935237176
Ni 1.3414988226162374 3.5438952259812826 12.740959929638349 -1.299675164528523 -0.5929061591845401 -0.54334711730949
Ni 2.8986885116589565 8.341366239245085 8.106153325012404 0.8703091641238947 -0.9416475066575654 -1.4284537514575335
Ni 5.704816448673299 7.937067011352235 3.5385448461552165 -0.9433799159676398 0.26632746385148326 0.4942094792425747
Ni 3.0782029483828652 8.357026992113324 3.3840097178523783 0.8873908021965298 -0.352819888417773 0.5408014680695009
Ni 3.5377178786960664 4.371967723795157 9.27670628939713 0.46806727362956807 0.14223831197834214 0.17407088310790667
Ni 7.366776483827599 6.134459104284676 11.43545185399837 0.11358773812118501 -0.7305920759055096 -0.4595867469623827
Ni 0.606080193694834 0.1223712570274661 0.4365536761078876 -0.2008538076287057 0.3666938181863878 -0.7685654698254892
Ni 4.738115944700716 0.18225167184061306 1.4020839260199855 -0.5399342349731991 0.3800033908111004 -0.4659707961118556
Ni 6.281628515853881 5.546478900443284 0.5317889877808375 -0.5726067855055558 -0.00664578745129178 -2.0144829810165823
Ni 8.021303565241551 9.079794739871586 11.373131296430623 0.22103336790037414 -0.38577397474629044 0.057348456012481876
Ni 0.04538719869720136 4.743541503386706 5.873129235268721 -0.5762250989844333 0.22215899686438514 0.1148447504567377
Ni 7.862802978520137 8.75540248815202 2.5325221753654636 -0.06598350597966054 0.184518817914108 0.24319756270223922
P 8.51804561775745 1.6610270926757422 3.5783153688237337 -0.4276215069096958 -0.28717756782761505 -0.43790232001041357
P 1.7984594832308596 3.633022934612559 1.8864893993533844 -0.08059739923809346 -1.6570873003026687 -1.3053372479103067
P 4.685979858229007 1.0144526665644606 8.143537145320725 -0.030837039985514635 0.5317187890419423 2.324782479573641
P 8.767431105739657 1.7208259882431898 12.501355845370666 0.5541102693632651 1.2141970401593605 -0.38600203159669655
P 6.311844982926435 7.701793410569978 1.2931579099165302 0.7453314389982131 -0.0625917066892922 0.7598782264641365
P 1.8073994271758869 3.2782511773290404 5.968591895060232 0.09612737655289251 -0.6470363653700405 1.4597723590651568
P 6.79785366809192 3.871113478218425 6.127104256783801 0.801254218307762 0.4144818842039443 -0.12373176853372239
P 2.37830587789025 8.465882358203839 10.240532787074113 -0.9506525383696532 -0.46658246155392546 0.39982119686797596
