# total energy = -340864.6052133037 ev
CRYSTAL
PRIMVEC
9.32076169296382 0.00000000000000 0.00000000000000
0.00000000000000 9.32076169296382 0.00000000000000
0.00000000000000 0.00000000000000 13.64187689468591
PRIMCOORD
 96 1
Ni 7.537420376451601 3.8349435209759517 2.2982742766021427 -0.8440530586408431 -2.391743776085539 -1.565840391770529
Ni 3.122762759820086 2.235491489839059 11.599687954906225 -0.46213908107059115 0.6854383621870066 1.1399430666407915
Ni 4.998575375820755 1.4759053345982973 10.81319276059289 2.8536632849461565 -0.22846179915396136 -0.9284112104729495
Ni 3.171034984744521 1.0751685054032485 0.025417717198095036 0.8465174610209357 0.6403697519831423 0.536560947625592
Ni 6.483372717095614 5.479079283776823 3.2566433848726266 -1.0680071997324379 0.9537651158567058 0.057640019110971705
Ni 1.1322302086253746 7.871448514049009 12.439167951267335 0.361253621007423 -2.0592682556520727 -1.0823732386461231
Ni 5.310494666629061 9.371093828736617 2.1594135685650246 -0.7206570761799848 1.3626422522793629 -1.689867322947167
Ni 9.036198860299669 2.803964746865761 10.691534450377853 0.5050729043196398 0.10368770539865368 1.451310858561365
Ni 7.959566995307091 7.015001003061051 13.316286115511696 0.0523052371616196 -0.01386955889324063 0.13690070181551262
Ni 1.197102710165067 5.20557085199798 0.05561605308005621 -1.5794667243047118 0.6183261419195416 -2.029311304278666
Ni 2.608210109317396 2.0257370681940534 2.6306861941180872 0.8507420406252446 0.5566798298626542 0.409874724449236
Ni 2.0669348349764443 8.01787768059909 5.297167841528278 -0.4975657973093173 0.5289126870517149 0.7188007396975363
Ni 2.3036169372174515 5.636870458858066 8.540565491927046 0.2821783148408108 0.42460894533561716 0.2403171558306506
Ni 6.677244560777454 6.213545986194384 5.552162444311675 -0.24170323754489983 -0.11145295116636933 -0.5145949848774621
Ni 0.5331895135527788 5.091111898131972 5.014454225479235 0.023830012540062184 0.731774783359701 -2.098946548078301
Ni 8.348857929115539 3.457797539682765 4.319523398030196 -1.1364551080921912 -1.1994473926540117 1.6958690490565569
Ni 5.234474534077663 7.2893855864411465 12.38651030795577 -1.5379588348689126 -3.235165886010603 0.9940789849844042
Ni 8.846884869096694 5.673240071071842 2.0402793206225343 0.5654164384047037 1.0425311669485207 -0.3206595016351445
Ni 0.570867760711407 0.48760912461177236 3.2917985018348763 -0.3848105823917566 0.6805635505932086 0.3692782910841124
Ni 3.588493260457129 6.604020656740698 10.767792262352996 -0.351316307289053 0.022210217548452073 -0.4193356127518198
Ni 5.41568878334989 2.2893841340779244 8.266186501003979 0.9518617281864057 0.22557470741415347 0.9158966229457065
Ni 6.325525617444077 8.083728862118907 3.556628372380441 1.0263504434236002 -1.81211607917746 1.9764697349976026
Ni 4.160890558166045 2.9033986328464274 5.841233751926842 -0.31810999574041343 0.7485116364984077 -0.035196345395474865
Ni 0.7507146542399743 8.781341272713489 0.941263646370248 1.164643654711265 0.002153298897576937 -0.3876791621888033
P 6.3959626137279075 7.5188068153058 1.3490236695179056 -3.581878375979057 -1.4168045972543795 -1.0619332256242162
P 8.554231592754272 8.903965213842252 12.290457994325477 -0.12956431605509947 0.411258235060324 0.5604539521931058
P 4.141866883504764 7.162241075880379 5.207459238321536 0.8825715264310156 0.4148354108886211 -0.2602234078362744
P 7.181796033959441 1.679647864936823 9.884140244146087 -1.3548507812594022 0.0067442607023690294 0.6980678780255591
P 1.9754142756922142 6.811873642995747 1.1564856268375503 -0.4761492793067541 0.9480148436364899 1.3839659534578035
P 6.0148180256587835 3.8393149582205086 4.803264406530047 0.5985764700964401 0.5266858546037253 0.41858073686366626
P 1.357801962901538 1.5182402343099761 0.9275742436387326 -0.9152286503444044 1.4517780280057706 0.7850984344835059
P 4.898311942047411 9.314619333502565 12.896716687270535 2.3597582243178783 2.043208631086049 1.13434526083804
Ni 6.188370608800891 5.239787368255482 13.18340094781037 -0.42876821891962924 -0.6745050031039546 0.13900334998081224
Ni 5.440715028555935 2.369132571315512 3.3045809944514764 0.17373818235883626 -0.25641843226788746 -0.07754190024122129
Ni 6.227499166482447 7.7637284709032865 9.49383241523448 -0.0512719108010988 -0.7279685222397334 -0.9723102258487449
Ni 8.700996306726111 4.798850093781598 11.916070026423899 -0.45682332528463265 -0.08044210460715177 0.4119555182376647
Ni 5.95033699611114 8.488166033714998 6.116745215398339 -0.2757171325964993 -0.728767621102261 1.150988782931992
Ni 0.6958591753159008 3.0327708054571936 12.838424643501966 -0.03956362122523509 -0.12488233719839782 1.1580300060494897
Ni 7.648160346393136 0.0226112358455661 7.467482040919548 0.27212735836271196 -1.1635239392845254 1.1257670322507256
Ni 2.0654714753871146 3.5750527220634165 9.829899935495234 0.06553202026453875 0.2514855137426443 -0.5326135329420698
Ni 4.54155978738768 0.03283051899041076 4.611855108093435 -1.1994589626182375 0.7783729428342143 -0.9570013634058162
Ni 2.8687626823117296 8.936149804045781 2.812164220946863 -0.39154018780610633 0.33438225053787574 -0.3560743907993287
Ni 2.9804347284248127 3.4781540832693585 0.22380453785490986 1.0139443564497634 -1.7743090356320153 -0.6003644152347983
Ni 6.346497331303892 4.1805014408154 7.1079905143916395 -0.9293872012329736 0.16068314894709101 -0.3850859475403303
Ni 8.807914764364302 -0.03177727291656231 10.144918379573934 -0.32242970616168987 0.006967946677400904 0.17643552668534132
Ni 8.88352478340022 7.245000119152064 8.637545221348029 -1.2796401002545188 0.26949686271840034 -0.377601209127511
Ni 2.453112634371924 4.524950190010707 6.140018225325703 1.3265545054178702 2.05852726372099 1.6583898211641763
Ni 6.826339465178161 0.6268641008694545 13.653882240693788 -0.4936736613437626 -2.41023694979372 0.04333003024620279
Ni 8.475993118914591 1.807836300809724 0.9342600260172415 0.9517717395757608 0.8127899868615035 0.7925284083989899
Ni 3.0636598097822714 4.47929709912832 11.734060716177343 -0.07753855780711162 1.5780942694372175 0.8199543658204266
Ni 9.14194290196171 6.918894629012808 6.263626438891621 -1.5848444436768576 0.20176783480254284 -0.6529943827256882
Ni 3.6794918570852917 5.725072826971587 0.2322910913968481 0.6824327425914634 0.7246911370400422 -0.7787064149142331
Ni 8.691871281006662 4.133478197960838 6.698420399318837 -1.2692063065157044 2.1209274232247664 0.6288830914997814
Ni 9.252720154950108 4.8159723330529225 9.189004359939306 -0.3611749452506876 0.5639506524924546 0.5944279951457053
Ni 1.8618221526657441 8.112520695058004 9.705758574359193 -0.8948940525521104 0.3504503597443319 0.004822103978991695
Ni 8.189724564347268 1.9843808484624994 6.594783781880663 1.4420158064126842 0.5030910980029206 -0.22464756761419372
P 3.9496075315997015 8.606409216837491 9.249397303398542 2.2027633228556516 0.35455075506595063 3.201604762225706
P 1.368045480026843 7.427826860201068 7.590012774431157 1.3425871334007007 -1.1525890375395764 -1.079590019474031
P 7.9546083500744595 4.125415739076955 0.23345991491596843 1.3387361350857265 -0.3205630852665963 -0.10020488905637581
P 7.689125094132639 1.1262369588423253 2.8684634858606635 -1.088735690529041 0.3680732150324177 -0.7460526334349539
P 6.465784439738516 5.906156585579798 11.041940098385517 -0.5895714383843523 -0.20422760919694502 -0.43329310337317634
P 8.419993982528029 6.507737188219861 4.126899604342057 -0.520023354981885 0.3740736555902267 -0.8606664988278081
P 4.442927486914544 4.41929935596582 1.7709335410258231 1.0870727010043213 -0.4773733815218424 0.7237226024791859
P 2.084010470439191 3.680274801069392 4.158958364262427 1.4115320360015304 0.8470177976961218 -2.3600461878719416
Ni 2.2419880607547436 4.656251760296576 1.9650579773501522 1.9896654077522702 1.931168954178274 2.798291493044071
Ni 8.46207722167339 6.801238653878391 10.828880534636205 -1.1802379096050963 2.000811397066761 0.6411670510734571
Ni 5.817851689087407 2.739772660931298 0.8860586388818441 -0.7498630083199795 0.5675723084054418 -0.6419756630176814
Ni 1.2475839556160693 0.8991915921389456 12.127641996603423 -1.036387258834312 -0.9371223650937023 -0.15461328860392726
Ni 7.325149349143417 2.4419556825985027 12.351819364926952 -0.6317789249903377 1.206204251761871 -0.2766774396272396
Ni 4.791924767827003 4.476957587937736 9.970206293674423 -1.2404752571295992 0.17981678445274837 -0.34377629015826605
Ni 3.490280394261189 8.912624201475927 11.50553148420886 -1.5415761199065259 0.25793846845683965 -1.8367981553051722
Ni 1.1290425081186828 2.8135371691475517 5.734008641228211 -1.8779568889316691 -2.4819902683776225 0.7820923006673305
Ni 3.1012877248276363 1.7607198503380075 8.178441782290687 -1.4895249077372412 0.6240941547515703 1.2204268231191562
Ni 4.168198035350976 6.9981956696880525 2.5725992071072596 1.2818494492010117 -0.4270669199578065 -1.010795783518453
Ni 6.5020142405265595 8.705367743970669 11.463064229680821 2.5038945246498816 2.4881627157369213 -0.5141920930120886
Ni 6.97417606674728 3.981848046373523 9.708705799213623 1.3295950920164068 -0.4685025613947738 -0.07723593896502828
Ni 1.0175102734313322 7.440307360138087 3.205391312427755 -1.4230330946625944 -0.01619846413673339 -0.9851204902395357
Ni 0.9862950424462129 0.14439817257228021 7.678875984550306 -0.09473718107358522 0.8645228964594208 0.14526321484759497
Ni 0.5346584655991373 3.4791700462963453 2.4848544883939674 -0.8076313254786994 -2.072540033060314 0.2797529932287698
Ni 2.594993269204855 6.129491357044248 4.066479630673847 0.778248501441208 -1.9302844946907918 0.5467345457244842
Ni 8.142645396922413 8.143745246804839 1.8937103426467203 2.024563505181036 1.4001819010960337 2.0575124493032306
Ni 3.4936638307639054 7.905497256595632 7.432121867199558 -1.3617372239665904 0.908003850461191 -2.534155637527268
Ni 2.594722967115106 0.9813270764518658 5.9245035729405355 -0.44695568846193345 -0.539992084794328 -1.048774319644755
Ni 8.98655648340306 1.8849749247669791 8.772368175410003 0.7466578711191205 -0.07224979860434654 -2.534840579409434
Ni 3.3321350302347574 8.146243210944586 0.11113610231444304 -0.8483280318671131 -1.246105458832183 1.2999145342328389
Ni 6.182759510248177 1.816411401587959 5.810470577884923 -0.5977712005863253 -0.5583795861625802 -0.7866549803373485
Ni 7.772844175861019 0.3113236941346873 4.822130560318336 -0.03424863677022489 -0.6698937295841882 0.07923600011419257
Ni 5.030098191942485 6.37217602983002 7.884336331272993 0.7788228858874394 -1.3237178073000233 0.039212665643719564
P 0.9657054798167329 3.498380136191935 7.880625736034063 1.4764161382694252 0.035467596778990536 -0.008214674600308433
P 1.9174298170602564 1.4679267625698524 10.099367817070416 -1.4912022954396642 -1.7599072583843882 -0.9186091367808632
P 4.019382753801732 4.415962523271681 7.739009810833852 0.8449591153948802 -1.011208188465523 0.16873610115855456
P 7.215108436330541 6.1351304178821096 7.59208664391285 1.0605036922665412 0.6465496555416091 1.1036025803385443
P 5.091214426510842 3.355446255285156 12.453792226398914 -0.8817292330353783 -0.42334961900721924 -0.6716143118197209
P 0.37209599259574316 0.7013435115092852 5.661160363888588 0.6166497826583831 -0.3051158974735907 -0.6764981222745833
P 1.1403299505561206 6.183682265658009 10.587283594742628 1.8312587135441816 -1.1274009683097228 0.37900580278452145
P 4.479837703307817 0.8525467722100322 6.86179564274382 1.6907168154316559 -0.9650005795612091 -0.884529935708967
