# total energy = -381164.20942739834 ev
CRYSTAL
PRIMVEC
9.31531859062799 0.00000000000000 0.00000000000000
0.00000000000000 9.31531859062799 0.00000000000000
0.00000000000000 0.00000000000000 13.63391036421782
PRIMCOORD
 96 1
Ni 4.562344959451989 5.401683111151371 11.162791269710867 1.9721551667826487 -0.6546311469981629 0.21301486847127185
Ni 7.2779745833031235 4.881813810794678 10.879751834812147 -0.1574312176686966 0.38373946081476495 -1.119275253878795
Ni 5.888035895189912 0.07146339816184781 12.631272998120945 -0.3919101695510154 0.5353268181081748 0.6643725426556428
Ni 5.608548391272878 4.891035976207399 5.181962691363647 0.5696574730692447 0.12548217556592584 -0.5044049317183378
Ni 1.2738325570989157 6.480965239316271 4.954631656280778 0.42500001012644867 0.45643843114138805 0.021228570361473117
Ni 4.2062575906977795 1.2877589584039841 7.560998182160227 -0.0547686111004476 0.439838617801178 1.6680880222885466
Ni 2.4641625982790134 2.561293425307741 6.028547229400963 -1.0833438300895084 -0.5779225412915143 -0.8118127105498986
Ni 7.88656297799391 2.62972375573385 11.376789289283405 -0.09915485052530666 0.03818833814426326 -1.4049196728913351
Ni 6.387141350390086 2.9221129759100943 9.152130052900192 -0.5554449290142885 0.24304561050540724 0.21962054671324757
Ni 5.386415303968088 3.079420761086475 11.370954173713177 0.9293054401524447 0.9348276555222544 -0.8764854681379357
Ni 1.6500969059379267 8.750977967361013 13.175470184530022 -0.8204783566446966 -0.5208718190251094 0.46276103092530624
Ni 0.758930184619054 4.520239719385829 10.99694878963435 -0.8476693152371917 -0.6719071604697913 1.5377706301175063
Ni 1.8338601959346383 1.5686437601108243 8.334954907210857 1.0075451377916391 -2.6343191318227466 0.3238553828646229
Ni 0.29693975331171363 2.334931183359138 2.451799307434808 0.31355991447588577 -0.8145169968549392 0.38412795450243525
Ni 5.534659284147926 0.019487646508497006 6.265272763290628 0.2976082762426358 -1.419215263578401 -0.14597721019548407
Ni 9.411825299390552 5.673690414233643 12.920543449630342 -0.459247618455409 -0.2091916380704397 1.4713171264799627
Ni 3.3256432622875236 5.9965873028206556 3.096574920285996 -2.4124558118219097 0.7981061595970835 -0.5574365055230206
Ni 6.556903716532938 6.546451929065188 8.852757138370496 -3.0404783550936085 0.37809691781700694 0.9715046992283141
Ni 1.8956393888812693 6.72458876662828 0.8321839870155736 1.7144797221792083 0.8422959667404203 -0.7508899069225972
Ni 8.220274951474023 8.241914436578822 8.651070243858012 0.3728431256172353 0.2812941124636446 0.27288017736833653
Ni 4.573495395814643 3.3354988693649563 6.7545524204328835 0.27037103779323757 1.0135427501359706 1.1375036039613635
Ni 4.241609224779876 7.732217464131918 11.778689394906062 0.0331695447734332 0.4143340457721703 0.4871317464601868
Ni 8.417564084076059 2.045643964276263 13.516549643489855 0.19083370438854233 -0.32323163323769494 0.7496614338321347
Ni 2.9240226162228296 0.8268817076691891 11.96426078824278 1.0432860428366741 -0.4843590688110561 -0.029161709165620747
P 1.2432596814579562 3.508596119566147 13.713805240944936 -0.8878656849504193 1.1048325960909038 -0.15544864002102904
Ni 3.1939619185761883 4.083491006885408 1.010195067777583 -1.7267197158888261 1.2737718143991998 3.3492575603513997
P 7.666320900364659 0.3334688436646869 3.0128898241226434 0.07130080442751592 0.1461139928836645 -0.5682827042089051
Ni 6.010290136479355 3.1571198335182986 1.5971849647654057 -0.7390016401254433 1.0491126768207801 -0.7910181424020506
P 8.887205186548519 7.664821134070267 0.0940390727858165 0.5368730795493721 -1.236837917487328 0.7982087466132188
P 4.417845737348832 7.757564446039003 7.408939579014218 0.5146523204779588 1.1636139278951703 0.12139386442916514
P 4.223481614786791 3.676467476033463 9.236443001537099 -0.24218917604238288 -0.08831122294258338 0.31837327670412907
Ni -0.1356235865423086 8.477144861833395 4.148116961195804 -0.15899650527328746 0.4495129076661484 -2.0429288950621007
Ni 9.397759168306504 2.446351709118284 7.244609906678131 -0.27711452716465823 -0.2587913033754382 -1.233468743904779
Ni 3.378414542149204 1.6562915928060673 2.660685080160375 -0.4443280210310993 0.5303638176759446 -0.16201626593621773
Ni -0.10432132145507032 6.920443340166114 2.1177007482328487 0.5775466460093344 2.7732931712275204 0.15039822208131517
Ni 5.7976214128708525 8.859156762247808 8.798425542643532 -0.9082069676109327 -0.4659461135215072 -0.40764943466314313
Ni 0.7795738621656508 -0.12933574648818075 6.078283578463185 0.8052317148982712 0.33900560824250003 0.837192584075584
Ni 8.483004197231983 6.215767434129655 4.119772309763655 -1.237865330310578 0.2923462565127481 0.38449999312987326
Ni 5.149126193303201 4.967430904035402 0.01586491910545949 -0.18432110008100516 1.0855428946233563 0.22385823894367898
Ni 4.928986584178535 0.9673678905200231 10.600460884117544 -1.0517511428848918 0.006052119731350868 -0.3417821425463727
Ni 3.217538989949518 9.135989400364211 9.485397685683148 -0.6786997579115924 0.46612120564679077 0.15463231476732078
Ni 3.945018795915614 2.941488838595407 13.070993297254356 -0.04132354133913529 -1.8517378073341397 -1.2932358366610825
Ni 1.0873585093899802 5.147458751274032 2.1375926795685296 0.42031108929121164 -2.6412515972765225 0.5968132075484303
Ni 4.032079763539139 0.03034930799459046 0.9352142053128631 -0.7624465014119449 1.8135145021868833 -1.877667125605392
Ni 7.691695828227539 3.418591511265431 5.835722929003288 -0.4406562286064669 1.1118843607313627 0.9392823488594985
Ni 7.24656332898828 1.258574065234232 5.420569919610251 0.45732469040108337 0.3085331506852558 -2.4036788369602284
Ni 2.611009280669045 5.274277498676842 12.507545073429188 -0.23324662213711442 -0.14332948815999186 0.3147302806349031
Ni 3.778684467017085 0.886599420609926 4.895391819184155 -1.2904125082796742 -1.5298891704869007 -0.12602596388453777
Ni 2.158452472506616 3.8059504045555035 8.021906173446398 2.4793633722777364 1.3855559236527428 -0.777582328612119
Ni 1.2700225917920442 7.561430412943207 8.809373836592595 0.13971246023269487 0.38728578340512654 0.9372110681527666
Ni 6.309144187763103 7.258207477236665 4.731430101932716 0.5134151056367481 0.8053903519633225 -0.5988839740345299
Ni 8.355766260492231 3.949713716489363 1.3700039063119764 0.7532653491333092 0.66795768890374 1.405227176829425
Ni 9.051238631753167 6.553624724386194 10.753256328964712 -0.24086685768653357 1.0249677041434606 -0.23957744945114867
Ni 5.6358236441298954 1.2098176876885947 2.7903841240739053 0.0819585412516782 -1.1506056885609603 0.1860491385157054
Ni 2.1603807434565487 1.606231070656611 0.5090383794219749 -0.8413433730191637 0.11781771704213258 0.3555138903101684
Ni 3.042317847107822 4.991306065603891 5.414325861553537 -0.6808075482832147 -3.6294345284914655 -0.11606653867898074
P 2.279374623236444 6.998859692130037 11.03437401363652 -1.1133956551695663 1.1165308583644384 0.0005694993502248257
Ni 2.6437153642691094 5.186815972353573 9.952508747624199 -0.9561055910644242 -1.3616901727787387 -1.1692225323311993
P 7.052562503851589 4.771408654762792 3.4723520779622947 -0.4764639823336956 1.5863012307280422 -0.7807159891450941
Ni 7.416307064493936 1.3034366396056094 7.724046066657133 -0.6872530467982422 -0.8538898422256069 0.7107081924973889
P 6.486079349226962 4.3114647989515875 7.504144929688593 0.4544393984334883 1.0501246630250622 -0.3221494559171097
P 0.28940459209721875 1.7060353941231678 5.172201169004061 -0.1719193839825426 2.0051964135083336 -0.8176509144982306
P 2.3414053297852404 8.393912490153939 4.616809764234915 0.4564047496899753 0.19585609730379816 -1.1786870201782087
Ni 7.399185508909511 4.14583843426656 13.024883401722612 -1.3790263500643412 0.6498995458504484 0.09695784287398786
Ni 8.248183645995752 -0.27964400126949257 12.377491115877046 -1.1281460740058635 0.8956461002267865 -0.05573483166845885
Ni 2.8528908434030953 2.774018040827835 10.782336890566159 0.08102754479697657 0.7891085840841635 -1.0057862461190032
Ni 9.201401567564337 0.2776626330035474 1.2772494159609218 -1.2314650832111889 -0.8646619931404463 -0.03427974711847645
Ni 7.172385446986769 0.7173857267325364 10.267793157852347 0.3773227586551437 -0.2904202431346289 0.9435043573606459
Ni 0.4534361742381471 4.713765463273987 6.762788093606001 -0.2664092249320122 0.80525305505451 -1.0518943533309755
Ni 0.6121049274617992 8.818243882962284 10.945575739094336 1.7630486322268475 -0.4993411440421851 -1.8612853418132589
Ni 5.203695329654432 2.4930866625280017 4.7308851557946925 1.209687068104149 0.3568035556558694 0.35000890133153917
Ni 8.40565910690691 5.583098940861208 8.623584464800663 2.4433257619278885 -1.4428935810319472 0.09858046607907538
Ni 2.7687642011381643 8.995169729107545 6.879985048428206 1.2903711135187779 -0.6766022519526154 0.45165617926139634
Ni 0.7062241119875646 1.7084853229146282 11.616732334217065 0.4177204457458999 0.7182921754922339 0.3743703608950391
Ni 7.500592067175046 5.978105710720819 6.367554029972582 0.08980529098960663 0.022253412081561674 0.31591633052320434
Ni 6.162986838949376 8.46866792190857 1.6403093006862643 0.9017660970815954 -0.18507649018979094 -0.12391688796133499
Ni 2.2844328412355424 6.329880086963827 7.166637895411366 -0.24702927774350364 0.20601915387972905 0.21023602017455403
Ni 4.253672562365203 4.035666161199641 3.3658174368081712 0.8720366883379628 -0.7970178116289112 -0.8908178256002077
Ni 4.012508279163253 8.423917131360378 2.9300636003340914 0.3497497341328816 -0.6226885326532954 2.094080478235252
Ni 8.003526118319288 8.66448523417201 6.174865733226448 -2.536151584911374 -2.2057967103653366 0.963976766282385
Ni 5.484291356484713 6.2874767567025085 2.550155098859266 -0.5467844251258132 -0.39271878149523975 0.7921093185837004
Ni 4.5609569769807825 5.733457498362952 7.251276880199227 1.1876262316493675 -1.9512040184522785 0.8266109519049957
Ni 0.6131398593581158 3.1051496710561066 9.38811967662056 -2.16195091682498 -0.6352889950261253 1.5320481258114325
Ni 3.9534025826544514 6.928426568205206 9.379312042885482 0.7568147570474644 0.8914911975181485 -0.41282300844428255
Ni 2.061116708468717 3.50187045953788 3.5282784562333576 1.0240176815253654 -0.4320394334717334 0.24173280523125462
Ni 0.05111408468297032 4.148530561341587 4.217350272085121 -0.48092381787726207 -0.7307892795179801 0.40457645216477417
Ni 7.313121280376048 2.7654945243100175 3.5074466092510668 1.060562827639251 -1.5239208687186077 -0.2628713869820828
Ni 1.7702645158612593 8.917899161331261 2.314615405027216 0.7309072931530832 -0.17271025531495418 0.5964429686932051
P 5.9837507937916365 2.239477113678178 13.297371375244575 1.123298516105575 -0.5574925555719367 -0.2783165178925594
Ni 4.096681498021178 6.825073108352542 5.185440099796544 -0.32061887820519624 3.26633614096582 -0.14792610639173878
P 0.019291093286064268 7.0849239206635 6.993800542599079 0.6647553799163584 -0.8236181878252589 0.5037703834581324
Ni 6.626163110314332 6.603117012101127 12.611817023695684 0.39918124929113186 0.5916386053260262 -0.1530487723302848
P 4.388306862072329 7.357834809649847 0.5450970461857134 0.4456148581633228 -1.962030676754137 -0.13309701179870626
P 6.440909369341827 7.929599749919941 10.923107190634253 -0.08029066663095205 0.2691327945107623 -1.0985683603487468
P 9.00788513899478 0.9409589622926863 9.298422473833602 1.9643284716493783 0.8491687826008536 -0.3254360970881815
Ni 7.287383055087819 6.221589508253848 1.3339666647810149 0.21989771163403418 -1.1640057640169503 -1.7254303076534412
