# total energy = -340870.49896639166 ev
CRYSTAL
PRIMVEC
9.25196464249800 0.00000000000000 0.00000000000000

0.00000000000000 9.25196464249800 0.00000000000000

0.00000000000000 0.00000000000000 13.54118545721332

PRIMCOORD
 96 1
Ni 6.906175119769659 0.8514370083523137 0.6192182519622478 1.550694023047394 0.310047273336937 0.8154963300490728
Ni 5.058992662438177 7.26328244341659 9.81141500661718 -1.3922384778792412 -0.055845646214710276 -0.6640591251802821
Ni 5.894250760565573 8.126777537030032 3.47710565958397 0.5736732790968572 1.2017377313500852 2.5867305834105063
Ni 5.59070305909057 7.078659492917224 1.6086390580468355 1.2689725932383435 -0.7619371658756943 -0.9735448695867944
Ni 5.726346109818267 2.612153381570445 7.803364942695236 -0.7888388753625447 1.792151463130075 0.626652659507366
Ni 2.512518976462569 3.44459888250657 10.742127472316215 -0.28705646886871855 -0.6572472444647713 -0.8413600851897123
Ni 4.950985229507604 3.024837255638307 11.310748581121812 1.191704515483799 -0.006866130992213982 1.322413229555987
Ni 7.9209675879516865 8.13978579903966 1.526511220061731 -1.437812566964614 -1.120339433477251 0.243968893650625
Ni 1.8382820675354221 0.6630235280198447 9.76181337483481 1.4030759348143773 0.057486010031610676 -1.0317255916925845
Ni 1.8085925136315149 6.755025776632194 12.820577584092819 0.6038492884596052 2.237776605706043 1.3190247726997282
Ni 1.2694897973875912 2.8486335927838637 8.284537408763429 -0.6328485039054327 0.03594170820193165 1.6492600909487662
Ni 3.084410654699465 2.91948513650344 6.706069006771639 1.0858753382621105 0.5829392777798154 0.13787206458984644
Ni 3.5932131873861146 8.848236472484302 12.860943904966222 0.6648463969682679 -1.3043450592003665 0.5398249630888445
Ni 1.3759243963625194 8.277612313376368 6.762345930901054 0.16844685205290988 0.9416302802663847 -0.9996526224174396
Ni 5.4561147323096 -0.08779374101120396 11.202947466998362 -0.4326654970915065 0.19602887543623657 0.39537061729579004
Ni 7.2406798942775294 1.5971111103484037 10.964866665935963 -0.7570222450725802 1.5148937255193329 -0.7941713433190516
Ni 0.4542492495333313 5.166805804115406 3.8228932047324804 -1.8338277598229387 -1.0250345528256541 0.5486500175796423
Ni 4.8347342962565625 0.6428200132613648 7.18724147283983 -3.561451218472957 -0.28393694940313036 -1.0631362447933819
Ni 9.131115285389244 0.7920319950440539 8.254056811899476 0.17547470543396876 0.5538115071759236 0.42622128412805954
Ni 2.687630907512506 7.72632475995842 8.541888201371808 0.6396485575464016 0.9460829167210997 0.017608714220698707
Ni 9.066351534274459 6.658805346404511 5.8223574456494935 -0.12074388954999206 -0.5069955752636495 -0.19355881662918922
Ni 2.3602871534850425 0.9361877782575672 1.1053775268662787 -1.3763413470330104 0.5296961021849587 -0.620426476091996
Ni 9.290267577771608 4.952391528103239 9.778062599989509 -0.6964714800727166 -0.7248983679548419 0.4050369367409605
Ni 4.087591907503056 1.463827310554174 9.71496050168904 0.6629298966718454 -0.022776631574883355 -1.0217129446515887
P 5.382339567825413 1.2588962980981009 3.6924099745757433 -2.415781276650717 -0.2896928780503011 -0.4714475029557107
P 4.271012102624575 3.8320433975685555 9.429742792172412 0.08536756693322718 -0.5728464123201876 -0.8169464322320382
P 6.470796176918288 6.007189490545314 11.199670421191955 1.2478067577940057 -0.8417629770550857 0.1645788844570714
P 3.6052592450934644 6.56543452122588 7.012722592710816 -0.9954869210755242 -0.10762689255205982 -0.8814471830185852
P 3.190040332767681 2.4855032402832586 12.580058890399172 -0.5308569552622793 -0.6822231976838186 -0.2562104300221394
P 5.960356046524879 8.347510904758112 13.52106324134679 -1.087895454015933 -0.11047747462697749 -0.9259573496158181
P 8.198443253620765 5.676292982170983 2.1294867232443906 -0.765309939002669 0.45927950013460905 -0.3239929368837517
P 1.2015063626459557 3.89559514134105 1.5404456037122993 -1.3174818536926407 -0.47605363426915437 -0.26904974787865277
Ni 5.656058935929834 3.045348860812804 1.9848267079686264 2.3025167261969055 -1.1349173312914262 -0.4391817009434695
Ni 0.49895289133853465 8.129395842967957 9.704953576945362 0.5605619385258799 -1.1992558454684958 -0.8112149290648997
Ni 5.733682917623128 7.341702094052151 7.2240328346516955 0.8657745094783347 1.9184347944410574 -0.7629761486631699
Ni 4.706048722791484 6.820076338644775 12.120985666604232 0.27758992413918 0.5716523920120864 0.9390164967926216
Ni 0.3480700047770841 8.685577685577297 0.14230261473518588 0.2642132457219579 0.10113357151823228 -1.18199294462299
Ni 6.499384747053243 5.588889674059356 3.476293337105702 -0.4239054915106893 -0.7176789673882672 -0.13894575726999941
Ni 8.428289806327141 6.319304511096359 13.36757407640119 0.019199198636270162 -0.95452127729644 2.0968621547454465
Ni 3.7620337826134715 6.902964688107255 3.3019095356575847 -0.4541205816414889 -0.3527594674934828 0.21049904402795358
Ni 7.1594476464506975 6.560956570434516 9.13118652551547 0.5503865406547747 0.2411633058810298 1.7236055957398766
Ni 4.758146534581106 1.4253483904275461 0.27250828595857424 -0.6761029437186936 0.7480408675095762 -0.769730693778184
Ni 4.569813546339308 4.035928938042347 4.513886346465912 -1.1111395121455379 -2.464102589463924 -0.48524404251917075
Ni 3.783442828339131 5.972189309049995 1.015986896791873 -1.6538086295513972 -0.7265590434867164 -1.896031487045193
Ni 8.275872944060715 8.009129557147801 7.6229692147507775 -0.8844170642801865 0.09709719666532955 -0.8512639745669854
Ni 7.8706646572643875 5.293677992549272 7.394096893900457 -1.692358464800137 -1.4498322171333096 -0.9755539295970231
Ni 0.9107948366419041 8.654380061468858 2.4893705614212562 0.45420234272201776 -0.5820095668766945 -0.08057940151596445
Ni 7.996306334427073 3.9566210988200683 0.9051918469740305 0.7136261374751323 -0.44369244432962945 -0.6886558406830399
Ni 8.27556762923403 2.938830994157871 3.1158812117590284 0.2593752009033662 0.9767098975783373 -0.14322612981290817
Ni 5.964130848018427 5.090819420128872 13.418556101278751 -0.12742592955585796 -0.6369612405222256 -0.46532467788742443
Ni 0.8622812358782623 1.890629682365059 6.23375252107017 0.9204482468721308 -0.6212050061292335 -1.641611316154257
Ni 8.63874424155686 1.8725605958040337 12.76099585826366 0.28568504244248866 -0.8609277229089948 1.7266217568583815
Ni 6.730767125857485 4.265016829664234 9.244133582263212 -0.31136522081741214 -0.3918518055092542 2.1446113971052676
Ni 0.5711589226528541 2.194232895626731 10.59383791138869 -2.4301863963324535 1.1817116659371454 0.9732239959122657
Ni 0.9857875596470483 6.227136441295573 1.776955421211942 0.8345014103966659 0.34516622852725715 -1.1853009259503007
Ni 6.112032751635708 1.6294282221546819 5.675096703168248 0.8631003050802812 0.840949737125171 -1.7858337484421631
P 2.1213551716937067 8.307024308346927 4.1654712434150305 -0.18744884707670945 0.29835775281415067 1.2431137231937106
P 2.583796110546614 7.757707423355757 1.206018545705767 -0.5762708646207043 1.1306670406555044 -0.41643797948905054
P 8.328960716045948 1.8339706521040664 5.031159977798375 -0.3842184573337125 0.053603644258068975 -1.1218214173394165
P 6.006578860891946 4.189844618548858 6.177637506318542 -0.6984301464609842 -1.5594370593473463 1.4954369023463019
P 8.267203853375777 2.8276316334937834 9.199434566440232 0.7977150948062519 -0.8609796591928527 0.2543155269922717
P 8.68588300040398 9.242064843013317 11.643861860177159 1.1175191904196367 -0.33656614556307196 -0.21150074581959058
P 2.9834347147470686 8.408055760085993 10.708788943635211 1.5433764063400581 0.42009280263281845 1.3436158317755311
P 1.1477431972562382 5.279235676050674 11.64678733133466 -1.4345310679998649 -1.5180237865078825 -1.0038707742638453
Ni 1.7569665520285855 0.7082674845486342 12.29870017525254 -1.0291033235783889 1.3358580422069832 -1.3843683311025448
Ni 7.32379029088669 0.816832810935239 3.1008911789652895 0.3935561897948706 -0.7315120166166176 1.0019943831767388
Ni 0.8943263399298584 3.5325480565204495 12.944682509961195 1.711379743097646 0.5645584612797826 -0.14056735203382242
Ni 8.59977496731465 7.009149484042169 11.316029602427001 -0.7962868470001576 -0.47161925264688453 -0.7572518445848829
Ni 3.4320809746125263 3.358130022803886 0.9712046132888875 -1.1523021024267766 2.004318638889071 -1.722170663065563
Ni 7.817863696176948 4.278968792047249 5.267710503941576 1.2722219534135768 -0.40360071851506624 -1.467092546875654
Ni 7.528786067093877 8.846561866919764 9.782449881529315 -0.30188839167522846 -0.13798005092262045 0.09199509955207383
Ni 9.24728295096028 9.05371335084263 4.7077418322849125 0.14288237332024425 0.695626358463602 0.9947600702118286
Ni 2.57274926499932 6.369052323916959 10.377599147987974 0.17075261736795108 0.40086892140619995 2.5080460849244095
Ni 3.354234945772554 4.935997047106753 12.281746875603577 0.2656186107099167 -0.713871420716719 1.1789497869212922
Ni 5.068429666172046 5.318741564230693 7.962528337434934 -0.7366897041628152 -1.8086342912764466 0.279695400517957
Ni 7.861477456570534 4.1642536848940725 11.856865211611469 -0.4140679365949772 0.7031414358937245 -0.3894043724100261
Ni 5.115235354299146 5.9441928646395175 5.4482958971571565 -0.38735391763890065 2.3861264298987614 -0.05421890924456469
Ni 3.0496880321374946 1.3092732445009596 4.895030273740874 0.4727289407712955 -0.764474073364935 0.2903621362031838
Ni 2.5345756596993767 4.580869643851046 3.001295632108082 1.4888749328580682 0.6018091181011249 -0.6926454214584071
Ni 4.07881179324478 9.082412944550926 2.1751072347260902 0.8609194953788786 -0.17602312173827106 0.24919028995056436
Ni 3.7306788751094704 8.173583225157133 5.465709944635477 0.8504309371427289 -0.35454895529373776 0.8145884735228229
Ni 0.7903740430155153 4.462333475382098 6.420200884154528 -0.21232169905898915 -1.065160217201946 0.2896070032047141
Ni 2.216335838685763 4.92941890038638 8.85471654838156 1.1227493284703243 -0.22409066666945923 -3.086789836565639
Ni 2.0014959723091277 5.978748951841478 5.254995529204854 2.920228888681532 1.8052412064344974 0.02274603544726405
Ni 8.015041562428136 2.5881260299068596 7.017069165607063 -0.5775849554464375 1.0123505296000823 0.8622400139625149
Ni 1.1988047890280245 1.9504528844662314 3.397659040895018 0.01690500328545476 0.22092615289854856 -0.25951069803996596
Ni 3.6118096359205025 2.1537833070733248 2.7287928973281748 0.19482817025991608 -0.9240866149556666 2.0920601053711136
Ni 8.28779872623028 7.221824390738682 3.6927893051179868 -0.024151143324906796 -0.3895326704577743 -1.0833186332785278
P 7.103510269416413 7.838800891715913 5.3587618616338535 0.006639616803704694 -0.2517140848136826 0.9999822378427166
P 2.1971195085335613 3.565947648166789 4.748690101721902 -0.26194964649876173 -0.9918202708572144 2.117194695655212
P 5.771245893269703 8.941496274089596 8.621320942114094 1.1378856698911306 0.32009745848408744 2.552883038733442
P 8.998821445790627 1.0251731722892832 1.731185953102678 0.0605286535126764 0.8907427493878983 -0.9777820475965935
P 4.674536531891917 4.774133929142013 2.4753695636266837 0.32895850841914315 1.29394263292012 0.19757256577427265
P 0.2510465040355786 6.259509064888521 8.074567776470625 2.4488736883293116 1.2286651518685485 0.22196847812013387
P 6.581246128462333 2.770204690183858 13.178484277467794 -0.7636065831583172 0.7127447633114434 -0.828095249760006
P 2.3571877453959775 0.9840019305091693 7.6300377155867345 0.31404739563526557 -0.6904455855936108 -0.06755393579057398
