# total energy = -340854.08699899924 ev
CRYSTAL
PRIMVEC
9.39094909210858 0.00000000000000 0.00000000000000

0.00000000000000 9.39094909210858 0.00000000000000

0.00000000000000 0.00000000000000 13.74460324798217

PRIMCOORD
 96 1
Ni 4.3142489871363665 3.7852098676441375 8.581250230987221 0.12053717285582467 -1.2761660256629892 0.22986870680381702
Ni 6.4917847086483915 1.6816090886680548 4.031484691411739 1.6352115832755 0.1722222599349421 -1.0076505530212518
Ni 3.678002792324651 4.92321447471235 6.595719038194504 1.3912282914471719 0.020839048232538303 -1.3033256167969167
Ni 7.092138695868036 5.263373434262319 9.203688913286475 -0.1107916634332866 0.13260798797742968 -0.6267948415121851
Ni 5.956547562727391 8.225729556843032 4.357149660067516 -1.0157796098862892 0.16687487958009972 -2.073640722323661
Ni 8.70496847307499 5.061796711090212 1.8078826080153227 -1.476648051774573 0.1335269002472733 0.0035599494371164496
Ni 1.3978991243655834 5.542134368370907 0.138341828080018 2.2248169602215815 -4.22329405272821 2.6281759950394865
Ni 5.3693033404995125 2.6155108072469777 5.97329444231895 -1.1500996954588194 0.2973172273647783 1.0660369633799447
Ni 4.033609863200877 1.6689125254382067 9.791737939855182 -0.1958710097021336 -0.42868491517720364 1.912687864654951
Ni 8.649608827927096 3.0049159040582807 8.720236278177866 0.2985647266186342 1.2358629551685685 1.8914227846285878
Ni 5.544857743619914 5.57721895433741 11.238796804750061 -0.4963470944108677 0.7769341535051587 0.31022596500664634
Ni 4.568415025461691 1.4593534955017715 2.1961128970898995 1.097603168222 -3.4376461734991373 0.4473542094519328
Ni 9.159424674540997 4.650153846728405 7.091582751679273 0.23337234908170132 1.0878975108984619 0.43896829938108267
Ni 0.5224851760912588 2.4935223779897835 6.3863609745695475 -1.2339989053766363 0.8929582689819783 0.6235825052224745
Ni 7.133205316433218 2.5866430296075156 13.588258266636913 -0.06897986960382313 -0.48470873884099114 1.1783077824619193
Ni 8.492028701450135 5.255776156412506 13.236712781261362 -1.829165835570895 0.6104860770498325 1.3800383362686233
Ni 4.483896483251163 8.184456335396892 8.803762197064875 -1.8855061620338367 -0.4516903749334415 -0.6494663149677717
Ni 4.0838326591722 6.589835608561737 1.1284878192153067 -0.4278693612544437 -0.605892287031563 -0.30243295132478887
Ni 6.1174333032996975 4.215672194071487 4.36308661811035 0.31642078096344856 0.7782287039468663 -1.0514212703492989
Ni 3.0260079758143745 0.723804587257081 12.21852635510536 -2.3723288618940366 1.7270238773928064 -2.7870953672179355
Ni 6.798352243144243 6.295072497127957 2.9152849291389296 0.1780272966524934 -1.094835889889508 -0.18210532337660898
Ni 3.2596266174334065 5.530677410426813 10.120563901989632 1.393062259332117 0.25405070336665925 -1.504508782740583
Ni 8.821651016071192 7.099717191819581 8.749690990138234 0.7300693706328201 1.0943990594624056 1.4529404237449879
Ni 8.400786239659302 2.003831335371123 11.08076215633499 -3.09671712298168 1.1155564102663111 1.6273406651678555
P 1.4166434588380517 6.000788324100036 6.908051676364027 0.2793567862316157 2.9436508671498984 -1.1583467659589597
P 6.2689280947374995 6.259133334790213 5.061381631138466 0.6196433180690682 0.30217352701581507 1.1366646529998359
P 3.1647498583275224 9.032336959903766 1.290883624408441 0.7563709846418264 0.6666639097929808 -1.3450623344140706
P 0.6116212479912212 8.033637692296772 10.861741745145544 -1.2751656094229329 0.879703460854601 -1.579264635596235
P 1.1803859605122242 1.747796498168032 12.634671240482247 -1.5146625833451333 0.1196668544357294 0.09736921937979359
P 2.601640375375317 1.2495033461421667 7.924231256689985 -1.7362253413864164 0.05814575510279663 1.6079787157014758
P 1.1474800747449256 4.707250817466184 9.879002395592638 -1.640204151394085 1.0723685620249275 0.7720050916346576
P 5.146390380893814 0.7056115014988081 5.0635396712495755 -2.201949825815421 -2.60800826184236 2.2828480441233845
Ni 6.003145452332795 3.6067912250377145 10.597281348378976 -0.4675728504916528 -3.3124187942564953 -1.9345304144513393
Ni 1.6211501581401242 4.57617194944679 5.369576617119327 0.6084711035023328 -1.760766006840258 -0.41887949905100763
Ni 3.1013609516696268 4.887237748578069 12.296787707907566 1.9661943212135236 -0.9661416351441878 2.0020139020152943
Ni 7.019114675398141 4.256522822806576 6.879284381880304 -2.3446077418296847 0.56850021953635 0.2502115321262271
Ni 7.8097762468284895 9.20806979105772 5.3004554751097315 -3.012937983581495 -1.1880736035994313 -1.5908345998220215
Ni 5.526122800096579 8.154865454674072 6.621559173833003 0.41798064138582214 0.4398985245048359 0.476080887962664
Ni 4.579036188932814 3.5863283468736324 2.2769445526702206 2.6320483335106997 3.270288183635032 -0.05398416752593929
Ni 5.313605621182776 4.432443472943222 13.466948803002143 -0.386402866579541 -0.7462503512680567 0.4830082112101165
Ni 5.297631616704986 8.663638905934043 11.040736992028826 -0.5662021675307927 0.38648617032196664 0.18035260235156036
Ni 1.7498249431810846 7.688201019333213 2.0700882378946956 -2.0098567950984805 -1.6292042007391554 -0.26919450098663317
Ni 2.7064151948689674 2.2486064245619444 6.038237551058606 1.6919488880665443 0.22134010050751557 -1.0898404935574455
Ni 4.528982430045913 9.310318445234191 13.323441013803235 2.810207784865683 -2.60672451003393 2.9806482703098536
Ni 2.7937979765655183 1.8863036069528172 0.7534499354848802 -1.1133997689346244 0.5822695054063004 -0.812655261055852
Ni 8.633240403585656 5.220973298920037 4.782641357117974 -0.8119363806119565 1.7696733366322168 -0.4012018792655865
Ni 2.748674465974231 8.080958684985532 10.529713469356226 1.5391065753201105 1.3117266963764185 1.7643624659422645
Ni 7.589211024506416 6.650679568004183 6.988965972296731 -1.3805939516617771 0.4053135874411149 -1.913523216072053
Ni 3.2465731981364474 7.388770606179583 6.691243772790669 0.018810190727967604 -0.382116066278729 -0.6912739950321772
Ni 0.2793797976565518 3.4132907181212797 3.7733744544499235 1.772325172432767 -0.37911327489666324 1.7035003403495694
Ni 5.748688294584301 8.108361474560013 1.9160250218686061 -0.33831218171990124 1.3853978008083236 -0.6539590606318028
Ni 6.327968991946121 6.597930606715679 13.493462269693588 -1.1035449876277317 0.40576867270066247 0.12658569304274972
Ni 4.670156568384897 1.0796492491464103 7.751970259431056 1.5786467995065778 -0.9335724429589147 -2.3412079721195163
Ni 8.621266943439165 0.39147674019037415 2.5859095964801107 -1.8920403636079284 2.0903940305226 -0.2750507026570941
Ni 2.0435926140066085 6.617754900338615 4.529698959464875 -0.321562215955072 1.717528279197545 -0.8753495547612796
Ni 9.404659920239409 3.0683048107161763 0.3573875948321282 1.11643444199589 -0.8491510419890409 0.5979079832745058
P 7.913349024832923 3.2361210717497455 5.2300411994043134 0.6048412200592292 -1.4710708147971117 -0.3611921716418683
P 4.215258992309569 6.953828797015075 12.086701845724686 -0.8658210464455541 1.233584957767669 0.6501569132768932
P 3.853801360122548 2.8313617731035303 12.287125360343078 1.1133321489214827 -1.025008584683725 -0.5102135679803148
P 4.059707310845662 3.680970332251154 4.472659273516817 -0.9490070323464301 0.7452962148849036 1.6322131627688083
P 9.390197858572273 8.198082602591056 3.438171098758232 1.0417744912881541 -2.0779403781402794 1.5067926936787535
P 3.236675137748681 4.263810199334951 0.8429635235400496 -0.875254423944312 0.6475230751984719 -0.9908149695211517
P 0.2522728229798088 7.064829815784901 13.649642205654594 -1.7304413877147875 3.7818906615430743 -0.34173946223389534
P 7.500006398677772 3.905104115244338 11.95346118121453 0.038875336908958856 0.19683260228445457 -0.6723473333310034
Ni 7.084644718458702 7.153574285105955 11.371212943926208 0.07784040531824658 2.0381972939143864 0.8440790267827722
Ni 1.7722974844599506 6.94779041672159 8.891590109750402 -0.3020130901785508 -0.6049420073031517 -1.1126317804203483
Ni 9.66272320245555 0.9028768399232655 8.3901594416187 -0.8482701820459843 -0.27251328094722105 -1.038502762515418
Ni 2.184250250143195 0.6887669560362502 3.0062606879743416 -1.943285020715518 0.01320055785067404 0.3625702829363175
Ni 3.6026873802659365 8.369026049686413 3.239767577298673 1.7756082140594132 -0.19268875531941007 2.1564729244295444
Ni -0.07268876358579383 0.11035867784902584 0.39306662787884555 2.9482086617239096 0.16631515042188777 0.04400674459825324
Ni 7.557253624601702 9.47866059941929 13.016799290809221 -1.7889648378719771 -0.6852198184182974 -2.3707833717837876
Ni 4.341539085321232 6.266805740233103 3.588853573095901 1.0505792340639777 -1.59254746874807 0.8139451835118692
Ni 8.858172417255272 6.0280596403866324 11.147683938057286 -0.9917667919114598 -0.8326466165761144 -3.1479090724744623
Ni 1.52608558005155 6.2196913484253 11.627934259511031 1.0256279634352787 0.4513450757788807 -0.18760105638385757
Ni 1.894999625851367 4.354395294686366 7.958056516377552 0.9325789686973939 -2.736871695175693 1.397109689928613
Ni 2.343567702210039 7.629723579072662 13.32683584191536 1.502453442873451 2.005710634140591 -0.034956461470526896
Ni 0.3024195522631415 3.880330791427519 11.843848144726783 1.8202320234163747 -0.8183708233833906 -0.6879719272421377
Ni 7.951335414081987 7.45612249337224 1.0840986808463378 0.6152621582822372 0.8409204265491325 0.7854370487698473
Ni 7.577932494595878 1.9240646134226542 7.092380043260793 -0.4155630330832649 -1.749917237051212 -1.4458261812977102
Ni 5.714655494920861 1.5571132759919482 12.035928740134082 -0.5791330166598477 0.2912453101390855 -0.7039652173466006
Ni 6.5579533362501 7.615562027777831 9.229995779096958 0.47368333426476494 -0.3234560905436752 -1.5426806658246142
Ni 0.9269345734160355 1.6165016383185453 10.38345694934565 2.163568654934061 -1.778917223827988 0.12097066084881747
Ni 0.32721353616805643 0.5290644750548915 5.262314135199946 2.091812251026365 1.3648204908776045 -0.9503730594560212
Ni 7.642082068133669 9.4624142574166 10.263631255674131 -0.2893385800346759 -0.6459757853160101 -0.572135245185776
Ni 7.840193531075144 2.8925250248165484 2.7681080961131714 -0.6462668341938677 -0.265910945139355 -2.03627642274259
Ni 1.522610928871784 8.79520610330843 7.261287532583792 -0.3064024774954981 -0.392923184196562 0.17952907800900048
Ni 2.398880392612262 3.2090187925475697 10.609005948373403 1.5559663271899267 0.19593657283274643 0.15439603038679858
Ni 2.6712460903602535 2.9011365251728876 3.1046581139107507 -2.112290316375059 0.5817336875074884 0.32925084284858136
P 6.354010093896098 0.6299448679424635 0.8583120908054813 -0.7577948615725466 0.11636067288063184 0.8044878947537113
P 6.569109783821889 4.049245793509825 1.4962242399936572 0.6587359131951559 1.0409748782049941 0.02238890921816144
P 4.959369628880187 5.748660121736898 8.446649757042389 0.5359281991375996 1.5047620364019696 0.2764097877881498
P 2.1911338158587856 9.097707356829043 5.239649079463824 2.3749267045282005 -1.1392745798188573 -1.1765028680426965
P 6.451713528691467 1.506111031242462 8.904372130617373 0.16712376236611218 0.2977833683679194 1.7958772487210943
P 1.0360470723149127 5.224551250540284 2.89347257158422 1.5920633300228002 0.9419290424537262 1.6758280712452815
P 8.192034831348435 8.927355539529156 7.230678672974792 1.0878131787147716 -0.7876271144426306 2.695096925231752
P 0.6216751981346201 2.062233648038597 2.2430638863827608 0.20359923158432677 -0.7918259830153266 -1.1220412466597063
