# total energy = -381167.64865665376 ev
CRYSTAL
PRIMVEC
9.25208242007372 0.00000000000000 0.00000000000000

0.00000000000000 9.25208242007372 0.00000000000000

0.00000000000000 0.00000000000000 13.54135783659895

PRIMCOORD
 96 1
Ni 9.239878954733387 5.044133579643691 3.325487098036877 -0.36669021864196205 -0.7783294911907885 0.8064298489714304
Ni 5.182470716458322 2.4886621461307517 10.067268632955486 -0.1980597898233363 1.8792658375510796 0.3416350754455471
Ni 5.70358500845587 0.09223215954238258 4.928174454654469 -0.25722678710179564 -0.3301396732114379 -0.8254588405784236
Ni 4.0347776445987265 2.685416931544072 2.075321661777594 0.24948493837284777 0.37493368959767687 -1.0725850489111075
Ni 1.4871612290871008 3.4133707788270606 11.015421117375617 -0.9771127894437107 -0.9268978591522167 -0.369345396876622
Ni 3.1611497591170767 0.8979960202423765 11.84094280015076 1.1789970952194597 0.7439445859530155 -0.7143285628587955
Ni 3.210870450211367 3.557194400535425 12.463844802446589 1.58394172935693 -0.04855554031120025 0.9060328427777492
Ni 2.0497618587971163 6.934870645264649 5.956761768283093 0.5756386303533441 -0.6034397117260123 0.36993006573549836
Ni 8.358405303332875 7.9282389818334424 0.8080426486077952 0.7486936706022267 0.8536867250758652 0.9517555416258447
Ni 9.098793949430663 2.6506105973615783 6.457386398483578 1.0927754078160534 -0.15171899777526773 1.4318229250400825
Ni 6.59787279405169 4.722864268598259 3.161175664947941 -0.5738185464254698 -0.00870884062790758 -0.6202912360657123
Ni 2.2121451579031626 3.9150556976764865 1.3320269365817943 -1.3196302674942113 -0.7948316026108697 -0.0989393920803909
Ni 0.5313767018527372 7.3839482232949205 4.160879827579513 -0.17113339774613753 -0.30087769102252704 -1.075643119011141
Ni 7.369996082958078 7.032803938013639 2.8331097741336477 1.2429720554095238 0.16617733929244283 -0.09892627945426834
Ni 7.549282936702991 5.5744074332682105 7.428233315948962 -0.6336918257423344 -1.108504388515536 -1.7128722684827726
Ni 3.5716831616544535 6.404134187517555 13.165598602643456 0.409412697211153 1.543566153753361 -0.6877834653804156
Ni 8.875855770679633 0.40788730695625136 10.126768775200997 -2.551496957019193 -0.69289893223011 -1.1674718681886795
Ni 6.617126377633235 6.737958574449654 13.475167730220738 1.2696017421819101 -4.870525307717877 -2.676019082664695
Ni 5.299824130272982 5.358334299696185 5.915718605320052 2.135888158299657 1.416054349351916 0.856185580238319
Ni 8.13400529555451 8.996965529969598 12.225422338504751 -0.5822000856209457 -0.7087983770691858 1.00853064163336
Ni 0.38825993924366703 5.0079764414232795 6.056480712945219 0.32481106190967285 -0.9785572351997213 -1.9277501583047123
Ni 0.42770064152611054 1.5079414062731404 11.97316060963198 -0.20468063757396365 0.137259370706512 -1.3169370369327642
Ni 7.835255553195999 2.6113170031901136 10.102828086649529 -0.26519977800494327 0.0016529622223907016 2.4458523850044847
Ni 6.078340608153347 3.3770378510400723 0.9436134127694327 0.2417991396928158 -0.4408418622547118 1.5536065687084986
P 2.0241983549836577 5.1937582570491365 4.085387460816605 0.6785845724899668 0.35934380557921985 0.6453654054255208
Ni 7.08614219334646 6.531942454502395 11.151132513190518 0.23113986020675675 1.1735198741549726 -0.5198297509138402
P 7.924917484233359 8.43671492920226 4.7000837911862074 -0.5615782956055361 0.17341062381608843 0.25442377043536185
Ni 4.020492429293631 1.8466416406571728 4.095326047785993 0.9074220098157921 1.483772064413864 -0.3876066570796551
P 3.854500818031505 6.027814985885777 7.41085975552156 -2.7753438831089623 0.4483448554999762 -0.33371787748099946
P 3.2737476025516723 8.20667115112849 1.7073617166407342 1.2489493560388814 -2.417612930542817 0.8465583415612
P 6.559939256000594 8.866196596600282 9.03094842881391 -0.632287232085324 0.41372289455073263 -0.5629430371635467
Ni 2.888019033066732 8.273276892696744 3.9539144439727316 0.28748558598633717 0.6144913415544836 0.7235986753068119
Ni 8.13902917632567 4.607592573335184 12.03864592401536 0.7013308650475469 -1.6867573165632754 -0.22611978128434604
Ni 8.389381275380453 0.5059612313585028 7.609714763651368 -0.36617316979622744 -0.034544827854405026 0.08421391294475819
Ni 1.4547511842595424 9.029357070632253 2.1327234317231087 -1.0562688282495873 -0.24390847272633479 0.48909375528256416
Ni 6.3251028992169545 0.7174240522449519 10.934226692197859 0.4504300201637791 -0.5054824810532327 0.6354370905682153
Ni 5.764778281790005 0.8116676145122877 7.183623059263571 0.6035317572191863 -0.5923865392356443 0.6923741700748914
Ni 3.7480093490148905 0.5123942042870216 0.5006847687364198 1.3334437763385358 1.2184807551363788 -0.2164436916471627
Ni 4.26719920786253 4.48778735767088 4.228302528028233 -1.338396749468437 -0.9082511905853067 -2.331980025763345
Ni 5.581984888795978 6.417281396681118 8.29572059430756 1.5202439340876528 1.9215841387033163 1.4694854725878628
Ni 5.7174631321331 7.619968846632351 1.4635499146709063 -3.3894557298368397 2.421905387270584 2.977491469848427
Ni 6.6808177132292705 0.8712982111203659 1.180963560355142 -1.234738354645822 0.7481480825114019 -2.268063686725358
Ni 8.080241444428921 5.138042216526283 1.1805731224756892 0.21985374576997618 0.6005505631036754 -0.7772329156925002
Ni 4.33708018661861 7.5505782282461995 5.853956328915152 0.5198495484081821 0.23123550524435663 0.40381154897429167
Ni 5.6665211661552135 4.279485973358104 12.39437739177609 0.3058057244517636 -0.3533531352134237 -1.9328635682718776
Ni 8.43467021898048 3.0236268055581754 2.000383494753531 -0.3710035013053352 -1.0541260708749716 0.38833325083303444
Ni 1.4728575096171022 8.582120657009828 -0.5356308093639309 1.3042910660339795 0.6577221272186609 2.0734165221279968
Ni 1.8151105436625055 1.8089209005024607 0.11034681177414878 2.8190883751847644 0.4416833843194006 1.172657269044361
Ni 6.6816041402376465 7.904831213231182 6.693480113272376 -0.01908221344243165 -0.08154973584903374 -0.7633044785368661
Ni 0.6617894300476709 7.650796785360705 11.253274578246689 -1.2881057145233685 -1.0136165407966995 -0.9384739940255901
Ni 0.5584334917738655 0.5808633152610052 5.1341924250182185 0.7888645863941575 -0.634218901890398 -1.2512458653825418
Ni 5.453658505193855 8.32694822299782 12.77432155931236 -1.3410948651258903 2.480755110418941 -1.725365515853777
Ni 3.299773710487705 8.937918739764209 7.427705947249228 0.7050715630369018 -1.1251993326727139 -0.5932368030510814
Ni 4.943655964220543 4.183541878336185 8.231479685013907 -0.2350430519159049 0.3822639047105029 0.2505740576719685
Ni 3.1285824288878428 4.3183169634069944 6.367349758106934 -0.0035352668467681053 0.4296927876164277 -1.405291197298141
Ni 3.4219844675893953 5.541451515576013 2.18400402391872 0.7340566374153422 1.9735682450800913 0.38619075056873486
P 8.664602972064834 6.412488817971248 12.916424293684745 1.7467455241914498 1.1566230983996337 -0.8720333459038531
Ni 7.65972504492639 2.327509373990753 12.964374136197824 0.3837448601314037 0.20683110825806314 -0.48311799731510346
P 3.0631331976260245 0.9007457391469583 5.4785623355285225 -2.0609078481380245 -2.2915579131925563 2.82820447855342
Ni 6.248847235651799 2.2602097262386374 3.4385299666373896 0.6973731659513795 0.4255422557831639 -0.6048263076608938
P 9.131166985928415 2.6489359704378588 4.241681039253083 -0.8973144890681448 0.4405220170214478 -0.38998184218005094
P 5.47764915499056 1.9084177951857508 12.816597099657939 -0.6553574836412261 -0.376161648467507 -0.33003682908498644
P 2.9686046712191825 8.02621853499469 11.124428227610792 0.28203638994630786 -0.7623577983528806 1.5667366783325534
Ni 8.08260072545405 7.454763662378601 8.613373266322705 0.3703270440636009 0.4329992262818414 2.4466941641794895
Ni 4.931868811177347 7.674574637261027 10.372232999096662 0.6707247101259158 -0.15895048252670044 0.29217373549062586
Ni 4.974271105052512 5.36296959300438 10.38813085237305 -1.2587324035675742 -0.1754173698334721 0.7510894245279129
Ni 2.034634703988935 2.9087344456756115 4.913752308529092 -0.8847243111079601 0.40971300206039113 0.6250385209427106
Ni 5.017293288451927 7.06902584081121 3.69981062548387 0.45320192648196145 -0.6730471876115053 -0.22014196643435632
Ni 0.9454703057174461 6.533792870992692 1.7378436274854028 0.6206177661671958 0.20145930242318855 -0.15756285815055446
Ni 1.3427547261842936 2.106440115894925 2.827002474507421 0.40237147409365537 -0.8032828187020166 -1.309672899171183
Ni 7.488848334129879 3.907533754643428 5.220180354114092 0.44803118091429933 -0.5722717707636402 -0.24017960181152187
Ni 8.03896790461284 0.19487568746742337 2.657423830878853 1.1446849522011513 -0.4989544501267278 3.102112325855322
Ni 9.019781165294964 7.29906961888498 6.479743130519351 -0.6662373637785236 1.6947375065552748 -2.038297566937677
Ni 2.429569095513105 4.364031502799792 8.489944009962155 -0.6345112363198362 0.06314886474434286 0.9747142073045473
Ni 4.045898647705415 2.281748574185699 7.356437156125424 -2.1804713442266705 -1.5808798026021549 0.9587407146944263
Ni 2.200311744447711 6.778584468494132 9.375968760720554 2.1836032049874325 3.416635118465109 -1.3262634565400127
Ni 2.649167272499146 5.266479625117823 10.781493315088714 2.358141771760377 -0.44637359070621835 2.3814156546866534
Ni 6.942411092462611 4.748066941196109 9.629665487581548 1.5191537863472677 -0.610739073600903 -0.15960919915662192
Ni 1.5203947092528418 0.9350617129595233 7.231355477839037 -0.5905374018420475 1.3205985449447515 0.5149348847153841
Ni 1.5730298063193509 5.371953365064774 13.128888189892447 -2.016979007965559 0.827385368177175 -1.0935523951913941
Ni 0.5174005061015212 5.604809776203796 10.308521308919232 -2.716809377208179 -1.651014097525395 0.7206197951841461
Ni 7.590426947364754 1.4077783616533432 5.302484103977784 -1.1784288814208157 -0.6367534953867937 -0.08486620181677643
Ni 0.6458962028125066 5.944851562543294 8.068604175121441 -0.47495114523359494 -1.018989889293471 0.05583330491953609
Ni 5.3920303839845 3.0839226268945157 5.732720741303847 0.6260062841726187 -1.337421272929045 -0.07379554582491162
Ni 4.95253796337397 0.38997157449719216 2.6433273580557675 -0.5390909131362974 -1.4282357219094564 -0.23338083372213353
Ni 1.799483776401944 0.17296953184703784 10.082163560494134 0.6722974539296744 0.9354408636262213 -2.281653509594651
Ni 0.5193193880019595 2.356977256598739 9.074172307610766 1.6198708391533716 -0.3016726761199966 -0.9165782223937634
Ni 4.32171247766669 0.3993263550638906 9.305593720761562 0.17445294903767375 0.9411978207146563 0.6248978815997882
P 3.1117251346612336 2.5935252486359044 9.451136379389412 -0.4839975717065793 -1.0655762216934423 0.4826875946459042
Ni 7.453856958298356 6.125581741150639 4.870230512677297 -0.04546738830417976 1.263377358538753 1.31624463885143
P 4.921238168440589 5.1522256589244115 0.5944398210503171 0.43673786738866716 0.29831867204609913 1.3340891232320184
Ni 9.269198804022148 0.9328042048413604 0.8329168722786177 -2.352280427883594 -0.03661893677461435 -0.43718858177284065
P 1.1049206946863712 8.131090889582294 7.916575806695099 0.29627850168761877 1.2653761341363368 0.4665132988788869
P 8.772195438893174 3.992384602806014 8.134822254434978 0.04285566171294555 0.0940290992629671 0.5520438737525396
P 0.5938772944372667 3.501126780879414 -0.13592696933601975 -1.699063130513822 -0.5645990847097309 -0.41696942651248836
Ni 6.790852729824804 2.794267681585815 8.14843114251287 0.48619380802694967 -0.29916327943458154 -1.8918128209781548
