# total energy = -340875.29368910094 ev
CRYSTAL
PRIMVEC
9.18948201740440 0.00000000000000 0.00000000000000

0.00000000000000 9.18948201740440 0.00000000000000

0.00000000000000 0.00000000000000 13.44973581954703

PRIMCOORD
 96 1
Ni 9.418851312971576 7.293434435752396 4.102975910482905 -0.532831819600463 -0.9002442611204302 0.13537860874403135
Ni 1.4906534187002987 2.46846942401568 13.571455939112491 0.29840711799484737 -0.7002026649803748 -1.4730675335121661
Ni 0.46840351181450324 6.371527237988645 10.403868196261556 0.5727574521508071 -0.5104112858134178 -0.31768936326322705
Ni 5.086837675904831 2.53042491062204 7.713893663931278 -0.07435064699743324 -1.3028682175445239 0.4320561456422817
Ni 7.263678893534746 6.5951348997496275 11.223346672524197 0.38084851242021506 0.8812314674633532 -0.04609602302711416
Ni 3.9559432819972304 3.0778791021211895 9.746808297939499 0.9492201767985006 0.2739631260198701 1.0976363354527805
Ni 1.8576261867421802 9.049866048405399 4.508552772812038 0.2664917573434894 -0.10047716888115599 0.8467151788540386
Ni 2.4249756064381214 3.942048785445938 5.708417903767306 0.42610198494137586 -0.07712949529415104 1.0852371904574794
Ni 2.1866739632052354 3.520995916739799 2.1745806050957768 0.151997448247635 -0.18934529276847392 -0.6577434673748995
Ni 0.021364626343981827 3.834412384582649 6.8083501764908645 -1.4133742314165916 0.07533949327326381 -1.625104062527853
Ni -0.2061072125332835 0.2669654750072196 0.4262623859646895 0.5932594287589008 0.4081333162780971 -1.1276966451732706
Ni 1.8464425873354848 5.035312251193786 13.3848138870256 0.8719438715138403 0.24500890487936514 -0.30842156480805594
Ni 6.560462984744319 1.5889533060079566 4.274904683186014 0.9809748435022784 0.617545040779143 -0.3237877628514811
Ni 7.159460979918205 0.8860856785794957 1.830979446233064 -1.4354296685547343 0.16562583766434702 0.05145754444934364
Ni 4.319543510201596 0.15641600839871972 11.355369201362464 -0.8525760085101897 1.0480027315860532 0.41300992764410804
Ni 2.723734850736454 1.068773496628011 2.235171453647992 0.6334228883516639 -0.4417425196921102 -0.40137131496391526
Ni 5.708827754657642 4.8068433535362205 2.309507929145593 0.04601297639500462 0.07101309798376801 -0.6268359791627656
Ni 0.6182655817605893 7.171490011654741 13.295238493782623 -0.8003430193474023 0.08142272335286622 -0.8801102093747164
Ni 5.317043385631309 4.747460921846767 8.691044350761002 0.8554160490621461 0.11179105123207846 -2.0919210086900875
Ni 7.293204698706243 3.061751561481296 9.08859144385302 -1.6936419594982508 2.3472323239367254 -2.214111400878619
Ni 2.4448156977438362 2.0211989636026373 8.485263364833255 -1.2534729549408477 -0.18098406528797217 -0.9439771832320064
Ni 3.543776642236263 6.703506459160604 8.616304457010358 0.8419478393723823 -0.990963579283874 -0.1449667666530987
Ni 4.710022972805784 5.712788421333308 6.353332063933381 -0.047798093319885424 0.31156473842272797 0.5524750477526872
Ni 4.011787763175938 1.5220446886865526 4.502299330415772 -1.2675111782014687 -0.407693143416885 -1.6973212081220512
P 2.860952193662316 8.061215643993473 10.124758820994723 -0.3159865216395074 0.2488362490452553 -0.5356407498041679
P 6.7097736857796395 4.255970674790324 6.761598687598866 -0.3357153675270025 -0.2861712380502878 0.586939400078144
P 4.021069139840492 6.09859962715968 13.474213761165318 0.18924476263486764 -0.9429973358172405 0.9106667420053349
P 3.226730329064205 4.268018085490552 7.937495812003154 0.6367558093796388 -0.10485678600609039 -0.35173051200833616
P 0.19649685241863935 6.699582550412321 8.198125139277492 0.420005899345967 1.6176620044275107 0.2947219558337763
P 7.313550211513494 8.87945629705145 6.017518990935232 0.00516226092722982 0.9101622915650907 -0.21256466830773071
P 4.891276312738124 0.07998341209202504 2.503802981713908 0.02950495143765241 1.0307028068550248 0.39975151997230507
P 8.930807121607417 1.3994294324141325 11.734706417228264 0.5723897843987433 -0.9636314671278242 0.4670470598951698
Ni 5.5827021163200135 7.314156717315337 1.6514390257168357 -0.3878295717237385 0.07456687677329739 -0.9516190160479804
Ni 0.5398030289140927 4.02003991787373 3.7264782445075473 -1.8325028703639281 2.708559735604877 0.275048645774565
Ni 8.476754823591957 5.1056853031711675 12.555435581970162 1.2833350326076027 -0.05328225636290824 0.2749213761680813
Ni 1.1178269507224559 4.6669426819113 8.61751471176949 -0.6220853518516577 -2.1957902339719277 4.158064908416071
Ni 6.420442849855398 0.14324839986145294 8.094293183898486 -0.21710420804929706 0.4053436693481019 -0.2131526796007168
Ni 0.06378327454554754 8.266977332009343 6.513532300956321 0.7668299751916213 -0.6065641162876069 0.260990367909286
Ni 5.081682376589172 3.2547582486947895 5.5461601417590245 -0.012202198493146726 1.2101454957978062 -1.0541736362834555
Ni 8.718392248734975 3.3707386990743307 10.859800662262725 0.30629783359683377 -0.6690380664521123 0.3430370979993963
Ni 6.286892110186128 8.275707339763132 4.192174534970192 -0.16995788938079762 0.6059141414084339 -1.5051050215636854
Ni 7.908578350529868 1.1225319654276555 9.684562423706803 0.7050893036487147 -1.6839198471144807 1.306105750645215
Ni 5.405960811974106 2.7366093148028305 11.93247049919348 0.16723971911868618 -0.7072210052797369 -0.7584314667152808
Ni 4.022309719889715 0.008348644257175573 8.636626996112993 0.6767961131309763 1.2886929544854064 0.8678355057724215
Ni 1.781702687729759 2.2127261442389092 4.131476169480377 1.1238718721105418 -0.7334570561581304 -0.9926427667585098
Ni 4.900043078419296 6.317327674060388 3.900086854492123 -0.23165459505964617 -0.36610117890771143 2.0117758664980645
Ni 0.24475725422976644 1.9898536410256138 2.1071831073401612 0.40351278678695024 -0.3555344591354586 0.44257555711636687
Ni 4.7310209388241065 5.418844465522327 10.671450285500647 0.614102076535865 -0.6944734758060813 2.0577142809013917
Ni 2.341342132156828 5.974229179854657 4.3020320335956805 -0.4471819455401266 -0.5263001891295324 0.5789227004212546
Ni 1.294752044705286 1.7629010078726526 6.285034915905032 -0.8396402742851281 -1.1436711662246561 1.1864391533198018
Ni 3.2648574892436457 7.7616201568471475 3.0710182349748965 0.12081665176945644 1.224897457296 -0.7387841247979986
Ni 8.040043077820075 2.7685887116272343 -0.080571538930175 0.5518633823106173 -0.5094831175721934 -0.07355823300312493
Ni 7.076094000610448 4.337876526484552 4.556783768281258 0.48112384970321004 0.47798273297106714 -0.03187782254520317
Ni 3.169654457318121 3.878806771381125 11.77280876580672 0.3762125563101005 1.198766050316271 0.6364701598184199
Ni 0.6763486207170053 9.187542865423566 8.968014414654064 1.3702979690524077 -0.17326021428115324 -0.5476082065786891
Ni 5.356328420523356 0.49809472765923 0.11145279267397083 -0.7721709277885606 0.4573316323796188 1.4849249470713846
P 6.012448234852558 2.8426007984156683 0.6320525613742828 0.42150870914373856 -0.4440899368783642 0.44167849922339414
P 1.3194717508712763 4.44261824056632 10.941440937931603 1.1564366934204406 0.6201253999118094 0.5271867054995436
P 1.122789270919346 8.491807194855857 2.366346712260048 -0.1893365510177255 0.37531292731396654 0.20275102465141856
P 3.328320050872765 1.0248477734036858 6.58126521479932 0.9804660221866597 2.5182790755063276 -0.22669879371626767
P 8.921057081368712 2.3105849364179547 4.712369966469276 -2.039813746471887 -0.8593315820664684 -0.11859084776273122
P 7.528381918111458 7.810517389750208 13.195158603841376 0.126926107101304 -0.09885223168322331 0.09580341755457049
P 3.249795928497899 1.157424427997271 13.149658722376817 -0.2889842820190507 -0.07436864471956224 -0.20395301537931973
P 5.823089771931963 7.240631673064745 8.039404408831771 0.09193904950315779 -1.243541811870065 -0.12997903499501487
Ni 2.5003753049853157 8.481799849125462 7.106732652033507 -2.3875698472135074 -1.7987149752802054 0.060998394060243336
Ni 6.118007812818629 4.8617321286029345 13.080809286489519 -0.6652528883780672 0.2787682607179974 -0.12639954517387264
Ni 8.036964601401634 7.856032893333908 2.0156852744949814 0.3580973347666284 -0.8021196516318508 -1.2206415102331236
Ni 7.8580178214126635 7.858991906488349 9.33543471046185 -0.9738243485004261 -0.7310826423886829 -1.7235834842526896
Ni 2.0148030842377564 8.845969825204286 11.857623088505237 -1.085104521534357 0.1652507137131154 0.6904661544189011
Ni 8.552338311776072 0.21577362848718884 3.664219505000267 0.6797551957593003 1.7888344829417 1.2036516605433465
Ni 2.5640216562513563 8.340778060715317 0.7321857503102361 0.5120956154943761 -0.5710281281645262 -0.6414706983568049
Ni 5.090421573824807 2.59557833691084 2.5742927401107343 -0.7706346936496922 -1.3342935259333408 0.8082432480310854
Ni 7.483629141520985 3.1578184047003535 2.4514560173258233 0.05935263092670424 0.3803319777951127 -0.3162107218351715
Ni 5.220020836300257 7.602789152619273 10.138356497282386 0.9818405339366832 0.3721604977279139 -1.6286904943275304
Ni 7.90986487798832 5.402036903225824 1.53037771082459 -1.9035612197633345 0.6717840046283656 -0.22662963104122905
Ni 8.980513028912934 8.386082206216557 11.157214566418789 -0.06622801789029885 2.162854659586172 2.4042910166229303
Ni 7.670212380924059 5.522152620436107 8.427832779087911 -0.9182913484301282 -0.31187712745682417 -0.2062382118690706
Ni 0.8522941159350421 6.1351278174979 1.958886925100649 1.7794322157911935 0.5125566142911947 1.0507517550860999
Ni 7.311023104005819 6.717162029183898 5.794199878904216 0.3294555026602197 -1.5704994878090952 0.18763062407021236
Ni 3.456697112262685 5.5048304471562215 2.142422013375374 -0.4124630540017025 0.6268516628920494 -1.3229385059318377
Ni 3.997966782479414 3.5417273877845843 0.6082858044757322 -0.6410536654240443 0.4072185177733116 -0.8638328123709317
Ni 2.372871244370774 1.8963874211690008 11.076086144888741 -1.1865221999519113 -0.4067251230766608 0.1832263243549296
Ni 6.706814672625198 9.397991189180944 11.662063563234899 1.1391156856434896 0.004785594314101436 -0.4305268534819488
Ni 7.450271322419667 1.8944851984268596 6.655238705764 0.5119161524937184 0.7160051792302701 -0.13454402865787796
Ni 5.2965140831871365 0.4348738494026633 5.922994142769949 0.07425962994552371 -0.2511540985451546 1.7144596675745505
Ni 5.4311583711960925 7.326773875890022 12.36475842840465 -0.7649929219828826 0.16228134667214633 2.457910601720599
Ni 2.8433727148907404 6.492185134627847 11.703744296044222 -0.7220758109043822 0.32460948742182805 -0.03122579078350106
Ni 1.872016915313162 5.93256406916447 7.126288788350179 1.1881044568373667 2.0181668576260727 -3.638587141525011
P 3.5235505926930126 3.9211519037279223 3.8069073464691083 0.9816690413558256 -0.2013415458984016 0.26959713574169053
P 3.4800567751154534 7.4515486603962735 5.536247447691644 0.3780663216893876 -0.6728561546466219 -1.1570007934540267
P 6.973952909891123 6.403157434502897 3.240578878206268 0.2322914573126967 -0.733186318995247 1.2305641686634743
P 6.906401028840493 4.6415613330523895 10.677718431067868 -1.1149000076292348 -1.0181139144464209 -0.13421852699765915
P 5.515076719414615 1.3785049822505786 9.956112531207038 0.6602842315188823 0.5033744335712943 -0.5651197330998913
P 0.33814352559431826 5.636956817139348 5.47115099619029 0.2802633572062851 -0.23716061247953996 -0.6581939246487568
P 0.12261893206515856 2.1298829653963804 8.145885691827006 -0.10251733923963635 -0.8872514484051881 1.24521971379312
P 0.29292208542969417 4.191469701712597 1.0665790483631639 0.1959579129889851 -1.9415862928568561 0.6200361826321128
