# total energy = -381165.89605441375 ev
CRYSTAL
PRIMVEC
9.31556686877754 0.00000000000000 0.00000000000000
0.00000000000000 9.31556686877754 0.00000000000000
0.00000000000000 0.00000000000000 13.63427374438281
PRIMCOORD
 96 1
Ni 3.5829626115744944 6.968453838486799 11.923635767880935 0.6300814826832568 -0.6304254962862369 -1.0664272568398279
Ni 1.6607326682069958 2.791484111005873 5.631991392206329 0.7690493514404433 1.227610228241473 -0.2995965103172582
Ni 2.4060245886664027 5.291530715211264 6.357906933757473 -1.2044170779544614 0.12774243235501223 1.1356884051294958
Ni 1.2428642890300996 4.285067564428754 3.68726621817168 -0.3560839038810254 -1.8004088180428608 0.5552384694304373
Ni 3.262348749610225 1.0795996655944198 5.313303989452747 1.9994800798498469 -0.3961512042155565 -0.15590732482500244
Ni 7.950752409034678 1.8736213158947508 5.727472225503507 -0.7791116207724518 -0.32836844024362805 1.9972038822211602
Ni 1.2107628458965065 4.2226905292509995 12.945660572974145 1.3112656975795998 -0.8578783945597096 -1.1119100717629753
Ni 4.331542927108236 3.550935692975164 4.720867478105898 -0.8418727631600726 -0.7034857066070207 0.2832995729294476
Ni 2.0137181247415605 0.4452887500021232 9.090215769888847 0.5906518159327246 1.0125402770133851 -0.9801556900350926
Ni 4.4023412346576585 0.24867253437059608 1.8833430413893004 -0.7983951515924121 -0.23161397162969788 -0.1742619160727902
Ni 0.902810702303444 0.8238109697584286 4.796032923363105 -0.2971081966777657 -0.23605940899556122 0.4667403272880284
Ni 8.351591932132582 5.392464881303105 3.0951026529315686 -0.01398602986644688 0.1988835712762123 0.6424176356511064
Ni 6.845264783350806 7.276733890030616 9.620684199439708 1.4975014981848145 -0.7897050800175819 -0.568832148954472
Ni 6.324058821852101 4.862176242191152 9.027634723798549 0.7248795989017645 1.0237860251305335 0.6526560255496631
Ni 6.675414054199672 6.922807561250988 12.088242764490019 -0.246008292678157 1.776806091022256 0.3967145329181942
Ni 4.710965962172439 2.5947113938523945 2.518946026094374 -0.9266116953703655 0.5152274762551385 -1.4577946665134958
Ni 6.356924141461885 8.019696918794319 2.5271129834928705 0.1920878885106176 1.0549948466331702 0.5700585651624053
Ni 6.805338264119644 0.2097325336617358 10.919498714124094 0.13890230562657366 0.11291796574767006 -0.17920820433447202
Ni 4.301947371439221 8.22662360374107 4.188980287734014 0.4903286561309298 0.3327668264216398 -0.6542251698089958
Ni 1.2411595403088436 8.830644953939032 2.9789384667064978 0.8690899470048129 -0.7640359573862519 0.7825954655559941
Ni 1.6779478356216448 3.2844080117519394 1.497602188932989 1.6015427302681449 -0.03346496452666495 0.3716264796013148
Ni 2.6253223463007367 2.7858016152683533 10.740521524195835 -0.46543729220588875 -1.397339289440916 0.2501781077851304
Ni 6.977201155695865 3.648115685653528 12.105953520057513 -0.7991744529605979 -0.9774784003132456 1.1753039626385886
Ni 5.188342181957982 2.320470423332996 13.650225767015744 2.24440079589078 -2.582934606703184 0.5615939793348199
P 5.748245007872515 6.798593793768883 7.406233310105293 -0.7425430776197985 -0.7798441280631021 0.37764234677809155
Ni 2.507666737833737 2.175101003687111 3.4017515487317147 -0.256265708740107 -0.8487368372697577 -0.5426999706437944
P 8.444048932452057 7.517802127236399 3.8367661601290672 -0.1994160467409146 -0.0413875618078513 -0.6348418801863775
Ni 8.478684209750577 8.768845483901812 5.639612457391353 1.2016690828956789 -0.18240845643932455 -1.0355907310749455
P 2.3157846932412385 5.7789304848551195 8.616465168695179 -0.25397382738213675 1.7655456876170883 -0.7852938383237636
P 3.382547507808934 4.512255607128135 2.8347157933315774 -0.018543053109510002 -0.12379501767149002 0.29879381191030474
P 3.397424467961095 0.3341782587567319 10.720152105868523 0.3879563271095899 0.015018327785703167 0.6644391342275202
Ni 7.763015791660534 0.972070078220344 8.495679529789152 -0.6027226310543298 1.7233981077147607 -0.3597916917499158
Ni 6.854217043029094 6.3030615343236285 1.0994641802021023 -0.20862162449958263 -0.952607862323811 -0.48701219016318703
Ni 9.300326515561965 0.3354451758391953 1.3636042816588905 -0.8404915665418298 1.6649535904246229 -1.3985417943894494
Ni 7.936257387120612 0.8732244622012117 3.7672180016418997 -0.22767349892471112 -1.781268497668984 -1.4881403686848886
Ni 4.804773719675424 4.348022164747042 0.48802111794826897 -1.08136330932437 2.3008830472482242 1.453744150593206
Ni 1.8643709580794119 8.544843365042155 12.381106484564949 0.4171743434344428 -0.15789607312025714 -1.3871088699621594
Ni 3.038169634981694 2.4031647096640776 13.312940766736943 -1.272160761158338 -0.9037659011204434 -0.31715046004062153
Ni 0.5058343447503747 1.6272711523231114 7.375392263157415 0.12333196199214243 -0.7613704947389468 0.4489292672485366
Ni 5.5063849474901945 0.80022488622101 8.184736157702126 -0.9579225896685051 0.049934680046914 -0.3178204895244527
Ni 2.1937787150866623 7.676027029042572 9.597956079602987 0.20004725256701034 -1.9171674976928597 1.4347760941311354
Ni 1.5820720222928752 5.69488544134053 11.045833636162646 1.47296700337856 -2.116549862982361 -2.432765469913539
Ni 1.6824845166448774 6.328157671236541 3.087808564140621 0.45882132955126786 2.073268683696223 0.0010387256771595013
Ni 0.2290688556328325 5.979457375422073 5.311286237687588 -0.34016234755476255 0.39601442152737604 -0.09284073538182075
Ni 9.047241197206347 2.8262404906725695 0.3884898762139213 -1.8031203034367524 1.353012699609399 0.04818864389008475
Ni 0.9777525739578633 7.646487366774255 7.384732050413868 0.7421756669780508 -0.8800806416883618 -1.1075775058258923
Ni 7.7097866430635085 1.4042564835424327 12.985636464709254 -0.650094435470074 -1.3424382665276622 -0.41108622825883395
Ni 3.8548187969974914 8.16220645943788 7.6818632316320095 0.07811139959144611 -0.18195157140756407 -0.21761945712281877
Ni 4.634447896618368 9.200491586350498 12.46794340344435 -0.8259959440288163 1.4346812204244839 -1.2303247989591586
Ni 8.7349647675127 3.6058789058602283 9.018580924442327 -1.431745534834928 -0.9859296164043924 0.5893917182733786
Ni 0.539291202850868 4.041847431296142 7.1418510039121506 -2.5825782518050295 1.5354036725472267 -2.956437220281289
Ni 5.015072639797555 2.154392498728905 11.433034237933827 -0.13095374020345835 -0.35590649776289673 -1.2724538669187246
Ni 9.072039235982212 7.333512269571897 1.511986355602339 -0.6810489748700593 0.9115419455214366 1.2230130957890937
Ni 3.841497536498061 5.894564615330247 4.820969764084032 0.7209882342671584 0.38143626660288504 -1.2884947224316712
Ni 6.514152277622299 4.127932583936169 5.464084821842771 0.37888701781847006 0.8038929414821898 -1.4676347925323692
Ni 6.304030353269042 4.126889240456493 2.9921367617243955 0.344873894097819 0.6116199335439596 -0.23884365660891774
P 8.585990223521865 3.6562388598881457 4.904098155827193 1.260655588732216 1.9661796659255042 -1.1376429577527052
Ni 6.071756011106241 8.493915161440485 5.8703860617454415 -1.5969013748413916 0.8155053289101375 -0.9786099428145274
P 6.984420719952551 2.4934511829231556 9.919207126335202 -1.4707674246240798 -0.1393532771210632 0.3803903418368739
Ni 9.15888826509843 2.792108253980322 11.55718745423184 -0.14432347664214498 0.5945812328941179 -1.6031244729329683
P 5.702375157033915 5.289574446186872 11.446927474233721 -1.461506311037128 -1.216489435737963 -1.0466073939004232
P 1.2118341360765306 6.492866207523559 12.859178577189168 -0.1376730612051629 1.0903963660609157 2.149231155265466
P 6.788253514639955 4.034059617465705 0.840442982692473 2.2916491873547824 -0.5224602465581518 0.2100161908542641
Ni 8.986233550345668 8.591151047519546 8.90868890933213 0.6338350361884181 -1.923115230635862 0.6102976151881102
Ni 6.157021393869381 6.414475713046139 4.364712865751819 0.5801352326721171 -0.04242860147785596 -0.12203946843296401
Ni 2.307288896335308 7.813226696619926 5.247518388389159 -0.8332127734922296 0.09042158441736685 0.24764711383316057
Ni 4.864402662652246 8.113979770203226 10.035125381597204 -1.6390576964944676 0.6209504669162661 0.06325582263585236
Ni 4.05816830429964 6.596147896444669 2.3990053090955485 0.5390592885674135 -0.35062159521487357 0.31073941430795515
Ni 4.18993699644261 5.4227218422137 9.8585478816722 -1.1851430602161976 0.8942037113533052 0.19336469834051212
Ni 7.545124684610405 7.904677615726857 7.369897941868907 0.6980293114781397 -0.8338470646421188 1.9646408606834744
Ni 8.593498570348817 8.01781517430419 12.82648373245151 0.10775570482044024 2.5517581811003796 2.3603215530205155
Ni 3.5058576653131044 4.347556386407901 12.181009973183363 1.3840441149939067 0.8963778361864885 -1.4609861768676
Ni 8.072926067391345 5.137861125561888 10.766263229886796 -0.689257993043413 -0.31534451718013434 -0.1522998099794022
Ni 9.194343312273837 7.1097709865821574 10.992455438497096 -0.44672660317026286 1.1158675137488268 -1.8422226687548533
Ni 4.571642345368604 7.58129703042809 0.3065613294723878 2.560107067285707 -0.6096381272272404 1.2484089101543792
Ni 4.6251602765358975 3.2149977236531577 9.30055195227811 0.24571467269713812 -1.1852914128686038 -0.5122174857842211
Ni 5.540517184182442 1.063250845890573 3.999491412248022 0.1771952876695013 -0.7312551634108051 -0.3990658067591901
Ni 3.0705971229526856 5.840748586025904 0.27702073564739155 -1.4998242327807203 -0.40499579909037997 0.9662017989581617
Ni 2.4201749346095043 8.035738324794332 0.9469087323399509 -1.0334952819984975 0.41425691267733167 0.9612367416434026
Ni 6.650411072954587 1.2185692908605086 1.673102809337901 0.6042899755414496 -0.23599513141652903 -0.08184772670542678
Ni 9.081177806996157 5.944170008448757 8.924804839866406 1.6767318140064735 0.8632352879962488 -0.6072621707958961
Ni 6.441993897322585 3.2579331709551687 7.4490988906564315 0.42596006004687287 -2.692725082565466 0.9972969777010696
Ni 7.764748487082138 5.511722767256749 7.139819278796818 -0.7717369255749355 -0.4117130632095555 -0.9232157823149391
Ni 0.20198663988182208 0.2164304261785824 10.749875284802462 -0.34412210353345896 0.6812700897419299 2.2069580776632893
Ni 4.532107079942322 4.634354740950539 7.173931952798822 0.2086717610112277 0.8281163328059286 0.24774661552550237
Ni 0.925757737959561 1.2184202417919834 12.804055573865197 0.3732259628779508 0.33101796205133316 1.3316103226742229
Ni 8.992838287194687 2.4979692328128227 2.59795600576285 0.05100400185169281 0.6928462246153035 1.6102104332454719
Ni 8.53732570264842 5.5693302322416995 12.987491194055712 -1.0523041871748844 -0.3034634494718322 0.36467447376351386
P 5.571985168774803 1.4835599035645681 6.034502127985071 -0.005688308634028912 0.5920448396255094 1.576507384566072
Ni 3.154521064099099 2.0013470520539776 7.679190595522018 0.8279733794701613 0.29803713624993833 -0.6764716399120221
P 0.7651825186540809 1.998748008921571 9.661627978563551 -0.5499527955514658 1.4394367328315985 0.2403248691401345
Ni 0.561860958052281 5.325672267470295 1.2148477219307725 0.6908600474232103 -0.9391195980293892 0.6624316168791883
P 6.524501872318011 8.89928204999484 13.341382123681568 0.7374947165626138 -0.20505164776013718 0.8169945118611541
P 2.24063601600424 1.0016749494561417 1.2899004488299075 -0.10044477298132379 -0.12010471330409637 0.4938011880605625
P 2.161649325252721 0.15763429487214417 6.860561875564872 -0.5122406257126727 -0.6821782033784961 -0.5102513631967859
Ni 1.9507076310225753 3.7881752322332067 8.67150712658814 1.6493256540793788 -1.272738745148995 1.5766724493890263
