# total energy = -340857.5475323192 ev
CRYSTAL
PRIMVEC
9.43973085110935 0.00000000000000 0.00000000000000
0.00000000000000 9.43973085110935 0.00000000000000
0.00000000000000 0.00000000000000 13.81600028321221
PRIMCOORD
 96 1
Ni 8.970557305744272 6.335277096286479 11.272046745945918 0.8655557085993093 -0.09344468751440681 0.06353273044632284
Ni 2.575356798299542 4.596827951809923 3.93988121402398 1.516466983543724 0.06835432020468228 -1.049096478870864
Ni 1.8609485311496248 8.462284440211045 8.967385556193364 -1.4010697030176258 0.7805884624282944 -0.6050975590444095
Ni 8.770888119729882 6.7385990347155085 5.415650969354241 -0.01827540127042014 1.2008743549085252 -1.8299132552598805
Ni -0.07089615424746952 3.88375068670369 12.359835069380432 -0.0028066162108596826 0.42748755243499287 0.16888625358317366
Ni 4.02247697063275 8.433559339367541 8.14663211369916 1.2144654633293988 -0.5358441240642255 0.5906441026232409
Ni 4.999753421545088 0.027725433351118812 6.182231684697376 0.5607524572701311 1.4868908125485039 2.7998151287774493
Ni 9.072468639528848 0.9962975084869881 1.862783614818365 1.4814737552979904 1.1217499406715326 0.9055900988133758
Ni 6.104947664613298 0.4163619825648217 8.96746862582446 -1.1473689267912175 0.5179333052220757 -0.10289631984560989
Ni 2.993480234632815 3.9364055051411078 9.830650826373638 1.4606779015985618 -0.5632793374570428 0.627364597972726
Ni 9.37692827722373 8.179375707946898 2.423119427667457 -0.025318681270446716 1.0530978867207734 1.526298367811849
Ni 7.11952049194124 8.955670850262774 7.013443404951853 1.8481413482321332 0.3409408775919999 -0.007920797508973457
Ni 1.2628943859178883 5.5315406565167535 13.768238185811693 -1.6840553442510802 -0.5789391554814868 -1.3347252141541208
Ni 1.3807966236882991 7.625140793117903 13.05372985751523 0.09253991631195031 -0.9885670540272393 -1.126037255192977
Ni 0.5131607581447178 5.841456458617663 3.2224578968545368 0.919420834048881 -0.9872179961985127 3.1326585740732953
Ni 7.235232712164595 4.693160404687988 1.749520060766159 2.1754101276536795 -1.4903150077387042 0.38231866920783836
Ni 4.4473309350309 4.03300227048175 5.613883428339916 -0.4925732291907323 0.15703346800964568 -0.4640879772668459
Ni 7.852779901511295 2.8080650421359046 3.0247502869016913 2.6271984616175654 0.37818510665543903 1.1590036828166685
Ni 6.604413261304268 6.4001563661180265 11.825377334563672 0.2782851504339917 0.7449874253952331 1.0935948183935553
Ni 9.23683323232776 2.892654469890961 10.153613280421904 0.31253481564548113 -0.20541520174714303 0.7565933850652776
Ni 2.0022518615887983 3.3416647054223754 -0.0414347544010762 -1.7720492930635612 -1.595082062244466 1.2215244270587091
Ni 0.4581346793287627 3.6720458439112953 1.9478488050060576 -0.20291094726805053 0.7024415816132225 -1.2686771734851119
Ni 2.921558925619784 5.426901240529163 1.280531578956338 1.8857301051191844 -0.9141220475437869 1.1056301522915346
Ni 3.2968354238233615 1.534900229100786 11.169434984135519 0.20446877867347368 1.8612395761769882 1.3508226339366154
P 8.12580523562127 9.374794898061511 4.118480920878757 0.5676646110089321 -1.0222955566279361 -1.3149302909153806
P 1.3755670128216213 7.640452036485686 6.021013354176198 -0.4176183729503969 1.0438090052196798 0.8423525310099687
P 9.49825713727682 4.504564022909363 6.971830239638538 -2.0716283198793226 0.42785496307674054 -0.18757868778635436
P 8.65560068739281 2.6591438489360644 0.49616829872033696 -1.1731414077696312 2.5565203783757133 0.27897266341931953
P 3.8094411257966705 1.9784826194185907 6.332412137986773 -0.44153708854952345 -0.3585657897626148 -0.6739025936332652
P 8.20716627544058 5.135666665693877 4.081260062309603 -0.23768845995855195 -1.2425051430754344 -1.526937029837112
P 5.759283601949013 7.4120011112429545 6.599157219191333 -1.1748136532657316 -0.5020305179488902 -0.1569092837269556
P 5.985752183722427 2.526685546262373 2.5931393631924085 -3.6960980912572863 0.7598265472905947 -0.5172972142999737
Ni 6.124657822536806 1.6543789019158452 4.714641456110755 -0.663836724756831 0.012921593157674521 -0.9433238659187237
Ni 3.9194328691514206 5.704910752504853 7.470477411668604 0.5098896089819929 0.21750864257656735 1.1948011521312518
Ni 1.0832940675976452 2.7103355090985097 6.727065571616397 0.2908305911991701 -2.2638545337400173 -1.3120025757456244
Ni 6.3131314878149505 5.559255706163985 4.697205329338478 -1.9087728458712612 2.870960638574023 0.4759741871814706
Ni 5.397864628569052 5.0825115415237265 0.7132754994531642 -1.758043208592456 1.5551659427758184 -1.636009653696763
Ni 3.862114823695701 7.368701066034558 5.548063961320063 0.034903239635088276 -0.14780552165347446 0.034863901756720606
Ni 1.1789562995884655 0.8181877236610561 10.53056910673592 -0.7271131162179735 -0.1437668328077266 0.48970824893811143
Ni 5.174312923614779 8.43823200611665 12.174079102601416 -0.7170673019461974 -0.12139514998074576 0.6517913635565227
Ni 9.074120592419948 8.687091629362554 11.93381907412003 0.1696688973854691 -0.29637568938711534 -0.667687980182121
Ni 1.8510273740722267 4.371822528311482 8.042169220677648 0.8915385058163161 1.562021275134755 0.08797697953161622
Ni 3.7107959388710663 8.329561825074778 0.8098042987320007 0.3972598638987029 -0.9986632619209769 -0.43021189334469134
Ni 5.134807650190506 3.0400936253542152 7.749891555588268 0.5126149783329558 0.48422408589508864 -0.11973935954487766
Ni 0.01275213234620081 1.0864563774177483 13.301948523039387 2.628506896016344 -1.8448647343633904 0.05393120280081679
Ni 9.26822977698944 5.02868619646633 9.31433247827422 0.4282609402659076 0.6399162093854914 -0.36959890764832476
Ni 0.5282142968614891 3.690226765444187 4.296900328875135 -0.9723143396138028 -0.7447364857266916 1.7300585504540722
Ni 7.277560465099945 4.528267186963926 10.609113330882634 -0.2648182262958084 -1.3714505945996123 -0.37400706401834943
Ni 6.0826510204488695 2.9342648032850343 13.678282271093266 0.9378109065202945 -0.8784065964200485 0.011578963086851028
Ni 5.147617364894625 4.660734929368424 2.9840216243649245 -1.3460020726195205 -1.4986245560456644 0.025070826925698758
Ni 3.9386993597270332 0.18345550438152716 4.386414464191827 -1.0570686984430633 -0.5075990131756033 -2.7585651209887265
Ni 0.03879351772147964 6.582739639373053 7.51481299534645 1.8444073351109977 1.2990161907882853 1.8680964511978215
Ni 7.37473305401977 3.826451520709583 8.116098360433174 1.0493710726884897 -1.4714562231609885 1.4583577381058175
Ni 3.8513912894997695 2.491409272239313 3.718300524862057 1.4808898577700624 -0.015550803250405478 0.5317905228201423
Ni 7.256490985940332 5.96520188975716 7.092318963649869 -0.17845075734315716 1.3078666992003796 0.2372770834527462
Ni 7.06068264982571 9.288308084414393 11.05737310781495 0.0946461640216757 -0.07058166687330426 -0.47214710012589656
P 8.2712526078844 7.568596805588298 9.62548299716459 -0.4365830869783578 0.1870058460020199 0.010830257846284573
P 7.140325658638276 1.8438814978518743 6.527687129310841 0.5011388593725563 -0.05881089949062129 2.5770773765914585
P 7.163736191037846 0.37561444056644255 13.679718998121983 -0.1877643214345992 0.08687783293016652 -0.7706493489377114
P 1.3664671123243695 1.415298839785245 8.473601733474693 -0.05276469329654138 -0.42063684806174656 0.01982449092509489
P 5.807463987984256 5.276054342244842 8.45660833007723 -0.7069158153344922 -0.6377405418904114 1.3866589269089344
P 4.340680856381572 9.37383204551927 10.396291767935859 1.6929742440072648 -0.5010653258221435 -2.1801054762468195
P 2.173365861914198 6.430722214468754 9.311846053179847 -0.02488853571156359 -1.0267574490540317 -1.6498331898434166
P 6.972770436826845 2.047779683267477 10.155091542266167 0.6563931239945922 0.4642430147874715 -0.4668125752868606
Ni 7.296458806174113 9.077141306277957 1.9649941880695 -1.5360657316112576 -0.41593430037975465 0.9206333662997436
Ni 4.051749575863018 2.8008625275307146 1.1541373593525996 -0.8431061213465415 1.2882489249694524 2.094919172086463
Ni 3.889452284110682 1.0502927686988976 13.421788737544327 -1.1988547533753353 -0.4643612855328906 -0.547186031439606
Ni 8.930957635011938 6.255851201282457 1.3639485921452548 -1.6777900800676588 0.43102693304681894 -1.3947327050560043
Ni 6.214420222773702 8.377855487879696 4.39486963107501 0.8091251364154064 -0.40799267693517477 0.989076132453174
Ni 8.53868962135706 1.294366448426019 8.678203178835362 -0.656808871375772 -0.632791425415252 -1.3726991222947327
Ni 1.684199011532877 0.950203302959933 4.655287260720121 -0.4018459406074885 0.9301981271700432 -0.9440730853799224
Ni 2.2044697749208835 5.709979887947824 5.950524052326479 -1.1688456086077548 -1.1734813076075532 -0.380764437346841
Ni 1.939704205266401 7.908115603497696 3.9753746018555844 -0.2854886101609664 0.5663505201831988 1.2379347500959326
Ni 5.263943167620388 0.9083163854532361 1.4553912644656684 0.7084726182986508 -1.9212663503525815 0.13244060916163
Ni 6.360839887309879 6.674097354116212 2.4516075912677224 0.20945723302700056 0.6263394991423212 -0.1573268308803484
Ni 2.1267524711927974 5.757707166904366 11.255716011651058 0.011661495498328303 -1.0379245214144448 1.6130453315911057
Ni 2.848863558680638 8.052326371025202 11.037754515280263 -0.14572061409998774 -0.32379316216811976 0.9470707345556657
Ni 3.951612911470022 3.897400537449568 12.96501715534399 -0.7001568993441037 2.650175639239029 -0.2854775544173729
Ni 2.2861423258568 0.0719147012014669 6.8147974857568645 0.04790325143918202 0.8164923754137551 -0.44298384829837906
Ni 2.2451927736191664 0.07156259924239274 2.1991476546923043 -0.4217082267490544 1.1832067624254332 0.29369377167957805
Ni 6.777273611828829 7.721237252725812 0.08358598437034889 0.4206059948238111 -1.0135103542361383 -0.0230270570227926
Ni 5.96989343596788 7.301565700540309 9.572332592859844 0.8029984546923783 0.5264058614694612 -0.4210423110302813
Ni 7.470895591743322 4.052297080249782 5.803949576205079 1.2608656478604932 -3.0455421427697615 -0.21923231013589337
Ni 3.6622946019884104 1.6084168526200784 8.837708198215202 -0.9516295575709416 -0.8186207346106675 -0.957770894581989
Ni 7.915336997564498 1.9583287941471874 12.109046909130807 -2.1104342370029268 0.5928717064021789 -0.5620796607219868
Ni 4.9480142569958785 5.3655618697499685 10.550920222381173 -0.9762985210725315 -1.6106030406982002 0.010398055404872415
Ni 3.7411069144900244 6.6907679187200975 3.1411506635008237 0.6678383897170563 -0.3226755036239088 0.08272807242785107
Ni 8.711625489728071 1.705627200463128 4.978250658741468 0.5082515591579375 0.4919692770581462 0.9185769979913472
P 1.958970695842014 2.5458387600683112 2.883550793501387 -0.21443745985041135 -0.9401914909373291 0.1104777317372936
P 8.495955959997039 5.755300035548765 13.252044442158917 -1.3080862714103536 0.16884331616038017 -0.7741193097641829
P 5.021360965360659 8.321613571735892 2.6925586080441275 -0.7548355218339065 1.6533000653460945 -1.5172884510037545
P 1.64495805057118 7.006073807111393 2.0440217264334977 2.370960263681284 0.8251382240142112 -2.7339154407608466
P 2.0362537719530116 3.404958100478469 11.643019670874914 -1.16896413646349 -0.0761110813319657 -0.37526201947137305
P 4.208430227785619 6.468537776078704 12.278071897028777 0.025815418401207154 0.2578327961169108 0.8014509076996005
P 5.159105517285865 3.056509317226333 11.662265394042754 2.039001020762605 -1.004429989201425 -2.429369813968429
P 1.7888384275204678 -0.020296365206578106 0.007993564046756123 1.4675872271238855 1.9810537548238591 0.8513351941245533
