# total energy = -340896.91629663337 ev
CRYSTAL
PRIMVEC
9.02800049402772 0.00000000000000 0.00000000000000

0.00000000000000 9.02800049402772 0.00000000000000

0.00000000000000 0.00000000000000 13.21339128729022

PRIMCOORD
 96 1
Ni 6.307800575809138 1.8736440870335056 11.505864013791737 0.8651589873815229 0.7350663096267792 -0.11734566250172049
Ni 4.534448543507344 0.13243624960724118 5.888692817593663 -0.17110280161851824 -0.04983826367836578 0.6581970099725503
Ni 2.87916469842144 1.6231261082100055 4.842919061509331 -0.07548501771219257 -0.5926799021063469 -0.17243848971080625
Ni 3.3264479426043474 4.29726492104704 4.862659686847017 0.09856375390852704 0.002104962158144762 0.44293808266210816
Ni 5.329201461154479 4.579696880739799 2.575501590550396 -0.5284915403538962 0.5430491264530971 0.39707551580203876
Ni 7.329282691631826 6.1987603888391485 2.7557058922587228 -0.04035834921238856 -0.6246304868710146 -0.4723034231981027
Ni 4.892372641256326 4.670879683223396 11.305311502329175 0.28203330462251425 -0.3522884413943352 -0.054858599711092616
Ni 5.8558498554991 7.862349994151282 12.406330300318247 -1.285894822914979 0.04498736334396768 -0.05890063099095017
Ni 1.9080497959706335 6.3646498933575755 0.26447887840376105 0.12213691324277676 0.2753597492570806 0.7581031368415847
Ni 2.6780479369435093 1.5063940650305088 0.42588598080009776 0.39614529067828547 -0.39510785055270664 -0.09738438888844518
Ni 0.7157669434957499 9.030708645974528 4.6731141132842575 0.05720036047039181 0.2937421084190102 -0.19583732825072078
Ni 8.76719034679693 2.3351283756032144 1.2998857818057254 -0.0856465316262267 0.7471093568342423 0.55576760246103
Ni 6.601932823820585 0.8434652985739423 4.753715196679635 0.7645167536774123 -0.21614801478361484 -0.7034394267501175
Ni 0.6735854179468277 7.507089156474841 2.5207711446596717 0.9300042659916822 -1.1679452082806725 -0.06387031629139968
Ni 7.609827799273192 3.9398193073110908 3.8909074075788497 0.41627368599704434 -0.3223446026470513 -0.8008071034680144
Ni 7.735605898699081 3.85983122513241 12.429995397362829 -0.03413936488587024 -0.4565726427264072 0.1605185983447687
Ni 7.955591180690945 9.077473687248293 6.539756083327042 -0.24367758766245126 -0.3399900836429564 0.6438697947166008
Ni 6.891659407712032 0.5407862427297013 0.5565256583584047 -0.06506587926139762 0.29902186876071085 -0.38659518509600516
Ni 1.7405803914091744 6.76815636434811 9.240454370087491 -0.18097455220627542 -1.1303795913220724 -0.2439367548611089
Ni 0.06266515530684634 4.919492753995012 1.3900357810611923 0.38290359517703093 -0.4978558177459103 -0.1870492976454456
Ni 6.302853231674385 1.9164368081990752 6.912744302286334 0.5226137414168807 0.4829958699149424 0.15746129957568367
Ni 3.5337759682514585 4.341231282244576 0.5208126949856705 0.13728045375243453 -0.14037169108324857 -0.9116663869144428
Ni 5.884576952281557 5.645235637762482 4.84709451162306 -0.2554910353576116 -0.28159004643750857 -0.7919139147434425
Ni 5.324922189037923 2.8561432977943935 9.067557331778197 -0.37447500479370344 -0.019599519398482375 0.49856904176285094
P 0.21181855296942195 5.615786300960353 12.270827239027474 0.24644975109094974 -1.365012295173436 -0.34693900415696377
P 4.0266867256771475 6.162702555857021 12.598056135940393 -0.06683299846414942 0.26001257737704897 -0.07764217326451145
P 2.212392712260194 8.37753282818361 1.2319211903545355 0.9378571863771977 0.3235977583278621 0.8981148734822533
P 6.313731971970696 7.706075309894739 5.735893010631768 0.0010896335197529622 0.5553814227662047 0.41310428713012726
P 4.693765663846755 1.069980533143666 12.719976570861208 0.2533935293986346 -0.5468764706189871 0.06705128512254258
P 3.873743373511343 6.182437764394561 8.39656836670209 -0.4642982935054391 -0.6100304775696526 -1.0359702259015513
P 4.685486987621264 1.0197848517764578 3.716094627617375 0.17903851152582714 -0.13400538254558855 -0.2789749774121647
P 0.2501514420135166 5.480610053278482 3.5571639056884887 0.8970689487162422 0.4024408938790101 0.7177154770531575
Ni 1.6332194124849226 1.161497371636362 2.6232019326496374 -0.6871843983438358 -0.36537381382338363 -0.18711331811416163
Ni 1.8605715426774412 6.340075676688233 4.923666398508691 0.24321941707911013 0.966018222192446 -1.5700474878733413
Ni 5.958615582298189 5.662686762237808 9.13365041877841 0.0641330830344831 -0.4644448463856323 0.9801898857071377
Ni 8.491267575281467 2.2568556134712554 10.147765686400444 0.25896433861819274 0.8155197270878406 0.6374947444281924
Ni 2.2423115050751092 5.278599519776206 7.0206442528252655 0.5278881024419425 -0.5502037352200072 1.4134858172937914
Ni 0.5722840327876244 9.138141848900748 9.186372134614421 -0.30564245940102197 0.21697976665629082 0.0561958304652774
Ni 1.3402788605059348 1.0345275761780137 11.652162757776559 0.34663844219740947 0.5643080358318733 -1.71069145878137
Ni 4.124414828339024 6.667855281616152 1.5781016653836493 0.23896629822971102 0.8782932107706357 0.14038866036411304
Ni 5.592178080317323 7.6862137093537575 7.9396359958563645 -0.555439786807966 1.2761621690082472 -0.3053840635333128
Ni 5.246947350914078 2.9929987535220026 4.642062306438481 0.4851635669902225 -0.27623855231760813 0.5854700146214691
Ni 0.6425318055010029 7.565148226056229 6.928243573108496 0.5063628267756569 -0.18127254306266846 0.0034172532116650825
Ni 5.017374332661067 4.641466458422252 7.143899026182425 -0.36861854601292643 -0.4821666891454277 -0.30273094218118185
Ni 7.925419603869144 7.5039022723880375 8.818472096593721 0.7396063635889778 -0.9753875792224879 -0.05138041135450506
Ni 4.645926290543727 0.44800548420257924 10.586093154339416 -0.5236655797201626 -1.0590430485606148 -0.7958862691276293
Ni 8.274442093375667 7.132165334262828 4.839008131802807 -0.055796538144329715 -0.08967236495616815 -0.18493199419212666
Ni 7.182261707627331 6.026831152156215 6.8280589515797105 0.7266768000115034 -0.14671691657498603 0.8962657360886563
Ni 2.4554264788798426 5.077500814298766 2.4737713753795125 -1.2946082915285768 0.3568377513279145 1.1052457723689224
Ni 2.3605421962954254 5.217841078121293 11.28259705371049 -0.5569446534882666 -0.18454221495287576 0.20361131576918481
Ni 1.234624173628158 3.1873445148155084 3.927706439381166 -0.6952250092601252 1.0260848484670393 -0.22672116231377082
Ni 3.854260948980689 2.7680661273953855 2.633534478931071 -0.8087597826561878 -0.622058098158148 0.033406857595219885
Ni 0.9916084630090016 3.3377148869112316 8.32031336262509 0.13416633360348507 0.0910255365499529 -0.648923040869792
Ni 3.9739270922401038 2.4409545944856634 7.014315624652888 -1.3267748489587925 0.11930072934556228 -0.4340785753889492
Ni 4.055115898451489 6.717888458978934 6.120601379510288 0.18691842849453616 0.23530581865898834 -0.12654661227469818
Ni 0.9065647006926165 7.493059644092711 11.49090642298433 0.2566053514677129 0.20157654472734313 -0.06334092615049092
P 0.1588756511273861 5.77335198925206 7.92654178429971 -0.330681661757837 -1.4416905618627815 0.6937155145941343
P 8.513738267893514 1.6804539097714752 7.965256557754206 -0.20282275842961842 0.02879918361987943 -0.34955613006483666
P 1.7817029325292524 3.0343108826472447 10.546043139648551 -0.38018722468713234 0.7117451184023356 -1.2015991488896918
P 3.9089977144715853 6.108056070368583 3.794767330160228 0.16189388142574054 0.2714246758687326 0.03440547406306333
P 6.676269377845332 3.84258774466274 10.404369440189704 1.4796822106152066 0.6916570894032089 -0.22218907877137217
P 6.303015735678811 7.63015885582696 10.210674597713929 -0.543267156001174 0.8545441879801541 0.05854401898247982
P 2.446254030630007 8.262091789039275 5.9056329572550705 -0.009541620941848085 0.782593408673465 -0.7834716975133603
P 7.053486312119803 4.063123734669603 1.4840488616218797 0.36405895166670205 -0.8795389102522788 -0.15596234643265397
Ni 5.318728980869235 2.7948251201242353 0.6511391009354447 0.1716735865203237 0.3543224411052285 -1.231677713442627
Ni 1.4523795395592844 0.9561555060433493 6.953732326202748 -0.021287962844498822 1.157355348579968 0.028704052802911856
Ni 6.887434303596951 0.7005367070809152 9.023411313375766 -0.8067414666745784 -0.475856944877316 0.8428461828169355
Ni 2.7676779233848117 1.6687987614540176 9.139332642133182 -0.033293986166439436 -0.5726795477250202 0.5593563482535527
Ni 6.428369519093143 1.9561509812807927 2.4821087336066023 0.8347698335667042 0.32236234325886415 1.2292827308478893
Ni 4.027345769695099 6.9096792962028495 10.447537726165505 0.3229290143956116 0.8708812345772808 -0.07463064013169728
Ni 8.157014894177236 7.020136879211446 0.26111504551213843 -0.039600130890125346 1.1240809027975545 0.6558128260110899
Ni 7.483652467836482 3.9320281430988784 8.154181907700073 0.5945560360831373 -0.6526246580910954 0.010695274930317064
Ni 3.2851990094808268 8.316711190526975 12.437606001570122 -0.2564711398826938 -0.04864784291469041 0.2101807414565864
Ni -0.027994925962513663 4.958240931050417 9.995243039046098 0.12678803886154294 -0.27653885716684634 0.46662205654260924
Ni 8.536488828513184 2.357906020223622 5.704842106586017 0.2403806620787344 0.17244723146155463 0.696672283229613
Ni 3.639439683129481 2.6983067694953102 11.66114742362128 -0.0759735273128369 0.024320064802603278 -0.392115343583286
Ni 1.1909376804382446 3.4407604817179425 12.56874944154215 -0.1725117661509029 0.14635361969829633 0.9731183235723369
Ni 3.066558899525602 8.411243381101801 8.095223649294194 0.7412534122740976 -0.2864653722519389 -0.22384769742071772
Ni 5.420483571640783 7.841188361574891 3.7279204051394803 0.17167075830684628 -0.056936822396360005 -0.5330516489207529
Ni 3.0632275674348652 8.386949032440082 3.492365433923536 -0.4604012724438781 -0.47309660852335933 0.20071213984451886
Ni 3.2561198206887805 4.1881886220760665 9.259666857410794 0.30028299486132154 0.3241037514300031 -0.5038079215642871
Ni 7.194882851971101 6.020493495983593 11.344673583401303 0.35959423102712906 -0.22137609595177357 -0.3325328560339628
Ni 0.4003737549052068 9.183823530145006 0.3589388449766207 -0.3104887317497298 -1.2948492038947894 1.3903957682435475
Ni 4.594222933135453 0.1828829093812854 1.5454121792932671 -0.3124473981379973 -0.07834279887596185 0.2790719080013452
Ni 6.125778034851288 5.6401709296245315 0.2650133360183184 -0.8561598692067061 -0.16584103899894664 0.7305900190229804
Ni 7.938925492237012 8.683491756517185 11.358402463375244 -0.34445814671663905 0.7892559082953052 -0.3560052281242901
Ni 0.28114817805779224 4.795520254618302 5.817116123244087 -1.3288361023631952 -0.7041302821695551 -0.036749034594575423
Ni 7.836611165450218 8.769348038855702 2.7722885231103933 -0.33339777513741936 0.7680656473709353 0.3467986219243576
P 8.534990180472363 1.7518563637163043 3.5822030643704945 -0.4247202741025008 -1.0310115963446953 -0.2803790568485429
P 1.9497140171054652 3.127552069186908 1.6277574723361525 -1.0883970762426998 0.5523061262749908 -0.2716948988109837
P 4.723774736664129 0.844049410189852 8.385706779606247 0.8834930098040203 0.4392138397329855 -1.4413660886438273
P 8.357147603628365 1.6232073602122188 12.415037806555418 -0.36639711288157545 0.43414516696082656 -0.396700134740491
P 6.283632619150862 7.652060784423515 1.5953984110547705 -0.08056963132395156 0.27519648420633896 -1.0285942451524543
P 1.9192354882753044 3.0727430796940447 6.163835569887882 -0.3699704320551305 0.7026493267486543 0.41410830291460937
P 6.80138843325327 3.9374900832476483 5.935455150467354 0.20900934685630454 -0.2060736612667483 0.5384121419017179
P 2.3586914562450154 8.644436627453418 10.254714085713458 1.032144167287242 -0.004017348689509211 0.6378786101301723
