# total energy = -381172.21170789946 ev
CRYSTAL
PRIMVEC
9.19756679977674 0.00000000000000 0.00000000000000

0.00000000000000 9.19756679977674 0.00000000000000

0.00000000000000 0.00000000000000 13.46156871577397

PRIMCOORD
 96 1
Ni 3.964151211272878 4.665051775205709 0.8311013169415975 -0.2426514603907821 -1.158892868270417 1.6530552963251401
Ni 6.797866300103287 2.1343873087888263 9.903756699975709 -0.09384989337262546 -1.210575127136057 -0.970569074787922
Ni 6.413775918240745 3.161405992206813 7.570839915791698 1.1828020707878468 1.2202134215567695 1.8867456908678923
Ni 5.793657581891697 4.035910626006872 10.668777179811714 0.5808366296145158 0.26271095014481854 0.9506085725055952
Ni 8.263682491612704 7.1325841443739195 8.751944512962197 -0.26181929156848455 -1.945802644931049 0.31085511395021304
Ni 7.587762518607524 5.1460845091954335 7.1823255043871095 0.5254987762741595 0.8667258176480105 1.2846344681453166
Ni 0.36810685059815634 6.602427207090902 12.590295087095155 0.39645819393301396 -0.18026261374091535 0.7195617862332769
Ni 4.35941663657323 0.8115077407806355 13.11568676511469 -0.5184904632771264 -0.8418295686269631 0.15578468320420913
Ni 4.897529468978639 7.650940603689272 12.234963656525904 -0.5280629374569099 0.258395096378284 -0.5257805691806364
Ni 1.3240265045651414 3.5546571504183744 6.128567655304592 -0.22196436435507577 0.6400558202871492 -0.11663115293319912
Ni 2.089300837239732 4.791601094268129 3.3319132413946084 0.07609205516857218 0.10624029661717832 1.2053097649720594
Ni 6.289571978665273 2.3201137714552607 1.404970609321355 -0.16974371648746253 0.6483265449363738 -1.1402503134685653
Ni 8.685841601696726 1.4241972025743592 11.068828099022102 0.6206077388648668 -0.13847293139863892 -1.3552333614098013
Ni 1.497363845000521 3.0370089037324144 1.5733210291378201 0.17366979101474606 2.0111606015115684 -0.25830896442238094
Ni 2.3080833543222097 7.9282472371460635 3.099768499533158 -1.1984130378522264 -2.830069042565984 1.1003087400786211
Ni 4.920541780650575 7.981997816446942 8.216590950541434 1.9527402525911464 -0.5969785294817009 0.612338556877539
Ni 3.4615777762696935 4.435452919783423 10.356361595070302 -1.581648048226747 0.7694869531984941 -1.8473437920315023
Ni 2.2494764598483568 1.3934681325120328 6.944392733854535 -0.8466550150400645 -0.4421762647954191 -0.17241740666488373
Ni 7.14852352731855 8.482373033029026 7.3165373161968885 -0.7438592253280608 0.7228386572123358 0.051713883434523836
Ni 4.928746010071586 3.491396287237087 2.885581086731775 -3.5133916439615684 0.9027328318702389 2.196550252066404
Ni 5.496392228879309 6.205257885501146 10.378492779860476 0.3886829208629693 1.7909530719465996 0.15795495138265053
Ni 0.8535093484868971 8.092764111197196 1.0915598478721489 0.3680019954748501 -0.040955873587071395 1.1791400485552272
Ni 2.629161207302082 2.4592085713811995 4.5000409918273245 0.624437139913286 2.009849596009629 0.31078517994422605
Ni 8.832919889444904 7.896561620155727 10.89827026321792 -0.6832087015255395 0.42828459441499145 -0.11114390456638278
P 7.513197846055808 4.718305685909351 9.367420837440411 -0.4009342274264966 0.15688845779134913 -1.4365658390417066
Ni 6.843872528313929 0.7051360433592595 12.567653437357823 -1.0037270495971293 -0.42143620403459037 -0.054956558741537605
P 1.3077927994888152 6.166122239552268 5.289278664561893 0.695044517818203 -0.40342459794851804 0.3161670130814297
Ni 6.245708783476037 7.044627814830062 5.69540089749516 -0.42418934129969527 1.435003122540277 0.3956413544586735
P 2.828592044225585 5.951726961745376 8.686318955404069 -0.15850902411390766 -0.2458450276274153 1.891279317072188
P 6.38477599070213 5.3263844075587325 12.988084324674796 0.17900071630935624 0.3493800094982886 0.31901219583970863
P 0.633642438300454 1.2142259543095133 5.24391350674435 1.04555298449398 2.3563736241163613 1.348816145029548
Ni 1.1305372956752398 5.797998833334205 1.4369956165198028 0.44305558207657886 -0.4031638880879637 -0.25900239094497973
Ni 3.8759373498637872 0.8361001943971121 5.336610262121826 0.4230845382712907 -1.5779004082588566 0.6774777125790331
Ni 5.012756583537401 1.3883082976407473 3.325505296733602 -0.2148262106483978 -1.420517270219276 -0.7304159553389614
Ni 5.138220589739196 5.514851745076581 8.167590914397453 0.6246325437535436 -0.4927799458848997 1.126909373385285
Ni 5.5685839292442285 4.838803006138784 5.988284529771933 -0.008952581207597485 -0.9958458470768399 -1.1391725070233543
Ni 3.9157444181755947 9.130645120788067 10.784493604914418 -0.7648288856011924 0.8957306895207928 -1.1068282863646939
Ni 5.223031351500558 7.032864127128859 0.7987047280518842 0.4588246719853776 -2.0013035062118307 2.0242606292286363
Ni 1.2258792712113296 3.465817854479431 10.431006286451572 0.7613681807461017 -0.01761694175081482 1.801487652929336
Ni 1.5446301398374847 8.439172062636107 5.339894713160215 0.7481102872949309 -0.24277872999726577 0.4561489249254273
Ni 2.695448069899863 0.9165880998491979 2.8490741053216024 -0.720551660950372 1.3423282233123592 -0.12012785323254796
Ni 3.372205021467052 2.873135859344366 12.79705178582789 -0.17107323393216345 0.770676345520905 -0.9314762225515184
Ni 7.08414975857679 3.0918355983273043 3.6260348661378248 0.9943214400125133 2.4945789036759103 0.015000844284206422
Ni 2.791231528633496 7.9129700789977475 7.71311523425327 -2.8833808666152474 -0.06345868267527781 -0.3095543928609185
Ni 6.96859153161987 7.7625530745681495 3.3100515453062687 -0.14574323980780707 -0.024710101152170344 0.510377604362005
Ni 0.32254486485504164 8.588025480741072 7.459727792536702 1.158242893391244 0.9355344517812921 0.6668857959957999
Ni 8.213914458656328 1.5111785900569754 7.530495709589546 0.24944585760479618 -0.2683218685736927 0.5181703609335463
Ni 0.8374044093431875 5.669416852049761 7.58127271560364 0.5470644182600771 0.7491104464246712 -1.4403749283751517
Ni 0.26949054134695494 3.5655746619909516 8.477059598795263 -2.5801287618232727 -0.05339769889484997 -1.374271094767543
Ni 8.107682564247508 0.07169503176768464 5.125102100475533 -1.9103448183440714 -0.6129633349457314 1.8563182276159707
Ni 4.229501008129543 2.5019312683101154 9.672998031403212 0.3953132816952934 -2.4134220323899207 -0.45995852847950464
Ni 8.21871558842961 3.2094264875062457 5.781474485152829 -0.02101491168877026 -0.596500561404018 0.10933410505115362
Ni 1.87940316950781 1.1509742886948415 0.4313704730494283 0.31720625297922145 -1.2018868553334399 0.3823744621464383
Ni 8.734496729092628 1.6973741286207993 1.1453104271730274 -0.3357498203093637 0.6208072564701824 0.0292054179193626
Ni 8.510765921171021 4.497674457937161 0.47019616100336387 -0.07786868745302074 -1.2334214356066113 -0.24306617933069752
Ni 8.617843991708465 7.079679741201665 5.899922587540333 0.797021411173337 0.742843896689669 1.466334842774023
P 0.20073413211291688 2.9018690574511328 12.366012425176619 0.9322074442905881 0.37321979223036367 1.2687262815554925
Ni 0.922129633735026 5.958836680739143 9.946564014517486 0.07423674712738827 -0.16060781562446533 0.7503093518287788
P 5.8382197921437085 0.038215889287329025 4.833052687490785 0.5731300049988775 -0.6879475017621055 0.4423747539594704
Ni 1.955513033250926 1.1462927272875612 11.663614497398788 -0.29859043765024706 0.32282822715168913 -0.9312659063129252
P 8.091577625103799 8.74941518214294 1.5428439724007579 0.1461805844555418 -0.22105856471135474 0.04430062168958822
P 8.2250067239946 0.09710698856960075 9.340700066909113 -0.3531654446826499 0.5648914191391691 -1.150373003724864
P 8.616629912915222 4.734787725284295 2.9510723598173167 0.16525919835354763 -0.18818881056652753 -1.0997821781511898
Ni 3.4494369883372564 8.64397427846305 1.351244863450338 0.9236726673466996 -0.9132728121696143 -2.060715015400928
Ni 7.415768022898004 7.642083347038562 12.754876344112596 -1.4512823193162747 -1.4602768095054013 0.38244259638021233
Ni 4.224074443826408 2.9228395093344326 7.021056291107904 0.34577480864553356 -0.3930149725794199 -1.65730635829201
Ni 6.218474788727594 8.693135272022804 10.61668124274496 1.3779639702380977 -0.06607863679662813 -1.30874267404743
Ni 6.076179235619467 0.010141236950230802 1.152496485969704 -0.7359919067648422 -0.7876571963496176 0.9979040151574492
Ni 3.1163011255244872 6.789312563150888 10.723148594859136 -0.1096961163762627 0.5538832409541236 -0.31223939589224936
Ni 1.5955386710541792 8.588246222339844 9.910554621461213 0.5896927944535652 -1.249364589199429 -0.05291793104495403
Ni 9.07385934450408 0.13530172345371416 12.846725083848124 1.2713421219117846 -0.8152564461241251 0.3549546753725887
Ni 4.570519185531781 8.1328655016407 3.3473936657651264 0.6393161139076473 0.4305710764563229 0.17774216131190682
Ni 5.575960377669846 1.0613991874266593 7.757713315015082 -0.27435547636228236 -0.40582035187420434 0.18975461239175062
Ni 0.3303471606149552 0.1048577779564677 3.3667784571639174 0.8357481383195736 0.5977370049142803 -2.1309423842586073
Ni 7.7588924430551875 5.399928150216129 4.872104635583462 -0.9239536889222282 -1.5926937645179475 -2.4001245439500662
Ni 7.172538373751575 2.9028991849120667 12.547433506910345 0.16379109844845338 1.8465017557461811 0.3920428384741377
Ni 3.845916492430853 7.576477104370327 5.717276389933423 0.5217256823849724 -0.36330613266107753 -0.8177640430373272
Ni 2.5599311233873463 3.551824299900806 8.165262090530412 -1.344583337895123 0.7552597538555186 2.0855881244935244
Ni 3.999295113310636 5.244673225746788 12.233604256180135 1.747715858524519 1.5003978458960032 0.6311158374850421
Ni 3.3357182747034333 5.32050716249144 6.7675345649187495 -0.9711282897255017 0.3687432445162488 -2.0099529543567125
Ni 0.46281419403777774 2.6558985334532887 3.5815039276123057 -1.349975969665604 0.6601212235784567 0.1594068533378287
Ni 7.796400119713125 6.456093922238579 1.4609837900096423 0.8473736383736439 1.2310161685992282 -0.18281186252533033
Ni 1.3875816898781241 1.5224823994274033 9.25177247433066 0.008462014724424136 0.14783020424382284 -0.8942196521929052
Ni 1.555869566241604 4.589043084695362 12.634610802561872 0.3241346046679385 -0.13254242484681691 0.1964104271453714
Ni 8.383959070243366 4.732157221232267 11.293501657521794 -0.11491802689683434 0.5237437412562657 0.7607701421507866
Ni 6.20657313752716 4.847264767425028 1.9651327681740591 2.389734458964994 1.0863155111233227 -2.2170072343691754
Ni 7.312635708438601 1.0063333560997667 3.1062969323168272 0.2596821906208237 -1.1081274647920916 -0.2399921683910641
Ni 0.07458398744160764 6.970513823042506 3.510049872089947 0.4707594757497505 -1.1976116249968536 0.001034611912101444
P 3.5769612494609193 0.5353756365806408 8.546709091747664 -0.34669320669474485 0.8183409985867196 1.022576835313781
Ni 5.9579537143440575 2.262178299344338 5.547068061660631 0.14146055327205315 -1.1236718402845938 -0.8591480053007526
P 3.591355441214149 2.4477943912113864 1.495230009545729 0.5403998617557081 -0.7636274090939236 -0.46039972978198135
Ni 2.338223780121145 8.070349641355266 12.75398785917754 0.49301725870668645 0.540249966441405 -1.337109398115581
P 3.817799531287324 4.525773023947459 4.760979635735204 -0.39115606499381017 -0.9670878011075409 -0.706559460436338
P 5.2898976607951145 2.137588061971014 11.739591916182642 -0.40653614699430635 -0.2829671292906933 -1.1827887010514082
P 3.4063371911771068 6.225225802623358 2.0379333474489245 -0.26013264789468105 2.009478585823455 1.0755873260725413
Ni 5.27140135433138 5.959692054434383 3.824270019401315 -0.75215951766364 -0.8614694543450777 -0.5039786428141966
