# total energy = -340895.5692825189 ev
CRYSTAL
PRIMVEC
8.99702957307388 0.00000000000000 0.00000000000000

0.00000000000000 8.99702957307388 0.00000000000000

0.00000000000000 0.00000000000000 13.16806221388590

PRIMCOORD
 96 1
Ni 6.42021735805614 2.061948245479796 11.31274808356323 -0.14194366355605875 -0.00919940711108093 0.861154237097504
Ni 4.502662440957429 0.31443718821051225 6.1612837452781 0.5388548858660913 -0.3755589818865016 -1.3970266432965035
Ni 2.7228880354686558 1.4992380248886985 4.77822886239508 -0.13932756608945038 -0.15761299466219952 -0.07507107010322556
Ni 3.614754584729575 4.180775712221055 5.013384225588824 -0.6782516146305804 -0.11027384325660362 -0.5765665414842522
Ni 5.128333874833517 4.486593746055028 2.789772853371193 1.0661837733704542 -0.27859548258555894 -0.46161020515031465
Ni 7.167492644284322 6.232098465718917 2.7190076165932893 -0.6041575637286434 -1.2887109522075355 -2.097329838410485
Ni 5.117672394733101 4.6472716980494075 11.368356924242262 0.411226353381124 1.2073900445398562 0.2150594097051264
Ni 5.617556357483516 7.802655944410149 12.404907405941012 0.013196444085615981 0.1064452135391328 -0.03744503222033551
Ni 1.9388778772995452 6.457609013159373 0.47101519380678125 0.6910850189498227 0.4799367713736444 -1.0349950064724758
Ni 2.7181106127401145 1.6825794944973802 0.21807090364717777 0.49685951527091204 0.3230508846854565 1.020036071169798
Ni 0.5472659195443678 8.826113048902032 4.438413752733728 0.6167500556816733 0.23859785914669876 0.7969766739783307
Ni 8.41869155956257 2.2625010327526947 1.2561373848369985 1.529249994241005 1.0505915753591517 0.19114172254726436
Ni 6.91062744861606 0.7432896021062538 4.839723559851913 -1.7414205124341104 -1.8497385175159242 -0.48494065234613903
Ni 0.6938068388958903 7.205900963734683 2.5152977716265204 0.030612325569218248 0.34824358190100024 -0.2632791639434627
Ni 7.557082020915744 3.8059774522859064 3.9648506001383916 -0.6807818372516017 -0.03713367162750379 -0.9210611978657814
Ni 7.801882199862777 3.9070050978956763 12.463241446892127 -0.7681756905862384 0.22907320748571516 -0.4724384061140703
Ni 7.985610541745145 8.752472361457382 6.8087576810338 -0.5684693662984146 -0.17575058480317474 0.4070699080105893
Ni 6.958329699664504 0.6270911651502207 0.38432971311521746 -1.6150574769251282 0.9011526318673125 -1.7494654942257741
Ni 1.8796234402182428 6.379217894075045 9.230508837180086 -0.02865905849758935 0.6699284394768656 -1.0812527518884345
Ni 9.082951253481433 4.9643720070276185 1.2361864716533078 -0.7320763737605199 -0.6789519831317146 0.3256407568998198
Ni 6.191413897774543 1.803040724087656 7.064876123243553 2.0735237371298223 0.7962125421187964 0.0692925157482355
Ni 3.313300110261595 4.251843249194211 0.38497120132716656 -0.8186932397198158 0.7157719801735415 0.2844974498922907
Ni 5.875969042246523 5.592940484441542 4.899032878813901 0.01452390464778789 -0.15768755665387682 0.026425026960748037
Ni 5.372387300322039 2.956145025412452 9.258253877124105 -1.0647879214641918 -0.8474014062877858 -0.3309878801443461
P 0.3604578944228671 5.699420330001398 12.267090006509626 -0.5130754629091422 -0.6286033554758336 0.38294473282761143
P 4.045973217415535 6.244001535906977 12.6446314607761 -0.37470254742347725 -0.7923720853267837 -0.1290369827967197
P 2.372048865413177 8.371322198610088 1.4452342542939811 0.9932125232190507 -0.39169573954736414 -0.46339635051646005
P 6.238126475564723 7.70922179180017 5.758170033720984 -0.46782970369746524 0.027299716256217497 0.7512475473723319
P 4.9124681431463495 1.1389339796723439 12.64285454742603 -0.7172215681358745 0.7125107929237664 -0.19294226609111284
P 3.7772049515592125 6.173581785066505 7.867890707080267 0.8886532138487212 0.4412632660628465 1.5866912670776092
P 4.586046911481192 0.9613236179319872 3.7171596755742593 0.30226223007487946 0.5358073572890192 -0.20680822543992772
P 0.06144251468503333 5.4810264329908405 3.6195320074581163 0.7958160780113263 -0.6734035425096595 0.06240761570294414
Ni 1.6491915175753162 0.9972217661181997 2.5031436843120454 -0.8141884098709269 1.7536648770191023 0.6392446372397637
Ni 1.8733075254245786 6.363158196202265 4.713178538832184 -1.1222176243365707 -0.8556356212721199 -0.17187156146374272
Ni 5.800708889470165 5.653679431410244 9.055861197293794 -0.05690956870285038 0.431926819153269 0.8774768855169275
Ni 8.544029179207214 2.388693370211296 10.186799516742306 1.001104524372618 0.39224287030008576 -0.633614949757812
Ni 2.264318432736057 5.088549009851204 6.814274659597156 -0.5940482432087835 0.31439732277551663 0.5917000546915809
Ni 0.5812216090354919 -0.05462636504446324 9.351418118845466 -0.1552558072839326 0.6310309910807197 -1.1678068829305954
Ni 1.5398686106553492 0.982538613777373 11.364999232787854 -0.21632413535016293 1.3131644572642096 -0.18008160807836085
Ni 4.279086254885402 6.876033869724835 1.7161015271607911 -1.0642749863835155 -0.38856079346280825 -0.3739731254566204
Ni 5.574298639067649 7.820047202666777 8.007709045899274 -0.34200531430077225 -0.09417539503284426 -0.7457093911629222
Ni 5.281643259568621 2.554949480570449 4.993987529429763 -0.2546993926942517 0.6110566048413218 -0.6647198986927326
Ni 0.7632333176662482 7.261115734516334 6.689033308169452 -0.31475650588714826 -0.32976969146652885 0.6801511456461383
Ni 4.977390708888633 4.456867560188551 7.129952538192349 0.37944520431478523 -0.33374564539514134 -0.9055247927930792
Ni 8.087996738827625 7.1421120237245965 9.157860522102588 -0.14940243382694918 0.20346887665404959 -0.31216174857677853
Ni 4.577229822453 0.4080809716106517 10.56357802289695 0.18771469914358638 0.28940542871686936 -0.8342301590131503
Ni 7.920193139373728 7.1264931803032265 4.586738783059017 0.9344149934648682 0.7440880535094153 1.5388242681930013
Ni 7.2066027320450905 6.138565345783111 7.048771440222671 0.32401273437809364 -0.7486592178198654 -0.5462776606927237
Ni 2.2720648752393977 5.16646328636564 2.460702896185729 -0.5741728444410951 -0.7163224533603728 0.5457935219674536
Ni 2.477655999099835 5.093146491987333 11.373742546173156 -0.4195443863285162 0.7357299113527072 -0.233601691483688
Ni 0.9898172107404422 3.233649407030382 3.8099811304670754 0.2892876721920824 0.1268415178072977 -0.34144815624572167
Ni 3.5595488109775446 2.813524111866627 2.5625447729761635 -0.4551878465637386 -1.0202088493022368 0.14336934025899178
Ni 1.0952084157162052 3.288144415442385 8.179657576899384 -0.8870277624301562 0.08166646393255612 -0.36610452134182114
Ni 3.6325956944672337 2.375638680231798 7.099429215501486 -0.31216097724583014 1.0640988658169674 -0.7697036971949904
Ni 3.9822022714646894 6.9672367589889035 5.82501076617838 0.6854129082657099 -0.6974433570676827 -0.07243903179701718
Ni 0.9485118477522462 7.578773859331022 11.401079120972403 0.3694284435087315 -0.6397339181713563 0.10732710192345388
P 0.1812532590337394 5.573434924224071 8.033927289916678 -0.0008798315017920331 -0.24188012944239634 -1.2464713268120338
P 8.438979861357033 1.549819325415738 7.947241809225114 -0.21713171885312282 0.32298069356915343 1.2497389418197122
P 1.7877997559103518 3.2521742910192075 10.255629492448817 0.8103641510288302 -0.5779204844089854 0.21915029194504837
P 3.812374340346156 5.902879157841752 3.7334748890882636 0.8303609058657313 1.146609937138006 0.6074694017106957
P 6.891580736909239 4.112344304926736 10.290511875990862 0.5896717114076425 0.3860981908549286 1.1776822330627783
P 6.118214064781304 7.822656341256753 10.150324658957413 0.6293330345530065 -1.618807945106496 0.6284891984954724
P 2.3814867494851915 8.472394829367959 5.881145933090219 -0.6938744087695018 0.14752655696047495 -1.8417868667690152
P 6.917204277268721 3.92507113337385 1.4647892981743655 0.49476020953972216 0.2073630695021332 0.9168247911869307
Ni 5.279420993252331 3.2305274377520323 0.2755997104472481 0.7682106575892318 -1.5192252630151513 0.06869113471881073
Ni 1.278181007110442 1.0519596943299585 6.9154057710475625 0.4414360441952849 0.25544681238323746 0.1569337092069878
Ni 6.950682224486991 0.6653933196510587 9.317944670142007 -0.5947699518661562 0.2008934026173895 -0.9774465186340457
Ni 2.8237357404860135 1.5646014450823913 9.166907035386105 -0.27121333118887486 -0.057528690344088015 0.8415331204324668
Ni 6.431130754985934 1.8863712124336962 2.5701292689463333 -0.7746268455282208 0.8145144257517778 0.33325302202943896
Ni 3.905961442459686 6.78252774087789 10.386888956989743 1.7964817150743126 0.22972138259267535 0.25228564104643647
Ni 8.103336674330757 7.329484162603309 0.337497474831084 -0.27330698049311 -1.2098405629628777 0.07184150742233435
Ni 7.426589103298495 3.77374109515528 8.254031522258114 1.3819029002811878 -0.058867977980801844 -1.318142370094775
Ni 3.2661916631681094 8.551406743496111 12.424699071700418 -0.4776315202792354 -1.2639183186438876 0.6259525481165478
Ni 9.141791827200187 4.904145890747291 10.0756088264731 -0.40707684998912474 -0.8691632234449096 1.0901600816803934
Ni 8.349450419602398 2.2412770398776884 5.793960217551749 1.367131655509284 1.0448423315802005 0.803739703733777
Ni 3.7566197477872696 2.8846096428990244 11.39337586421124 -0.9053463582336859 -1.6041261747246052 -0.40258641831793895
Ni 1.1425058004317237 3.3832430185321756 12.358555609038618 -0.4914648266179019 -0.4058925998730364 0.42351211272701256
Ni 3.008948592255781 8.421858513989024 7.950164944148849 0.27526924642580336 -0.9208994754769366 0.5349563221426336
Ni 5.519461743530064 7.902019139540107 3.6328710035736247 -0.30188324946890593 0.23988649605113524 0.34631628297130035
Ni 2.983163105363128 8.095689199153243 3.6501740909399714 0.6642457872697914 1.0725521387906432 -0.4395483402542688
Ni 3.3664275701712656 4.296972349771164 8.946236889881535 -0.08324075039821148 -0.2929502086453342 1.1289850249673912
Ni 7.362728187051443 6.267843664401579 11.296867426579901 -0.45901596206057727 -1.5280899124946328 0.29610109556949005
Ni 0.6009475964786676 0.10696568515936879 0.41623677896172984 0.38075929514051843 0.3227292396799797 -0.6428539518575768
Ni 4.617203625057346 0.4016471957289573 1.5540551269611185 -1.074871530952439 0.1891257205585001 -0.024050356080984388
Ni 6.065059613782771 5.6629553689490875 0.48701911009591287 0.04770913315050493 0.21043708044176662 -0.5331393235385528
Ni 7.852454503360196 8.603139663814586 11.358849763042171 -0.1964237968818101 0.984657434560188 -0.12338801204105847
Ni 0.10959371751154741 4.750512612945845 5.74022185933084 -0.61791913628911 -0.0064490980594534095 0.5974557262284356
Ni 8.004108434645108 8.918143664891197 2.2596003904030115 0.7303601624003615 -0.30502770863515855 2.095313065090772
P 8.439348739571479 1.5825055340273946 3.6730337438000036 0.7314654796493982 0.4401713185502484 -1.2469426100214978
P 1.5625771134177553 3.1708411432489414 1.5228993130879267 0.9539918871555312 -0.2744824888584499 -0.07951393636592757
P 4.81976274993564 0.8593170954994958 8.257836366084666 -1.0856480527426529 0.9209328998180332 1.694625149347127
P 8.481013983744498 1.542738663104322 12.188938208413207 0.38820366723370564 0.37975527935603626 0.7784109951610013
P 6.2017874729271005 7.9227572928156 1.4731376419593243 1.410979763042486 -1.8155166202185764 0.1323184817614689
P 1.7429765543404994 3.114258823964958 5.993732962356542 0.34659447633335144 -0.28396240332442707 -0.48405902107213417
P 6.801034630807474 3.8163690214977044 6.063694764389326 -0.2577417790650013 1.178143488969913 -0.17388910611440375
P 2.5703793863697864 8.407157367588955 10.127425419167048 -1.1011893429113615 0.9610467371197835 0.6525282417225471
