# total energy = -381171.83913861134 ev
CRYSTAL
PRIMVEC
9.21589504755734 0.00000000000000 0.00000000000000
0.00000000000000 9.21589504755734 0.00000000000000
0.00000000000000 0.00000000000000 13.48839395904344
PRIMCOORD
 96 1
Ni 4.005541393170618 2.282325661499323 7.659505600460551 1.6523796104143544 2.0124726354547726 -0.11799306627773228
Ni 8.434543954760633 4.724049446330643 1.314149791550034 0.5725432792574721 -1.1290721853645587 1.0226958773901484
Ni 2.614927319168828 1.9421485379776613 12.59768821487882 0.5147333102275393 -2.309141430602275 0.022934497308986307
Ni 4.9586400585771715 1.8047026770055639 4.014969253957426 -0.03205342889111899 1.7201225222872827 1.433615755274447
Ni 6.086730141989505 6.302667782356758 9.237405096661279 -0.3933497302110193 -0.6826487152570114 -0.5874356229882722
Ni 7.8059093115643945 7.838948295846611 4.43358101832402 -0.21307168985113628 1.086388273342787 -0.7841427554384559
Ni 2.882824176658294 3.952734313690256 3.7441352906685896 0.34846675365539986 0.02826208016948681 -1.7276401708205664
Ni 4.6102147088539525 5.367226772148175 1.4658507992132699 1.9762195666600095 -0.668217884543662 -0.9767466643535436
Ni 2.6822955130608777 0.6857556832184436 3.2064209831305455 0.8301670446873703 -0.2971745311393269 -0.857373172788517
Ni 8.855673501695122 7.208046542431844 6.258884907453563 1.3747673176776711 -0.44332786190135914 1.4372284123263699
Ni 8.547641420621542 5.356425742976973 4.006727478882507 -1.5745734007681529 0.4773304440990489 0.9469663477673175
Ni 5.339551438870771 4.347598559312523 4.1162132354156045 -1.4836057140393286 0.49261513817226127 -0.9193550138079521
Ni 8.322543180428202 1.6566216729758159 8.781335326265378 -0.7586520673665192 -0.12354896309895497 0.7430598693552172
Ni 4.779833259959722 7.281792135800404 7.302738022404761 0.21237106423968585 0.1281448099997535 -0.015055608781541812
Ni 3.8044321281757734 8.19226728591958 12.198256571596787 -0.43078499223934197 -0.5283658134093094 -1.630658673797495
Ni 3.958273066703816 5.064466183127433 8.305573031011946 -0.2588604660504768 0.10751324979233097 0.9125924982731378
Ni 6.352894411181883 8.556027885251059 12.067971461192968 1.003684369284652 -0.26363114796624276 -0.9310661315972932
Ni 3.767835808347411 5.260967500523642 6.080351820923473 0.7350102595778631 -1.014824702172188 -1.8143033166367657
Ni 3.271642795031151 0.6913690849831011 5.738610759986835 -0.920210419829712 0.461032992490606 0.7428395258142949
Ni 6.112387194218706 7.595501208315504 2.810508890224349 -0.1700267949455201 -1.2727693412766143 -0.058597240817918436
Ni 5.1426538379810784 0.765487922107152 13.399896871399497 0.5116091627762609 2.1980764589029436 -1.3096669856339123
Ni 1.760742856914582 5.711836741259724 7.245182913718766 -0.7332264282045631 1.8398479978750897 0.5696811272183286
Ni 8.72648508281978 9.691804025257914 6.900015382947782 0.9289377724003808 -2.840916269693133 -0.42603307937665336
Ni 2.4334571268393677 4.250868523321968 0.9583885892497873 -0.7844744277462619 -1.3882931200782478 0.11594106884471002
P 6.646033605616675 8.145422890631853 6.300509419701556 1.1843912696518377 -0.3972261824472901 -0.0603263076938832
Ni 1.4624980565405028 5.786973934803073 4.634247920349396 1.1486351950981508 -0.47159739827001357 1.0211796978559382
P 1.1304217048972423 5.270487520262423 2.5624308153566138 -0.016975194401757862 -0.4158335131358322 -0.5139236698420504
Ni 9.222346323908937 4.705728246678468 6.070182080573285 -0.7717436104431548 0.4204175329620889 1.2079875689145392
P 7.407828718518281 1.2560343564360439 12.774183666980795 -1.114892294319751 -0.023129129818295648 0.39692433493615514
P 6.749260847721305 5.449100785080729 2.707741521290062 -0.848481269615526 -0.6098898382267303 -0.30559026600684785
P 7.442839904372713 3.7624076460762184 7.7120564780544285 1.3443478248455494 1.0300993689430713 1.148507668381351
Ni 3.1116272067209376 2.6180607235358995 9.887991080627897 -0.05303851578321833 -0.5794562043272214 0.7112280695566009
Ni 7.086756145740561 4.111809880690348 12.939092895640758 0.39715573422067085 -0.8093912455925996 -0.6536101619328162
Ni 5.116185786974516 8.12148921080454 9.896934185327328 -0.5064749268734889 1.6423934457359197 0.6798331001850872
Ni 8.533559532760112 6.163157560860472 8.78540967353209 1.327560063864249 -0.40521717107256666 0.411544141731859
Ni 0.2788269091934295 3.6495129299096507 8.49473480947305 -0.011267602494019304 1.6544002403888087 0.9958201360452269
Ni 1.0965532900472719 0.7227565808459663 4.842468170078455 -1.263933231042223 0.44729018898321676 2.6331492798843623
Ni 5.319654321139863 0.430164810585893 6.829484293824028 1.030638529275993 0.7866490668000774 0.7615754116609013
Ni 4.996111888449275 8.812404873743937 4.6197476308460095 0.5993956235636259 -1.0783600037216718 -0.8422319462717043
Ni 3.7139965486049547 6.065681037358938 10.606315737473494 1.576471132011498 -1.2301628194599974 1.0005483947588316
Ni 5.435267726389626 0.6586701672336644 2.169190410468106 -0.4499751920145476 -0.5694880373709159 -0.609625271711434
Ni 3.3762892849961617 6.107641008192112 3.175558793293925 0.7426765178738695 1.028217835649642 2.909452366891318
Ni 0.15136739225709478 3.2895953588754345 3.452192319430404 0.8326998384115529 -1.1063588029274432 -0.43555027483846925
Ni 2.3547533818546746 4.003762725397545 11.922593479224581 0.2287055397336513 2.3706049372243947 -1.0809167087052545
Ni 6.9059218501797135 5.833394398911726 7.081986919975974 0.20525476490987876 -0.8531411369850403 -0.28442828721725205
Ni 0.8022234019529932 8.202966940243613 1.6436143584943876 1.1624114229466367 1.7804058925583723 -1.7502815623691663
Ni 1.2462194280509507 7.952165568345083 3.878978582836978 -0.07738506294838285 -0.7226165138992007 0.14078615291284785
Ni 8.10447666827038 2.322092249275547 1.2401323292731532 1.321225637005789 -1.8826229269487706 -0.05052603377400976
Ni 6.156135048720151 5.935312983898345 11.874103125054619 -0.9124035221907836 1.5307114092778802 0.18033151930563782
Ni 3.0839242257579413 -0.03627652826501724 0.6138256212037446 -1.2715676076590294 0.1501529388397285 2.1520110320034487
Ni 8.47086379773308 7.401036603757892 12.589433537550624 1.4759122020498128 0.30257256222644663 -1.0094392694905583
Ni 1.5639834944528492 6.727234858199829 10.903478591751416 -1.5223031306095267 1.3619241431664157 1.135470889802051
Ni 0.7352109416155581 8.470356923497228 8.676139568946608 -0.35440034553101546 -0.43760535759528507 -0.608205765656088
Ni 1.8477962029480024 2.8005078007562707 5.242682242862737 -1.7076274751440657 -0.7179731015899183 -0.8884632093251021
Ni 7.926407141268711 2.3796270829921085 11.044283646522917 -0.9036301468735277 0.28475893108379347 0.3414671824091151
Ni 2.2406237357316723 3.4675082156587487 7.192564760089947 -0.4761392520044251 1.6198554125344038 1.0360622713947254
P 3.9486240244322732 8.146436639103554 2.6476096483069096 -0.19656520755568083 0.1849942148886298 -0.4540102813158697
Ni 9.001607202143907 -0.01822904070020174 10.9545862601574 -0.9111051150943341 0.029869533865922754 -0.7942906425057352
P 1.5972344443246025 7.680969420374994 13.128982729822445 -0.36004751651446376 0.41204062175230327 -1.014329250593008
Ni 5.220675606721175 7.763967772521616 0.5551157608495306 -1.1351983528669547 -0.4739766971354676 0.7915300490414626
P 4.079950530993383 5.269482987685921 12.706444994101814 0.33877960827462295 0.201198335452318 0.1445852149439639
P 7.0770794557834265 1.6661877721905831 3.270005130454596 0.277234083461658 0.8175136175894179 -1.0992623010919778
P 1.5999254857222056 8.394583833185267 6.5993320567045055 -0.2403734629898828 0.24831380088288202 -0.08414397893877121
Ni 5.521712823340026 2.5977581064163124 11.482467207519957 -0.8315410422167614 0.4540290503689471 1.3732974180003639
Ni 5.9162176490495995 1.5686190897370764 9.598328121861517 -0.03546348301393247 -0.9432300206533368 -2.351470787498105
Ni 7.296731101915181 3.5318075164501073 4.699126900948663 0.9227378142372559 -0.7197389352410895 -0.4358935171105009
Ni 7.170362746970203 1.0992258996544806 5.3247193771402825 0.05778682910148113 -1.2659919133434647 -1.027013530928896
Ni 2.1600491640219333 9.094577152893976 10.416399177195737 -0.6091365050004736 0.6568605505493139 0.3569236261735014
Ni 0.8953021002663895 2.3831383390622687 10.66961695681499 0.5641406570160736 -0.45562364854957665 -0.05484240176117652
Ni 7.514751534597017 -0.2860540142071293 1.3758428371796045 0.20427980259111914 -0.042679541146397465 -0.9544958233751433
Ni 7.116698589236495 6.495989615909909 0.5731485029820305 -1.1295221284177839 -0.7721405887712574 0.603533042770767
Ni 1.4648388939206096 1.6460326093941515 8.31332912840997 0.2417546596081256 -1.5891227593372375 -0.028494250784950926
Ni 0.5728084364492512 3.017293303481673 13.107238746694003 -1.3309341225428046 0.6806753935807245 -0.7531223957975417
Ni 0.7069245944865747 5.470555389099975 13.154354089300531 0.5152742703326738 0.9691472547397308 0.19546811783676013
Ni 6.227171168900715 3.372049973205417 1.5468898520409513 -1.5414830459720872 0.7461351658464311 1.7523579852822209
Ni 2.960375934743328 7.35032153248731 8.873974426377863 -0.8050501950150846 -0.4172180521881847 -0.5433062367692255
Ni -0.19803576394655462 4.732795330872852 11.169563604245099 0.9022314667537881 -0.10124181496132241 -0.5394503533582452
Ni 3.758288140923038 2.5964125857175104 2.018780549722008 0.16501931442859968 -0.9105700685264706 0.7290342445000864
Ni 1.433587793306664 2.0366391114352793 1.5057095459414662 0.29727660393482996 -0.7888787274615446 0.5560424533889714
Ni 3.1819997824472974 7.382494222620983 5.393145555800979 -0.3224037380197609 0.7074958562076783 0.27370575859342544
Ni 6.947070822235527 4.516092771204225 10.222867221232088 -0.2357087105243618 -2.4157290832565432 -0.6018800805483764
Ni 7.3453449490807845 8.49162720961253 8.469416902187106 -0.3338459184184315 -0.17568939254793614 0.44296019414929516
Ni 8.96641169838553 0.6081606104259822 3.101211401968982 -0.5026928341232374 0.23152912522537547 -0.8154731901206214
Ni 5.792706221615775 6.442417617128172 5.171234172166855 -0.5265393017235318 0.12623859411597613 -1.2051069049326342
Ni 8.801345799507212 2.5399928753198187 6.321753901310306 0.5398079938079801 0.28668931533728687 0.1300034604750471
Ni 6.129178555268134 2.7556356070407593 6.52394511240131 -1.7061475481644295 -0.07806846216865264 0.012099354366695292
Ni 0.10717625319666133 0.5619622493915831 13.316187973733166 1.4911920110270187 -0.16311978341304167 0.1587946736751265
Ni 2.5283992791616514 6.464019675470576 1.2211392908610976 -0.6655663058534279 2.2749802113395337 -1.8926751689784498
P 3.9904826204182773 3.0235969757966066 5.521136829890197 0.2963924015576637 0.38124446230705306 0.7803447218486044
Ni 3.7246501234529994 0.3162471300524281 8.41891656127462 -1.1244048617958766 -1.8063935748713857 1.1528034675432275
P 4.048920611864172 0.7358403872575318 10.633886009545652 1.2736807973472903 0.09888976978937809 1.0105643842339371
Ni 8.585758363157455 6.8284898987322435 2.39444624246932 -0.4468986099717529 0.8285498207989214 -0.4989374808458632
P 1.5931794504378034 5.254765203055879 9.44277947795342 -0.0894517643049298 -0.5021554735625288 -0.5890883281003467
P 7.72127053007266 7.280437399206406 10.45272270652626 -0.3018619093126672 0.5882118390326644 0.6312143107361193
P 4.8815951747279875 3.737985523803451 9.645401992939655 1.502861219834831 0.17691812274871466 0.06281385000242731
Ni 4.435038972944229 3.2194163169482173 0.00562722560745358 0.5682495369781245 0.8297839503163387 -0.9830378966788941
