# total energy = -340868.30382215045 ev
CRYSTAL
PRIMVEC
9.23153879682783 0.00000000000000 0.00000000000000
0.00000000000000 9.23153879682783 0.00000000000000
0.00000000000000 0.00000000000000 13.51129016740210
PRIMCOORD
 96 1
Ni 6.430108295097427 7.683529698232003 11.05599173588639 -0.5113237703253581 0.8264536003915252 1.4604927821709495
Ni 5.900088730229052 5.759704720702571 9.712441896938834 0.000663858836244018 -3.173801623970508 1.255165512151922
Ni 8.31456075992676 8.35052683483405 12.690289810412134 2.2876770900809116 0.5836661286435109 0.04325855357831905
Ni 1.8963242236411322 8.498729957668147 9.846014877187441 1.226894433121371 -1.1695308076002373 1.323832478501017
Ni 8.216798764734714 2.165829765438731 4.47450651493815 0.9069412135246315 -0.05242299368640649 1.1675762549770279
Ni 1.6646772221912745 2.83928897915451 8.113137816291703 -0.269604077720226 -3.2501955266502147 -0.8649998360958394
Ni 4.747678823920856 3.501605725618467 2.948001425592713 0.578815485419429 -1.1642186513587047 0.07848960886647127
Ni 0.08207299511377526 2.7177003824902584 11.543100339257961 -0.704943779209786 -0.29810835580750594 -0.496969301375899
Ni 6.0907753943165766 -0.020767269535790882 13.042258841411952 0.5244168560638904 -1.7656637012521914 2.9119136839476174
Ni 5.537021543363334 4.363406792583359 0.53381095782639 0.35509377205361425 0.3888654691874206 -1.0361460893577834
Ni 1.768476643715293 6.275987755934897 10.901422543941393 -0.9819510913726186 -0.8071924381690678 -0.09088489720703057
Ni 4.065135776090915 6.886783284724934 10.424784351801819 -1.1068802226485517 -0.16197332851342428 1.2209736967615619
Ni 7.062256372978985 6.821350138179021 0.2972306220771336 -0.5873361212959305 -0.704148022781368 0.5807024180294966
Ni 6.714218131172062 3.924031706543189 11.664540308148597 -0.0346903522933338 -0.6913922657775964 -1.0272562430673213
Ni 4.4051610422768075 7.512986251661857 2.465107942807045 -4.716653268155348 -0.19611552161277193 3.243388273920395
Ni 4.260733618784877 7.380384429288058 13.104127690852705 1.7914924893898374 -0.9058716346095367 0.12789335611057973
Ni 7.936150755685293 0.8163578943933755 1.1297492481780818 -1.3263331334356834 0.060390071052283084 -1.2083542082253382
Ni 3.426544084173092 5.2071694328622025 1.698626205885207 0.0616951630169518 -0.2915906092936462 0.8420923353700465
Ni 1.5286043412535264 3.3953507147912294 13.455853009229948 -2.397667597769142 -1.2338978610223974 0.0903249109385025
Ni 8.281050274322688 5.172855803388281 8.5281231769969 -0.4513041952386163 -0.8362381905821147 0.032787735953982246
Ni 4.123876057054747 6.159199559412275 8.078508468193082 0.9274822709007768 0.3578877898589837 0.16211911006266919
Ni 7.102044304922112 4.7747918531823315 4.689295803506026 0.3443779282980069 1.7263538479089753 0.341422959434741
Ni 6.748522529107252 7.357047099368748 3.83790883538685 0.09894273451450056 0.7855560908462149 -0.34224622666698473
Ni 0.8446931793832211 5.266075881523245 1.5843471415904602 -0.4939649673319363 -0.07888684430488994 1.1775549634562947
P 6.244342041155073 3.6637207773245586 9.167450622551813 0.6180402352480067 0.6934640607049605 -0.2731815106588392
P 0.2394928862198032 6.17916737769371 13.300554525724971 -0.1157243248482136 1.0511968130433187 -0.7789100462846069
P 8.354847194961517 0.08483876411845295 3.8667149288521245 0.9793478494218165 -0.8862926840363446 -1.7979151050867295
P 5.916031597622505 8.377556780246922 1.7615206792792961 4.8419238419311 2.8943772177257507 -2.676190318135236
P 3.374699762643486 4.839892664333824 10.932647300554951 -0.5682585358391892 1.4512123853102878 0.46059153407781317
P 0.2238998941443656 4.742056816831908 10.295751442302548 -0.15384427164838665 -0.7953928744309785 0.23187185327677484
P 3.8838468184345043 3.771868253592246 7.3335906825997705 -0.49115552290759934 1.085866596511362 0.5223185787739649
P 7.943776006679498 6.176120969911521 6.645636106764015 -0.1358511775050757 0.34425271557405224 -1.304069951162109
Ni 2.4538168477816065 5.439684198953048 13.226499122001592 0.10156963061438636 1.7613774151720119 -2.3481131838797817
Ni 2.3739732692720694 4.727978720262704 8.630715113254523 0.3641013748688633 3.7939414220600205 0.244656663746269
Ni 5.360126798144262 1.1738086130933862 11.42374208235182 -1.2988922636159115 1.5603582856100353 -1.0718566553855153
Ni 5.2125329568666015 1.9611573201693413 0.8403940517948418 0.6105261862591485 0.3547968096384857 -0.11255004088529004
Ni 8.369626888474498 2.808104841311382 8.760383152618688 0.6373715885867668 0.7047473469282637 1.1721579608104395
Ni 8.332045294288774 3.519994950776404 6.398190249924953 0.7297284423536335 1.4308145383802262 0.12626481936822126
Ni 1.7863765973203334 8.805881714422608 2.910534302487289 0.7419481243482771 -0.9784165958567989 0.4043324544747682
Ni 1.9402294218595806 0.20965839933957162 7.754291288935126 0.23305198962780507 1.2197238835148607 -0.7733351232999907
Ni 0.8977477556408419 1.8019686662418974 3.1708295380900724 -0.09993029523875048 0.33083592794751415 -0.5787139268445581
Ni 8.832154673659298 8.045341395829912 1.8262669993434069 -0.06887291171231365 -1.223755373271757 1.1292699031976616
Ni 1.1204410876726862 0.33628741615253543 0.6094994207517971 -0.26753433967539086 0.6317329022437507 -0.06997642918913755
Ni 0.38077604761896655 4.146382548488005 4.00204374776792 0.7055269054067657 0.9506137147119176 0.001613881454339156
Ni 5.434505305723328 0.4426836695224015 5.028551159361511 -0.058387953020589765 0.3684581091756622 0.9751929467131786
Ni 2.0535465598182547 7.9258760530744565 12.592171477824959 -0.8057266522568188 0.2196269744711508 -0.27806043601769526
Ni 8.179087929006714 6.1532359853901735 11.56489415590096 0.43179543578172735 -1.3657342609411254 0.14704344667646935
Ni 8.378581481046384 4.153380054848305 13.495968660798129 -0.2667478392183535 -0.11508797681579536 0.2697262051203871
Ni 9.11871086749842 7.144887876186162 9.618511913475233 0.7209720363172422 0.3640514954675343 -0.5183652505531718
Ni 3.5814400725892703 0.456032474531627 0.10766558994577785 0.24898614435955826 -1.8631895008145072 -0.5453412649213834
Ni 4.470889598062206 1.674158012470994 7.629109777395638 -0.6747713693914638 1.042048056664515 -0.6566378930155465
Ni 5.69619173421331 6.820907024319794 6.168930524391683 2.6041467220044248 1.7379150703840132 0.21955729757547995
Ni 1.5407345831498764 3.23865457632194 5.82723065707946 -1.2459092836609769 -1.522971874541777 -0.39497698140179716
Ni 6.9520041058799675 7.173348710102788 8.50846461526305 -0.20994522840701263 1.3538318530765847 -3.022819761471581
Ni 1.99789884433028 3.303699998241029 10.314572703473228 -0.7963475250347639 -0.5707643329801783 1.50483839816586
Ni 7.772918687792398 3.6811222278379683 2.583183015829173 -0.31633387767659715 0.12010137086998672 -1.3143224821280526
P 0.06305140955256566 2.3791060048081203 1.2543344023153593 0.43170416161950165 1.3292235676096011 -0.5297374969458554
P 7.615253237756048 8.747704557321544 9.639129632083534 1.137372734810454 0.678131029892316 -0.7112003016424591
P 2.7241163019103216 7.394342515853721 1.2945571397328532 -2.3206854266861323 -0.08280957639806383 -1.8453589003909896
P 2.450770439999418 3.352534838143382 3.4712939681856927 -0.5367697212022884 0.03383391783030948 -0.4180004388801639
P 3.556810327247214 8.622137167462979 4.364443494383177 -0.8859903223045773 -0.009702057779112323 1.4171645516969593
P 0.9264218381022218 0.5036441355517378 11.91545814670548 -1.0227722391540386 0.5617677859085228 -0.7558035421741306
P 7.0075502744418685 2.1050031567210366 12.868112325273962 -0.28431387312657486 0.4446524942500536 1.1738965407681008
P 2.10910195991889 7.056108168182205 7.904118239432518 -0.6576210828644222 0.17999161946771583 -0.18649779601734978
Ni 8.971412435460243 8.637359974835187 7.443397066377941 -0.32795937773066747 -0.44419329522544787 0.37847384154045144
Ni 2.6996619558042094 1.862998368811738 1.618868480685895 0.01407576136677576 1.7319503681601462 0.5661759422785475
Ni 4.357821711649347 0.8103684720628186 2.916709278746398 -0.5349082425135175 -0.2909578608056538 -0.5987225087560012
Ni 3.448912102525342 1.2069683002255702 9.518541734218037 -1.8280453488132065 0.08720539147291433 1.034202078257535
Ni 6.4192058478526866 1.580882545103626 9.240925362488829 -1.335941345949409 -0.8643449761206599 0.7308337596026704
Ni 3.667053362807498 3.4769759802764106 5.255838105067346 2.581971471458966 0.948405137096373 -0.7852398451573768
Ni 5.869255390857812 5.9496990193850525 2.2748422368857857 1.9632316390407738 -2.8217947183723338 -0.29704906130505615
Ni 2.0758868835543027 6.054163111697913 3.7666367405917427 0.6842397138932151 -0.13930236927846976 -0.4613785487554828
Ni 6.07832204856454 4.672764887095223 7.1371093816489735 -0.15065173285301797 -0.8069808363788941 0.5602382366378739
Ni 3.739308616477766 6.065545598956817 5.724990442447598 -2.061388644429185 -1.5550623273184188 -1.1577541266802835
Ni 7.46974572423225 8.640766412627997 5.6146569378077205 0.14197040302893613 -0.37639613307581626 1.7395284376177202
Ni 5.090150447871233 8.75060326048399 9.455146911424572 0.7695044366999909 -0.09119882890302358 -1.9697049054699434
Ni 0.9354133568290445 5.338368061348449 6.430023364941076 -0.43539369465594696 1.8586293922476504 0.05256594702217398
Ni 3.1323349447235653 1.2436452036153718 5.610792615693709 -0.1684422240672196 -0.755138654896622 -0.14343464627928845
Ni 0.8315714702268497 0.7872360823034014 5.256378150083279 -0.7260679627829107 0.09675009773855595 0.6185832522356701
Ni 4.358901801681214 3.1342643363189513 10.405922471860704 2.5927076269295477 0.467953116649207 -1.1723263680675036
Ni 0.014093790185051537 6.916241124824823 4.194782582915992 -0.9329607775168449 0.6284694010011306 1.2018698860525752
Ni 6.911754597000145 1.7323628641882598 7.022911554895085 0.2983906629346151 -0.2697087216188903 -2.0823909577124655
Ni 7.624863269578042 0.9317392044129507 11.160460443968619 1.81999059682953 0.48229473008285967 0.6724802593644418
Ni 6.62582614779493 1.4011167913383094 2.9766450439762706 -0.8645126120467757 -0.4324122434301198 -0.13057450248716868
Ni 3.689522928085821 8.21955899481615 6.795030098094786 1.5321810518448709 0.9751145280667595 -0.5969219652121526
Ni 1.6007488164589876 7.979391283114899 5.698927039140165 0.6796112139822682 -1.7118888215235808 -0.018635098602684034
Ni 3.1361568017594017 2.0617810923688973 12.01022635388612 -0.962841367126361 -0.8484892400353258 0.16666610600340329
Ni 0.25493171159838457 0.7902824900855897 9.438082412074948 -0.5302787141613061 0.6540608763169897 0.6322378669046272
P 6.282625232284573 2.8376549967986096 4.687579660455392 -2.279870963772932 -0.4125792678645927 0.1151648528003178
P 4.232568194107735 5.477118088519029 3.6750164881193634 0.5350871912935429 0.28078194871391643 1.4887666894149778
P 3.540590513691744 3.4908232883772667 0.06832077186187818 2.4387301721374066 -0.05872528175535048 1.116648100668593
P 5.943366183813595 5.84395174318818 12.130219740657152 -0.38790927592173835 0.28843586571474844 0.8282577434797995
P 0.13286492122771615 1.6476819593821566 7.1597811176255695 -0.4025403955713519 -0.5685393003044015 -0.24913372568101608
P 3.7527589684130644 8.989072369058203 11.136532295570337 -0.7940546152355292 -0.4735632637471328 1.47776133944341
P 5.633611133136173 -0.039477752241667906 7.32430837040283 1.1798815547069421 -1.7485116149529372 -1.0098992398461124
P 8.158538523785044 5.938658099059304 2.6933678926954334 -0.885374028876817 -1.057016247938573 -0.7389820997414176
