# total energy = -381175.28033524984 ev
CRYSTAL
PRIMVEC
9.15746700303250 0.00000000000000 0.00000000000000

0.00000000000000 9.15746700303250 0.00000000000000

0.00000000000000 0.00000000000000 13.40287860989791

PRIMCOORD
 96 1
Ni 4.374567846880349 2.7883022289687482 5.864000575610378 0.755570343117402 -0.5337401903473453 0.22021215755065945
Ni 9.047421871373311 1.6918054268633504 4.307859361649119 0.381614186941646 0.849859123799659 0.4184812351713244
Ni 3.818846952629851 4.5362429294871305 9.52295998322194 -2.4234722175370713 2.1982623496615044 -3.466632533429159
Ni 4.194989915987175 7.574763790976281 1.089669910341968 -0.4884872320468168 -0.3510049466962213 0.5726744055186975
Ni 3.4562204107920746 0.2959244668335545 5.77755225418163 0.03925560306651304 0.14823849542583503 1.1197699341270264
Ni 7.955979991137013 3.525148666061474 10.26400511900485 0.23389299747186168 0.016400552845210463 1.7697142171724811
Ni 7.016378073783921 4.785628232496503 1.4208790138672356 -1.094329896787367 1.086560280144277 -1.9203484665240023
Ni 3.8431783428584674 2.0208698515811125 12.356998266145451 0.7524017155814333 0.3612824173628294 -0.12774860300259935
Ni 8.28140890139457 6.994088798730684 9.81821229196638 0.20388873780028757 -0.4364169937141387 0.9864065560408108
Ni 5.926914206452921 5.207778310836352 10.00137537125041 0.8066283381354817 0.5950502021107366 0.937567937271553
Ni 4.650528119571108 3.839954914420201 0.3545047842187474 1.6949894746650809 0.3453336073430569 1.1711084365000024
Ni 0.30221656251518125 6.061409926546141 7.51508824051945 1.5620858098241033 -0.3457578393646691 -0.13775250829284663
Ni 2.190969803969726 1.4510830877818175 7.526198995417598 0.14357811383568822 -1.6133636341624733 -0.31638195730571317
Ni 8.846534514412395 1.6205420174696394 11.285652447578967 -0.01774318291603396 0.07957332884895328 1.4918535558704178
Ni 7.904881324416772 4.978511963164679 8.74062016505404 -0.19059099225011691 0.5427562778030265 -0.9282358612373497
Ni 2.7483848296437436 8.783851651742136 3.6735683149626017 -2.0850607912351444 -1.066539614047976 -0.36470275589828804
Ni 8.047783599357516 3.4499841756600884 2.7884551586702235 1.513634142080619 -1.5316871429275878 -0.5913316156085687
Ni 1.796383701763914 4.848045528619291 5.648348634356803 1.1620193297145407 1.509572827527052 -1.0788251162835487
Ni 8.457012491542837 6.980947833364457 0.9195809469139399 0.1063066310787395 0.1800031894319416 -0.6689827877341447
Ni 5.473756944329071 3.9183245183255444 7.805716028351035 1.1693408030766184 1.6964020387418914 -0.37821647411400666
Ni 6.284055425465353 7.442346815927056 11.536460820984097 0.8968699453315586 0.5298940771283777 0.38777017924071283
Ni 5.897564524223823 5.443271736172856 12.560293121221196 0.4126013793517797 0.06629358102091164 0.5942572738957959
Ni 6.867560075061587 2.218240741154829 0.9225754386733518 1.8804215484220774 0.26886694244388537 -0.9790177197759073
Ni 6.858988685805289 7.824817589087908 3.8748796626527553 0.011670237249076674 -1.6865485429865792 0.6131595101169376
P 4.847486923122887 2.86466634756733 9.985265555032802 1.9871151305265908 0.4149266850508467 0.6320892571419049
Ni 2.0907871133031617 0.6338148583945005 11.821687534688154 -1.0495273957606959 -0.3244565067837315 0.27021780004482493
P 1.133978315167395 6.15179412735775 3.869022546660952 0.30620167433860174 0.06979002420994433 -0.06787943745079278
Ni 6.243002500213231 3.1904432415767463 11.997225191072912 -0.14943817216089103 -1.4054665465337408 -0.6416193081195273
P 3.6546169366870576 5.801173024959084 13.174239023131305 -0.8089027359919553 -0.0917431314422678 1.5743124337972823
P 5.447621533071085 2.735518588292142 2.4480226542272807 -0.6098409872666658 0.759575350511737 1.2301533063783008
P 6.815509031757314 0.8799794802057538 12.135515765554818 -0.342548588398752 -0.28692328572496395 0.8840918197302838
Ni 0.983594389561699 9.015865239560059 5.4265712633238055 1.0032166856196143 0.17722202714237864 -0.5938191579171128
Ni 8.480849378545127 4.0166299282255045 12.892162478128279 -0.23822479207799616 -0.17890532838207251 -1.2282656024372844
Ni 1.7987371708225341 6.810435794953906 9.642808334602075 0.5885810494466251 0.7948843102256762 -0.42103639749301036
Ni 2.6552533886858867 2.244595931624515 9.894675311210227 0.9329324953820707 -0.3637735592157993 0.8103662079113593
Ni 1.588326048021287 7.111167016296682 12.363097139270124 0.7008518685285994 1.1170489356514373 1.1634324080119833
Ni 1.4033818413757726 4.456866004194829 9.136702597392842 -0.15424973461692143 0.38198879667224533 -0.1366947564522936
Ni 8.565674996794158 8.526993855534965 12.356502847172411 -0.6692321847407894 -0.6339011135396632 -0.42715279480339335
Ni 2.2339915846599925 3.9925000022742805 12.844085775568914 -2.0990362795786304 0.15052446324653432 0.8443855022795974
Ni 7.313125796914635 9.100974739290868 10.224988814447814 -0.912350814575977 0.7407988412351822 -0.7385982340394376
Ni 1.471586656739993 3.5758535616940854 3.3959276470490534 -2.1751121367972863 1.0417768052809995 -2.520855577984252
Ni 1.9367402008357992 2.5593472351803177 5.272585705886376 -0.0661889371222473 -1.7863083740857364 1.6984571214987072
Ni 7.478225772237074 7.391907486841916 7.545566122701942 -0.16631257931872648 -1.073481335473132 0.17507721288523395
Ni 0.529699951331938 2.1620047353611023 9.06617636410504 -1.373773072085202 -0.5213197051958054 -0.5195798396865633
Ni 6.886360355129089 1.991080610928614 8.854719458554788 0.8138863052494757 -0.16907522966552815 0.7155842896427677
Ni 2.820426623745559 5.848059256788408 7.692153362425521 0.5983311868548534 0.9324342155894135 -0.18459132302325632
Ni 2.6487515870064295 7.117677975443294 5.617562145531215 -1.5339250311191712 0.5426899433414654 0.011432153096341602
Ni 3.942133932926373 6.744694338254156 11.359971703762023 -0.49883977892573445 -0.5812282086259796 -1.4058558115523594
Ni 3.9902472653543555 4.234568489027476 11.560264741104632 1.167430730538099 0.3216727733910073 1.2438608857723805
Ni 8.728439817992285 4.30623482697597 4.802827787305456 1.3812655238075051 0.23537009623802044 1.2948414905853054
Ni 0.7519351957226429 2.7035773428584147 0.8966066933175709 -0.6952286088045511 -1.2842703999376788 0.020568311069654902
Ni 6.777890156688004 3.1251779731690132 4.568746443404123 -1.7415166716923425 -0.00989591895747328 -0.4306322687115615
Ni 4.282544459448146 8.809117103620478 12.25803168711696 0.6785305793235799 0.09863445924546238 0.5266722277569704
Ni 3.954221789569871 6.8912229701879495 3.630598731835114 0.7498244417725602 -1.9096819879490916 -0.6264557130052115
Ni 7.143941591241438 0.8548248336799781 3.4895197086047647 -1.504722698523602 1.1580037807972443 -0.9857725220012378
Ni 5.178978076636503 7.576732646414426 9.46406739620679 0.43454985859841294 -0.2799255142508921 0.8976227643371831
P 2.930151395186763 8.640976849202856 10.133983737363156 0.4219529957700088 -0.06450563588255342 0.49229400738741674
Ni 8.125008519868588 6.022087762586157 3.1649964718487533 1.3773870146887053 -0.45049866861818544 -0.09514444381433292
P 7.986721608373544 6.016098779067334 12.08702422973337 -0.08859610117285387 1.445964249537471 0.42488096805008113
Ni 0.6329247525871158 3.6146903798948986 7.079628699417738 -2.1122226963619175 -0.4831200541976325 0.3106969911057939
P 1.0038598643738659 3.396431307742532 10.962094407861004 -0.1498570048658645 -0.9988473529073248 1.0990941509452297
P 3.070874192944815 0.44087709867011543 0.5650734154550462 -2.442056665407478 -0.5123069601742338 -0.5843868088596194
P 8.435382554124699 0.06449512542006805 8.336510297007896 -0.3695294878629701 0.34128926207035415 0.14577743547985217
Ni 6.845911822709142 5.664818339033568 5.194084234454014 -1.0067246987728726 -0.18835541805137881 1.3194358920952178
Ni 0.694445532675511 5.530844594568135 11.125742924639507 -1.2479677088519023 -1.3211608452061245 0.4698909571018682
Ni 3.073685535361144 5.077311876290963 1.8547167675359444 -0.3083806842677915 0.5340088706276996 -0.4736943900083584
Ni 5.947371988075327 9.037678326321279 7.791844297105907 0.18956872163318964 1.1439570728961912 -0.5645368640132277
Ni 3.566348110788062 8.440986924023049 8.002618055606458 -0.711084344889885 0.16809975312613631 -0.05742661754858497
Ni 4.884437303089943 1.10360299661703 1.134742963674768 0.8556348499411716 -0.8852531870282367 0.8372864293409709
Ni 3.7205507001970446 1.6558257384146366 3.929482892052895 0.41782354698266755 1.8127637400637877 -1.8585388894163735
Ni 4.355410425593836 5.380515613765365 5.808821341526241 -0.04182259246274088 -2.121845564163662 0.008900130703107252
Ni 5.021130815300162 7.472319205922638 5.892777000395626 1.3949347937644816 2.0713820081964713 0.027163962009301608
Ni 1.5391962367391925 1.2823292830648665 2.6538907575733472 0.6854285919949937 -0.1873136070504258 0.09238025080563446
Ni 8.718925209619108 7.1030443429309384 5.581709745875945 1.5862639497322037 -0.9994315075455692 -1.6175067097965692
Ni 4.895517838346482 0.8357644815452993 10.270559118247085 0.2643045198841836 -1.6339514856161537 0.7263644109774072
Ni 1.8494603813894537 7.2049028500867145 1.9366220695095107 -0.5470605616053352 -0.3484243304532387 0.19125022310067064
Ni 9.199042055044819 8.418093256137636 3.206786573206785 -0.05495090231458278 -0.17148358199670466 0.07740537466335701
Ni 0.3635596877407857 4.873576547045103 1.3696805307550148 0.9591891150857544 1.2256392205580313 0.9673194575023727
Ni 3.124564422869684 2.6726617337459544 1.4363056830351415 -1.2977375811861778 -0.8632268033558166 1.225334801943735
Ni 4.980902062091916 9.002980683274147 3.472832971956445 0.4060172983763588 0.16792748921433015 -0.2687730971784984
Ni 5.487483987593165 4.7444379452370695 3.4227471211034555 0.6667325582473873 0.8562094914977189 -1.078628169781394
Ni 7.594937691116906 9.042742405657533 5.66294380550711 0.11157559278716268 0.4738070043268227 0.552792578993106
Ni -0.09205635431395819 1.3820083130379517 6.73399475363123 0.31086796946601947 0.6251868735951169 1.163825272575028
Ni 4.638971396022552 1.8301747555627825 8.13560096212581 -1.6496246733770366 -1.198741881946555 -1.40037807626724
Ni 1.176404860492641 8.26687600102091 7.683213842989624 -0.48291025217967154 -0.11815478866657715 -0.15987119456875692
Ni 0.5908873996159217 8.926927918558809 10.157800477937707 0.8481292855927458 -0.2805981148378845 -0.6470145109931696
Ni 0.8967294033774368 0.06427168322150643 0.5599076882333818 0.16912459484622488 -0.36060570301077893 0.7431490866349136
Ni 6.814629914910514 2.102792552742272 6.498184479931192 -0.1256058456279837 0.14834930997208645 1.2450124828783202
P 5.128621164755749 6.352012989216411 7.768214368861299 -0.4063430571468937 -0.8773462734763342 -0.430599101480781
Ni 2.932266770099375 3.511696346812006 7.568190561053021 0.466589660642777 0.9279828646862792 -0.7466360167422496
P 5.595093384121756 0.5816850608727014 5.658333936541704 -1.3388824308556038 0.10014858189714364 -0.929322152322993
Ni 3.4949290244527296 4.00681312343624 3.9816868650586428 0.6505186674916862 0.27517488693978415 0.6681070699974108
P 6.154733674314237 6.66893461248775 2.2413633457190953 -0.9843311615690209 0.4455276977661553 -0.9330466523624318
P 7.549205300149007 4.23774613012997 6.868533513820075 0.07847341091655517 -0.3919790751157378 -2.0982348667232573
P 8.634768086472333 1.0967806835871772 2.0010228730178907 0.4072342015025954 0.5104866191360434 -0.7536936949199794
Ni 6.325401389666408 8.394769187295978 0.5825376210647542 1.1171057570313019 0.2369703508456048 -0.4800864095776312
