# total energy = -340871.1551622467 ev
CRYSTAL
PRIMVEC
9.23342921967520 0.00000000000000 0.00000000000000

0.00000000000000 9.23342921967520 0.00000000000000

0.00000000000000 0.00000000000000 13.51405699232289

PRIMCOORD
 96 1
Ni 8.967183030978111 4.18426683234383 10.517855246434598 -0.9856357393130574 0.4652516585576439 1.0085596950990825
Ni 2.9828592238780014 5.306026882644757 12.884625926755042 0.9991335166891762 0.013318314375460934 -0.1760298066064904
Ni 5.883707131778648 -0.005214117330827758 12.512692328337229 -1.081929209130169 0.539912123486012 0.33028776875352794
Ni 7.566564192810478 0.9854838723556697 4.826532146988507 1.8335930181043134 -0.8666803091220558 -0.19607438396219137
Ni 7.9344424692313025 5.985459518861562 3.652349303796178 0.10622332733631384 -0.7543711806029783 -0.6124987366044871
Ni 3.8841803913098265 6.744290410661487 1.7755172906228627 -2.22613002260605 0.8465478000382388 -2.1145881112703
Ni 4.659714556089152 7.8251833044080605 3.6889995533468327 -0.3558427344044968 -0.3760909431305716 0.15673007783661397
Ni 1.217916979437177 2.11125123082302 9.747067064138088 -0.6509446992855111 -1.054074905922062 0.49507748366982474
Ni 1.457062789368891 6.224217524777171 2.0475414943771577 0.24029581567441197 1.026685972386148 -1.0197005422072503
Ni 4.121867319466667 2.7826323169911586 3.653741704882576 -0.2045196865160671 0.15498301323852018 -1.536764043229863
Ni 3.874402190046595 0.6824251905410856 9.327618240318397 0.23149415822238195 0.7499488831655665 -0.6708782049846446
Ni 6.365821391229402 3.5140122245081886 10.073526024953054 -0.3422050890164042 1.162374141950798 -0.011344221368225623
Ni 6.84147225041173 8.674935771126812 2.8373570037210154 -1.0273323477208953 -0.2670152339471273 0.7056045527222363
Ni 3.982904213695536 0.5999595898591503 4.626320936930888 0.5912413698876076 0.2982117141545897 0.8989656515183228
Ni 1.9972922506617377 3.9492483651549533 11.176760123398886 0.8716420240027053 0.0445908992364974 0.21108139889398486
Ni 4.756157721523003 0.9786326680711395 1.8766021007923386 0.660129965329205 -1.0523736069602392 0.6390150377274607
Ni 5.238548983842404 6.597294221699601 12.8412592809826 0.5382177665027247 0.037054995870768444 1.2716552822768294
Ni 1.0086043784587202 1.3977010746178875 0.5636278936074396 1.2743672818913536 1.4303106021606142 -0.30536375181833864
Ni 0.20838002465401248 0.749177341827585 11.94462869545986 -1.2178852876442252 0.7457207040168318 -0.47597058763704486
Ni 8.181261258624533 8.309144249649792 7.321847855190277 -0.8831893625206726 -1.5868429621641251 0.08875936622359552
Ni 6.014221650056052 6.304012817805351 2.072367414808177 1.0839920051964687 -0.10648146609370694 1.5103539286674503
Ni 7.243643481971025 6.169961896238224 9.711795365530397 -0.24079743790117888 -0.6935453075648572 -0.39775274437472147
Ni 5.751872233160694 2.166522536547006 5.579088923813583 -0.37245077527482306 0.6756578857614751 -0.9796044455173128
Ni 3.4925722024749284 9.095536926880072 0.005767199725225815 1.0173598098892156 0.7522140250506594 0.5395215729158128
P 0.38317345148460374 9.071927049042412 6.0653249859498 1.7882680689152686 0.7802305648682434 -0.8094768633278704
P 8.942169671939308 9.040496456879957 0.6142723280821291 -0.257515264876492 -0.9165363134122344 0.030266512194025295
P 6.043759389282753 4.6207494858995055 7.6726729116743115 -0.07478593476263894 0.4015412648828762 0.9034316577094764
P 2.7885878786670646 1.8480985056085857 1.6676209799133626 0.6875075860112094 0.30339942900311617 0.4553539398279577
P 6.177607175412874 1.8746353804249465 3.3015519475990094 -1.028801218956938 -1.071816031955567 -0.5519585131275849
P 6.040352253998398 4.841742374505902 0.5544341683970532 -0.1910213949193162 1.5865316015712936 -0.20598444398705168
P 9.273132699398472 4.375167975986232 2.6315918861470284 -1.6967226553061039 0.40307492791858324 0.04479890148224543
P 2.9270431458456763 5.4318600524420315 10.106311161143193 0.6417800020671076 1.9351703620281835 0.01217237369647581
Ni 9.366575000421985 4.1128370259487825 6.014106232194116 -0.5131433400326001 -1.504015130933616 0.4022449758181202
Ni 5.852322706760969 2.956497784211783 1.1767192661262378 0.4486467030111112 -1.4253249760205646 0.4964062297835773
Ni 7.189535588295355 1.0087521133219985 1.2490788788170435 -0.0899202193009161 -0.10050467968498175 -1.6523616126922251
Ni 9.03093062448269 1.2560695078787922 2.772192078871862 -0.0787325781152128 -0.5736768786412829 -0.7563758697378329
Ni 3.9388422907227896 5.474730863079597 8.224627904396975 0.7902815213463422 -2.6538119504400357 -1.1005254840751177
Ni 7.38965169403474 7.601448087402062 0.1812799106714032 0.9136474219002136 0.5969219652121526 -0.9543387289719886
Ni 6.064903941589457 8.538004019725756 5.624198840972709 -0.576278320819872 -0.8009816813726657 -0.48553277740418316
Ni 2.063431302265632 5.323071792495489 6.495450423670032 1.137172702984506 0.42929015286137034 -0.03995879978112473
Ni 7.446945120699847 4.593326201903475 12.522516696745235 0.5173576352242638 -0.6484926382005928 -0.3232414034297078
Ni 8.096747683400402 5.70370143430302 1.185940691623489 0.9285860454879169 -1.3759435973739593 0.7005268810890128
Ni 2.780259325749751 8.999444631746506 2.390772055545792 -0.7260782471955559 -1.1050745368983808 -0.4487752581691755
Ni 3.788235831039539 5.431407614423242 3.699418554579533 -0.9372799737174891 -0.4021184775425849 0.02473298397030579
Ni 5.249232061143214 3.7748935261997194 12.25483035791395 -0.9641742270051716 -1.0004272957999352 0.6428732351312865
Ni 7.20632196213535 2.042665320546079 12.27400634316747 0.084495448740919 0.26827636004773797 -0.11987048580610322
Ni 4.976024131796902 5.5456435974531715 10.82421857247214 -0.45125611560950024 -1.1388716879534837 -1.5105737579877405
Ni 3.3418918753600386 7.676515864805338 6.215439303869754 0.41792099179248027 -0.8613133883831877 -1.06725129540302
Ni 6.437777503074878 0.9353648199885135 7.420149709872749 0.7734842472833453 -1.7837650388385924 1.1336045260172736
Ni 5.2232953592089215 7.767141969997607 10.608629086490145 2.6001684540829673 1.8522491997529198 -1.6071377078574192
Ni 1.413185534975242 5.11056442509864 4.072285652664686 0.14698945351008233 -0.6730872968208215 0.8036337742835321
Ni 3.803923426833901 3.0098762370000163 10.198747941753517 0.9386940804561963 -0.0010952899467077909 -0.6937815919453794
Ni 5.918960363528428 4.4768003284927325 4.2156420239325545 1.142963084414038 0.7626383057077768 -2.234925509410493
Ni 1.7714148781382038 3.849453465010476 1.624970848227819 -0.11301978143285697 -1.4566399840837623 -0.4271723351874192
Ni 0.021765038732472448 1.3633434854767328 7.595589476730183 0.30347013434005154 0.08025235719384889 0.8766921848321031
Ni 0.6230653224758732 7.542067905793149 12.212274407203745 0.45806696788374657 0.914250088481219 1.2762986945861117
P 2.1715547553274224 8.636201536661037 9.60896728397424 -2.2709176112343856 0.5730464441461356 1.8160097578049115
P 2.458483560100705 7.279967791479573 0.0028946799773587784 -1.2884836666880777 -0.9195118511007906 1.5184516180739203
P 8.369678609878067 6.166563994382822 11.547896876897893 0.2995026650518713 1.0958054528916288 -0.09294177973605929
P 5.064942052632516 6.331860839533307 5.183762433138549 1.19139829709729 0.4347074672221998 0.6731135220730666
P 8.125445180592207 2.1794585705128102 10.191207000326054 0.855475441545172 -1.0781592005647753 0.022471955850270977
P 0.06946862608502873 5.779997257757296 7.615156959371391 0.12201761405609308 -0.30653591774956884 -0.2506869291007489
P 0.6664975255938962 3.0925061927173485 12.356780340376497 -2.1394095411893543 -3.1141276051486435 2.1954055969389996
P 7.993841117698126 8.010821393546173 4.589035427468136 -1.4855163007984802 -0.105599834819702 -0.14464075077224767
Ni 7.3696520869184425 5.2478655136578904 5.96427987952483 -0.7038117224878717 0.9800698151895055 0.9516876645023868
Ni 8.465059930982108 3.0457481084897737 0.9983091051740153 0.20705762244657244 0.757204022066083 -0.35293250273623733
Ni 5.73070921399608 7.1684741368492455 7.5849396397736095 -0.11599171957698733 -1.702411735271081 -0.732722491984951
Ni 3.9289902220279194 4.341244358005956 1.2866072274613083 1.5594468295393595 0.5554873522164498 1.039900928414525
Ni 9.138139968077946 8.892835461033318 9.516909073951064 1.3289057792588663 1.0258634764848527 -0.17900971517042075
Ni 2.2080267996992475 0.9800176824143733 6.547614680550697 0.9201695392894474 0.2016516209396527 -0.0473059841748153
Ni 0.68750080643759 6.560452840169579 10.021348841271852 0.5099554292229217 -0.12654172717869175 -0.7766335915456043
Ni 6.23586087868929 1.1266999347917945 9.907249512990457 0.0463410491583847 -1.1210002069897018 0.7471844330465519
Ni 1.5375321227107785 7.473528162660982 7.833517397382747 -1.7677385815033493 0.21356714143031608 -1.2664426277276382
Ni 8.088049793324894 3.5887845321849072 8.395675329100566 -0.03126178622775907 0.5538099645140269 -1.1810262098343467
Ni 7.63984991842546 8.402097178938694 11.132001076540044 -0.6127262792342608 -1.129562751847732 0.7976469605724779
Ni 5.062107389943364 2.660898789649857 7.993105213410421 -1.210715252258347 0.8077634801811895 0.26277137106910875
Ni 4.639927317838818 4.2140354072944035 5.90673715027794 -2.2035027721248373 0.3423837806861135 2.35576735799093
Ni 0.6514941268850915 5.001600730001955 13.193178498797788 -0.4062605247354164 1.1920328453574955 0.036405792322543755
Ni 2.5446406856788064 0.5930169746279667 11.553031586739708 -0.04939320572114719 0.07382099974620836 -1.2067372414472057
Ni 9.190382709104727 8.08496582805396 2.6731210795574483 0.7733592916697068 -0.47520979821162035 -0.23739741108069437
Ni 3.1389872740762774 2.813499669987364 13.161569701456505 -0.7321460506561907 -1.1015312996318125 -0.2076032105373973
Ni 1.7321174045061818 0.332717378960594 4.270131258224062 -1.4025311180545006 -1.6902139076533083 0.8385226157409171
Ni 0.25328403634744534 6.7272455008107555 5.363986039537513 0.5747451720047972 0.6428369825767123 1.5917229159642456
Ni 3.3579580417415515 7.355017102024938 11.588209104372057 -2.8943021415134407 -0.0036070006249679814 -1.133245342905642
Ni 1.3769997269010186 4.432507569796114 8.874005729365606 0.937883925850075 -0.028374951598267265 -1.6305296044187982
Ni 3.650260702166581 7.528005393494848 8.7103099607959 1.0743560247686013 1.2679526366142615 0.6918000427389763
Ni 7.70669994405888 3.1656995840427813 3.6893642737905505 2.263411018444695 1.3909475269819593 0.39171862236549954
Ni 0.9669431470142456 2.35503222209009 4.392568372851726 -0.4792171195988005 2.0512369007071642 0.5541714616185037
P 6.81321795780976 8.22692979823543 9.02033526475695 0.10634391207457815 1.6947331356799007 1.2658528166624392
P 4.301854550084386 0.20039495529382148 6.976780765002515 0.9762800091297702 0.6490281989890887 0.23444732731343493
P 2.1623859603752145 7.331462624761007 4.225169999271109 0.44697779994912057 -0.5367314117651852 -1.371248248780819
P 5.506696994121435 8.132665722034934 0.9685229867084277 -1.2065634348735026 1.6593776389987422 0.5079641098245058
P 2.691941577796205 2.415169544873305 8.188140163195929 0.1583850969415337 0.5791844387230735 0.1938534650514726
P 7.7950176920124274 2.4366557340513393 6.571871821758094 -0.4472477657810556 1.070136330260299 -1.581116601203309
P 4.49714157248036 1.6679081395538597 11.764256430854722 0.8700034599580179 -0.5721380733992533 0.15636061031233717
P 2.687841935340233 3.4606153048620456 5.027269662496554 -0.6538780708822223 1.1929730977835777 1.3761518567300235
