# total energy = -340897.7670664004 ev
CRYSTAL
PRIMVEC
9.00312645402652 0.00000000000000 0.00000000000000
0.00000000000000 9.00312645402652 0.00000000000000
0.00000000000000 0.00000000000000 13.17698561543995
PRIMCOORD
 96 1
Ni 6.216901774688182 2.0668116855793723 11.268997078658192 0.7139197574561511 -0.7586273847761709 0.6431869097169632
Ni 4.615632745467433 0.3331489836024212 6.1773177294115 -0.20992903045709654 -0.18700507467107147 -0.49324428711582796
Ni 2.878290465783434 1.6077602832623 4.719060660071233 -1.3171272985666993 -0.5195700694945503 1.0005604789436897
Ni 3.309729279826668 4.3973969646530096 4.893444913756416 0.3311742851235393 -0.3441544994332912 -0.3014348490775776
Ni 4.7811372157113095 4.469818112378721 2.443447569697051 0.22253026416087482 1.3807680153457962 0.5287694766056312
Ni 7.141792936530829 5.888539753324171 2.68467913563343 -0.24193977903573816 0.9781767119318509 -0.8730090795535611
Ni 5.092636381569323 4.377328996194455 11.551248688511514 0.21406285011981196 0.3745369683798905 -0.564655391868963
Ni 5.560690910157617 7.794168469269853 12.416291568466212 0.0890730408092724 -0.15144183285448112 -0.4110211793488534
Ni 2.005113261242687 6.551367915664083 0.2924404478544633 -1.5376760135211711 -0.5956541542433225 0.011921691138250437
Ni 2.7499599039134344 1.8108438025622569 0.3545503150617432 0.008178164935418173 -1.6521201861053805 1.0529901574983154
Ni 0.6693986438926512 0.08040151885252184 4.59665955716346 0.12782779297996694 -0.4230541992539875 0.8554253050335269
Ni 8.482628532103936 2.2497732176631478 1.4250121252711525 0.13499011505636108 0.9804277127495566 -0.24876348682579094
Ni 6.779038972810747 0.6039207071473072 4.8462055102113135 -0.16111329450597411 0.19503308718187057 -0.5370569134254041
Ni 0.7948022894118768 7.352889238212173 2.581042348500138 0.10962129727426928 0.25153179359954747 -0.8562313458745899
Ni 7.520212339962836 3.9178724531951783 3.9249363060675795 0.19402290074980133 -1.091810472799623 0.5389369040569363
Ni 7.4798333186364045 3.7774236833641135 12.646730186628648 0.8024281840112052 -0.9761635381565641 0.41685501242181117
Ni 8.034614962595382 8.932361698730293 6.803475258136099 0.22604881883709457 -0.0947862891439658 0.6439839516969619
Ni 6.972390112611514 0.6546731305634403 0.3945620088363085 -1.4366861666696549 0.10705456498835755 -0.4117452019990715
Ni 1.8797897435472757 6.655101936561104 9.08966882250422 -0.18231666805646665 -0.6290805522225682 0.181553564638197
Ni 0.0633342923801661 4.755568337101039 1.403902495103018 0.10208719368075321 -0.04099598279638746 0.2205137479514783
Ni 6.399377137953311 2.0330409589360183 6.9615989654628265 0.3136301055921889 -0.6966257462623937 1.0224482801557166
Ni 3.124264878639493 4.338012343768029 0.41810698466080853 0.5034554233208749 -0.2979368632266482 0.2350664489546726
Ni 5.679406133169952 5.498785413916694 4.701561283537859 1.5733271870658776 -0.3355029944058802 0.005926135676447859
Ni 5.440274096280022 3.0554539845485422 9.128514611426663 -0.4058758877024881 -1.0259048712457493 -0.3300162602596961
P 0.1156910728978311 5.536319447341419 12.506487588389193 0.7756401172840836 -0.5215094526091084 -0.10947397306312757
P 4.053837666143174 5.99278695241865 12.529678741351235 -0.26946318126698754 0.8170924708915992 0.16371936467025353
P 2.3048543441904847 8.548621447671994 1.2466349850846834 0.6028277891736263 0.16345196994147979 0.9724015000109704
P 6.427016735605964 7.693423486294877 5.860293344960837 -0.760741088685064 -0.216544221780769 -0.7660445031758485
P 4.792085017257115 0.9295637843774104 12.566443007479773 0.37007610439505945 1.1569000062101045 0.24015723321401866
P 3.9154055965968637 6.221925519147524 8.227802245498012 0.3314697048767711 -0.5918658908454838 -0.7302326356835618
P 4.772728295773988 0.9753626877191174 3.901890103438505 -0.15157861554266153 -0.9494058104467455 -0.6106125753253677
P 0.15575858605527793 5.530098287088004 3.547494642148627 0.4691293963454953 -0.38914366254947175 0.6608519310968942
Ni 1.355789788309607 1.1580361197622135 2.605274262859132 0.4449646261738337 -0.004621815042727524 -0.5317108186221423
Ni 1.9197906335703157 6.586813223793885 4.703656311021172 -0.07903365429539938 -0.25344032347616996 0.10839693794886494
Ni 5.896345463801319 5.45956779587925 9.23851660883371 -0.224612086390568 1.3625810600241244 -0.6752431668215597
Ni 8.62948752784011 2.4512631836130985 10.114706259424807 0.16283207696929375 0.12460722916014025 0.5290906073904759
Ni 2.3604576520415526 5.417415158677389 6.895648364588244 -0.2551328806872445 -0.8126922849413747 0.8339743342486023
Ni 0.7052499930172847 9.024373649222182 8.878310529848385 -0.32324526008444976 -0.1301142750212985 0.7480539801356988
Ni 1.3996350132504587 1.073325704676285 11.326712519932487 0.03422755372430234 0.16425081169369132 -0.16908140031311525
Ni 3.995272329748875 6.932911403912204 1.3947571194367105 1.3626407096174662 -0.11994659045967729 0.6914951099040478
Ni 5.686788696712354 7.66713435758291 7.944193864515618 -0.3353273880599644 0.5049836870399432 0.46419879181309737
Ni 5.097462057250698 2.745503356409179 5.0493025342006765 0.2048791267380149 0.7387005639452567 -0.5528031205160673
Ni 0.7266540254144882 7.299716774454335 6.768793415114097 -0.17097321801918944 0.41311328599119174 0.07183199434063758
Ni 4.9690954828756135 4.443240883626073 6.978373590331367 -0.48096392708657815 1.461243801404361 0.7520808419069047
Ni 8.162405336889108 7.140271408190992 9.027394198086178 0.08901210566434993 0.6766292485358089 0.37483521634659955
Ni 4.598472786794484 0.25653417965957537 10.291989519769322 0.556207518211926 -0.40264298258748715 0.6372286352509994
Ni 8.17412740729424 7.165147046078379 4.572875098180145 -0.5769090124253355 0.3068403363638651 0.830628300594505
Ni 7.204445692252263 5.99646022793731 6.968675422712007 0.19519018158502513 -0.5805581791421486 -0.6370702552962642
Ni 2.33613120485671 5.1879074637713956 2.6457019010674276 -0.6257388894438449 0.0832327799784115 -0.3644405033758369
Ni 2.4231374171418008 5.086280174421839 11.262118690186979 -0.17310106299546962 0.331039559317888 0.42195788086601527
Ni 0.994197227878514 3.403127711764326 3.8908342643774443 -0.010328635619517695 -0.45041279377259846 -0.6871244916401779
Ni 3.7098372144460496 2.5236123063286393 2.695642242493897 -0.6106801953385096 -0.2851145146509993 -0.45338370347546436
Ni 1.0780523459686766 3.268512967757013 8.124151953675312 0.49438302870596146 0.7687410761714051 0.009699743786267164
Ni 3.5762398237073847 2.6623324759156293 7.136352347325129 -0.466671421723306 -0.5053063604866846 -0.3407889253951679
Ni 4.237204338909155 6.7934439748447035 5.925835203902707 -0.4647649487292125 1.1516084187938618 0.6917033692601119
Ni 0.9565731631910768 7.2390717158913835 11.419254754561754 -0.5542982170043551 0.6255121181450195 -0.8035949506257967
P 0.18870462633218807 5.588987736028068 7.986741738960785 0.8892828770129201 -0.8248044948238762 -0.4464026441719409
P 8.451522730836864 1.7413036552433374 7.993422958966659 0.12766324237764465 -0.6683731791746037 -0.05342649525025637
P 1.8734065270209792 3.2305917999026255 10.290698471462028 -0.8745653682970874 -0.2786633597090169 0.2464448659949433
P 3.9635543158953594 6.229605185856877 3.6523837641462458 -0.4675407117021367 0.20395841469595843 -0.14289137218130876
P 6.941140261324102 3.982911037378487 10.368495385884287 0.738936848325779 -0.21183241812739645 0.4731614003230238
P 6.3858904547990205 7.6286369896471635 10.095877121141173 -0.6277024409281189 -0.1807845476826564 1.436974387334035
P 2.4329328185248906 8.41289931913332 5.878424740958452 0.5011941380905238 0.32981828531627716 -0.3836348169161006
P 6.742540298907214 3.8653842270339536 1.779630864092557 1.040720338992027 0.6921983066186594 -1.069074721765004
Ni 5.158197147076362 2.9668812282922596 0.5377252212381467 0.010579832398375327 -1.1602432116507244 -0.7702996789077766
Ni 1.6461676199353334 1.1395346952748522 6.977121255467041 -0.6079733379303078 -0.0076392617128126505 -0.8105047903717526
Ni 6.944264346140216 0.6280634905562165 9.234826227375134 -0.395634412480138 0.14682670267997294 -0.49802319656171007
Ni 2.7682812658753706 1.511894994726327 9.279497038995059 0.023828469878165413 0.5736802210753926 -0.2933001357855852
Ni 6.286459928259644 1.9808048203103876 2.653462595913221 0.2808559964849615 -0.5560643077658424 0.22807741923134914
Ni 4.113951540256124 6.720194539502041 10.432008840477248 0.42839412340966226 0.631961216204473 -0.014122041223678904
Ni 8.105505578854984 7.339879720750257 0.14990025179059369 0.04884581785810943 -1.3127409965735457 0.8319102526307222
Ni 7.7046863972601765 3.9342221305037177 8.230727361223531 -0.15473927265883028 -0.42715845123034824 -0.4126276046040248
Ni 3.1175845589462456 8.493117174209909 12.348153207907721 0.2937883882759134 -0.2117599130182482 0.19328653680440905
Ni 0.20566561591454338 5.017721367866484 10.166940597425183 -0.07592519057340473 -0.7604695801912322 0.06399964278041236
Ni 8.53753859923212 2.21273435618334 5.715885900508317 0.48645297522560743 0.7536612990201472 0.07637873317105555
Ni 3.5886011160777724 2.6744866963817793 11.558087463227134 0.0497899269389336 -0.5486878127961131 -0.8833060906041948
Ni 1.0784484835246104 3.3279966230309777 12.597514596867013 -0.7895284452304016 0.4637755882327496 -0.31884790234770244
Ni 3.2700254929705785 8.455754200184337 8.070125993546963 -0.015310662215141373 -0.43404103728279436 -0.24093190659651412
Ni 5.539209450874481 7.892455598772785 3.449774709600782 0.04107877231818086 -0.6437736354583687 0.688298457343621
Ni 2.9941607008940623 8.314909292797338 3.355756862575664 0.31826400481977446 0.41189226909989707 0.6245440978047954
Ni 3.4197924984923582 4.220152417751461 9.060969556889447 -0.28548398217527604 0.5348717328486272 0.1114048715372533
Ni 7.2175092284718065 5.854642982913019 11.472081498270777 -0.3019935497945251 1.3445136609994521 -0.8544606271274123
Ni 0.48927399689693785 9.171934888807513 0.3430848337553419 0.2813455345268703 0.11698673650040498 0.08885166882708569
Ni 4.570626117237594 0.3369555053898939 1.685718353644812 0.007825666692005878 0.2771476943954388 -1.2291482621525542
Ni 6.011981617628896 5.507986608965884 0.4185445365975899 -0.29907149105172365 0.688418270750937 0.41411395934156425
Ni 7.9218237966695115 8.692716483642903 11.402282961227874 -0.03539817699363581 0.27863559179487496 -0.8258745879596036
Ni 0.25182734524498046 4.81443977978856 5.789770056253101 -0.951698206025348 0.223600357296602 0.15062525049045672
Ni 7.824076854742853 8.70867002339551 2.5435137169511757 0.14899080021082728 0.19705037472221548 0.052785776342463925
P 8.331258970105878 1.595957184720728 3.556784968147901 0.2942483586314674 0.1682743310307876 0.48867775079106807
P 1.775218431907031 3.1801202740261547 1.7907785350415844 -0.30690358550163277 -0.016190236606617277 -0.877825784215914
P 4.831356654052186 1.1253547713976775 8.27817743792338 0.08058840037702894 -0.2109610712660367 -0.20250162764477384
P 8.487130095239547 1.674401423921886 12.244173401663494 -0.7877587549244884 0.23242849711119323 0.3847347348484986
P 6.3168364762987474 7.577931382487641 1.3478607350025418 -0.43800439280591663 0.09064604172334711 0.46889362618560537
P 1.7499556595899817 3.2030962522703135 5.934334155102742 0.5265439297092223 -0.38164144063515565 0.5286584049490637
P 6.733915303939383 3.9324935302596433 6.042557134758593 1.7117867487280778 0.6565376199922563 -1.0157883516370378
P 2.4907598985649497 8.404814511741764 10.242035673653445 -0.6494030658300042 0.7346418204948509 -0.3104897601909943
