# total energy = -340890.48692514177 ev
CRYSTAL
PRIMVEC
9.09146665604336 0.00000000000000 0.00000000000000

0.00000000000000 9.09146665604336 0.00000000000000

0.00000000000000 0.00000000000000 13.30628043065198

PRIMCOORD
 96 1
Ni 6.508862763814141 1.8325214622473358 11.443587182319177 0.5356273800677293 0.885495642056346 0.43568140109969483
Ni 4.3513577370119805 0.6007650210971656 5.862321299313798 0.4712425860337562 -0.19896327547421216 0.8285626763147279
Ni 2.5040717330302678 1.526029940726823 4.5541938114079095 -0.7021001391134037 1.1728768412543351 0.8908929018125173
Ni 3.3724886212492815 4.698615394700564 4.815063444457194 0.514000802936889 0.11893897513076934 -0.27199751765306707
Ni 4.937930069622979 4.864334647615725 2.5260512626466656 0.256869403762377 -0.9532789202489067 -0.5193211867085378
Ni 7.090052948206697 6.196107221816421 2.8541968392798256 0.3081012053541597 -0.824218026192787 -1.1990676407170897
Ni 5.452588901544986 4.089741694556052 11.924928516646373 0.36332490171415494 2.047610873918803 -1.3717583556480184
Ni 5.797000930192399 7.603884456669451 12.761387990671725 -0.43346485306435023 0.9755472447288037 -1.4805985517818887
Ni 1.9581291645885617 6.43624922019809 0.49677228056227035 -0.38969927794262565 -0.12145531379471987 -0.46204112204014625
Ni 2.723467004664494 1.4076226799210814 0.483518740574355 0.899083922263742 -0.21153082772657766 -0.13602524118909476
Ni 0.6392282887792027 8.836705508556749 4.391285639960895 -0.7039063390842071 -0.26252377383467695 0.5507917465129933
Ni 8.337202151432281 2.1955346315280835 1.3478599243232205 1.927959960322673 0.9254562416096836 -0.21769144801133475
Ni 6.725766973604021 1.2436398971236948 4.8973894018262225 -0.366002448546318 -1.0427283705609913 0.18338727541282612
Ni 0.6934688875732087 7.278264489453662 2.3912584516144046 -0.1931870351120673 -0.559212880697153 1.0195727583801344
Ni 7.658806006310688 3.849008750846344 3.734527185312095 0.5023986999215865 -0.3088941335691002 0.43753105271392395
Ni 7.756457448902402 3.7252011588889893 12.647127347775497 0.9578292586237503 -0.11546567187018823 -0.1935721863656279
Ni 8.187038397844411 9.03179019854213 6.460545255500398 -0.30430291465399206 0.32256520329828964 0.8758583760768981
Ni 7.033267647915491 0.491563779355605 0.5356319361874226 -1.098389154458405 -0.12262182329899526 -1.56086402160186
Ni 1.7875459770503146 6.45355028110974 9.214425943332387 0.753376935010509 0.11888703884691137 0.08615355316963227
Ni 9.18029021374491 4.848260934693078 1.3402885509510596 -0.18864183894354608 -0.839062033184155 0.8512901998192307
Ni 6.066899298707453 2.3555080775613932 6.871922299574473 0.3947172999825073 -0.18819343855221782 0.4041735602994007
Ni 3.4668671358703205 4.132517044839452 0.2703674881908497 -0.1529544128442656 1.0345070110924637 0.23069711624238334
Ni 5.818902273196165 5.74244303921457 5.030425741514221 0.49015536377785907 0.6793157942290364 -1.281566370742954
Ni 5.149679417859045 2.740613510644195 9.404373045550468 1.122151032764693 0.25395274433621423 0.34292731189440945
P 0.30080299087814866 5.5052284930733375 12.598891662661021 -0.12606941552796352 0.01917734425939923 -0.20577155664529723
P 4.354857951647285 6.008441168564569 12.323185665291337 -0.8354118380260774 -0.6232852856970298 0.6443971279749806
P 2.3001319545908947 8.376049988150873 1.4254883209076725 0.932996772961103 1.3220640737466844 0.22828259326361974
P 6.066999304839889 8.044338738322995 6.094276432035488 2.163489207846377 0.3919777895641572 -0.5214161215643536
P 4.839187651041041 1.104131342373687 12.797101998858396 -0.5081132338078603 -1.1986097272440648 0.08150448443339511
P 3.9578517888044473 6.134603450367492 8.234472215606072 0.1239780802165736 0.10514603511173505 -1.2202288481757373
P 4.4181527420135 1.1842089800561941 3.68337768515706 1.0727179749445461 0.6745088597586963 1.8490615460535573
P 0.0783093474316842 5.512638038340282 3.6298071274503836 0.514448946217901 1.120055069467613 0.09321560222273624
Ni 1.2835787098325113 1.223620487703068 2.504122645243145 -0.21767447873047027 -0.39547680385635114 -0.5790921361195833
Ni 1.7622171511439269 6.50571711637566 4.944414103591549 0.6483129180896189 1.473809039663881 -1.379306086088289
Ni 6.131494168795352 5.6319089884716185 9.2701129944601 -0.6815518826484068 0.19163151769948933 0.13089820437517458
Ni 8.713052471531343 2.095528499090802 10.248031142817984 0.4363293190963389 0.9828743745178364 0.41579057571303873
Ni 2.3512987285324423 5.2055828458914855 7.07310009046526 0.7598268044009108 0.35818063850905413 0.3827434154500827
Ni 0.4815677118451695 8.983923626971013 9.190008991524495 0.3041730739443471 0.29268024281339916 -0.07235649938553991
Ni 1.6630656165656545 1.044536778907652 11.708755260769946 -0.6479907588635098 -0.43163062806908886 -1.1413085795297506
Ni 4.1455632993892255 7.136874001120516 1.4007522586226402 0.419439999540168 -0.42534762327385456 0.46849741918845117
Ni 5.4436065325588014 7.802032970894047 8.190747716211176 0.3054377995893836 0.6828083807633273 -0.17470928802285393
Ni 5.238112113333359 3.3468234110792414 4.568485596879856 0.4379825384290457 -1.2171900613494133 0.1014719286942575
Ni 0.7775913187394746 7.2299251616201134 7.016202055988399 -0.48676279315654236 1.1043098908182143 0.17425086032919668
Ni 5.1856452596701255 4.6346751102068 6.973275787359683 -0.9124040364114157 0.07267454484659097 1.0902541840560964
Ni 8.211239881894233 7.078370413644705 9.10515469729812 -0.6215531334972715 0.6752565365579984 1.2374614100039398
Ni 4.882144830656147 0.3092462358958307 10.77840639302584 -1.0264273194081226 -0.6364914999746586 -0.5770483662166771
Ni 7.825161661886814 7.329167610864237 4.636719781041813 0.6847297661557562 0.4213927523911646 1.3335463633546711
Ni 7.49735065122399 6.223581633836918 6.947515116790497 -0.9002254920673528 -0.26731759567889446 -0.6018003763503764
Ni 2.3009138207172226 5.40669517822286 2.647097776202093 0.43784241330675566 -0.5071745240436749 -0.2913227003442402
Ni 2.2444467217564994 5.598016001041964 11.637872732391719 2.136588526800791 -1.46167420407356 -1.0209303008492934
Ni 1.1651350831604288 3.472031088890718 3.662860063367564 -0.5000942201581258 -0.016899861079132182 0.26201855206348423
Ni 3.6149034862772527 2.7900438144679676 2.479558411676573 -0.09620605230962785 0.40510044298904424 0.17977744657438072
Ni 0.9422032310245574 3.3317497594809677 7.998391375348015 0.008703184200952754 0.08377014053912024 0.8086574527503685
Ni 3.459357584470939 2.8582298138570237 7.603288056461461 0.27870475446991355 0.29101288241330525 -0.6386669103594227
Ni 4.105533572014557 7.1587207953247685 6.058189673718823 -1.2062027090999745 -0.6354720575712088 0.23085035399079595
Ni 0.8305363835450886 7.322985413586296 11.350070538730415 -1.248103205988502 1.3907575224583404 0.1598629670386408
P 0.1251531290119655 5.486100047378061 8.113318422744939 0.5358556940284513 -1.22626091330243 -0.10757032828251152
P 8.473974174740142 1.589670206823275 8.153609984357262 0.3601264493815153 -0.41028558673440957 -1.5657948832445745
P 2.0674722332088518 3.318794419597047 10.355519552254894 -1.1489113315776731 -0.2082632127188994 -0.2584339200360194
P 4.08156846609595 6.425612204293397 3.6136261352220314 -0.6860790810947991 0.6762546388052095 0.9392610087032597
P 7.001602069799214 3.95289693951551 10.32724327288158 0.04654879429381661 -0.5270092993814149 1.5851774015362443
P 6.26075664070383 7.571546110025867 10.517257651952391 1.2743919644817019 0.5892726761970111 -1.059708964279388
P 2.1662692005903006 8.59172684995175 5.911900703189568 1.3256258229560138 -2.3071372556880525 -1.274144110136954
P 6.904077907739694 3.8571728878398606 1.648701099361027 0.9899533928518048 0.7601643902459876 0.8919815068910056
Ni 5.4687171632671445 2.8529931291039436 0.5257204193162294 -0.47971462806050924 -0.7681306962809159 0.7187837704166719
Ni 1.60216188191135 1.1029858175839509 6.907117185019129 -1.374577313154052 2.7133293890793784 1.242615957621686
Ni 6.903186944014343 0.47758201289421454 9.39088039999136 -0.2868911469354478 0.021604979864285372 -1.3096854975766732
Ni 2.5445469422676115 1.4598622469196834 9.298095619462709 0.10149635417428972 -0.03904734371044888 0.8668626003361909
Ni 6.467596596983885 1.965456886656239 2.663916989384727 -0.47675657387344994 -0.04501873080253537 0.6243296678011442
Ni 4.147017934042858 7.1180637567557214 10.154767242000293 -0.4883723037355073 -0.625963089639509 1.1271083767699686
Ni 8.153536343477922 7.088680136752331 0.46843054262954475 0.5038727133639516 0.009021486772319946 -0.3087252120914038
Ni 7.560363606126063 3.8141520679586587 8.276546613815754 0.5990683221311941 -0.34837213705906456 -0.76762701717162
Ni 3.295802100603057 8.11746140406782 12.460174065503924 -0.27247162907600814 0.41558745856329715 -0.031651822577326134
Ni 0.14941188930127447 4.800048887391723 10.321295635441537 0.6449090346143925 -1.3039557941817477 -0.4527764089087686
Ni 8.970886463887824 2.5900770069263306 5.812023669577796 -0.7205130944029527 -0.17393949973636497 0.7989903619742498
Ni 3.8285802254293833 2.6461713557570605 11.470732483249288 -1.156669635366853 -1.1967803873448097 0.14622660720212882
Ni 1.3380729605442445 3.4028813940436304 12.457086603451588 -0.9958990689122785 -0.09973823383260243 0.3297154411898257
Ni 2.881231224317598 8.569034549355072 8.030926097669838 1.3695394936198284 -1.1510162937358177 0.21427702301314713
Ni 5.544740006852649 8.11838873365951 3.9283999828016682 -0.29186520311127157 0.3291791090703815 -0.7766330773249721
Ni 2.9033871283857486 8.396360324502227 3.8074189278056543 1.5392816674453942 -0.7319403624032877 -1.4190507129760785
Ni 3.6802893139580646 4.59432718150165 9.71104275981605 0.09724837753121315 0.2022231771724066 0.22102694014247096
Ni 7.643832360844852 6.050898317517487 11.483519631001384 -1.560829311709183 0.3947172999825073 -0.1677410842351369
Ni 0.559100648030477 8.845433316478548 0.27648695434935283 -0.11259092142555449 1.040526477813666 -0.37644292715335165
Ni 4.889845302853818 0.5029590235735041 1.8164268389515432 -0.3616344013856095 -1.4777464270450744 -1.9426880105614672
Ni 6.357553485436535 5.5058103469347905 0.5015207535597243 -1.0661619189935831 0.13518243357282525 -0.4242423060248177
Ni 7.995881221423839 8.816922477267338 11.39712160574884 0.22222121756088825 -0.3438112571612595 0.6727736222351446
Ni 0.36642246925020033 4.974368667696491 5.76974925910324 -1.6930693748242327 -1.1696490783456566 0.4609147217451868
Ni 8.12413454054136 8.844487803953687 2.505319991392417 -0.8378191619159893 0.8099142079756051 0.7757956690253413
P 8.650994120620718 1.5767148669393545 3.9824096583444097 -0.17244671724092234 -0.2011173457027375 -1.868669292982156
P 1.7027316852769148 3.202660025437607 1.4231199938622259 0.08630164871172234 0.015103945520973987 0.19115972026939335
P 4.824577664238613 1.0921487894143835 8.12685107075702 -0.8349079018064653 -1.446858479216966 0.3227094421856378
P 8.589135781974965 1.5804878255722155 12.498589148413062 0.6823604945926313 -0.3268851708298822 0.15488376865649453
P 6.3494620801757 7.7130911532909625 1.515439291301715 -0.11464266174826063 0.41490997288029835 1.2589815434639027
P 2.1567049777426623 3.3396138780771722 5.8985007905896305 -1.2474282914086645 -1.2322122457898586 0.3741857556880588
P 7.1122361266746035 4.091532713473338 5.910543347228397 -0.40090903061551597 0.5019893802983098 0.17313911532225668
P 2.3963560369287307 8.417479801379663 10.306472908321016 -0.2127438741980723 1.3025339741335569 0.12908531953615188
