# total energy = -340860.551836448 ev
CRYSTAL
PRIMVEC
9.38842986987754 0.00000000000000 0.00000000000000

0.00000000000000 9.38842986987754 0.00000000000000

0.00000000000000 0.00000000000000 13.74091611160288

PRIMCOORD
 96 1
Ni 1.773605812466782 0.5466676081558449 1.729445455584285 0.45430133019372726 -2.3785380760285424 2.1948929189686397
Ni 4.121248383414441 9.044991574160383 5.8459348439727385 -0.2239240591846079 -1.3852407064051693 -0.03742086385061942
Ni 6.479837863417735 8.940535905075478 10.242931735589554 1.9601977373104562 3.0858364715134337 4.425014065011953
Ni 2.1636856789784344 3.585582137206618 9.396669946580898 1.4308888432615874 -0.1180527158710741 1.5456238076133382
Ni 0.20000265720677715 8.787157128710204 10.184176125861525 0.09316700837298794 0.615749639441617 1.0625865429374992
Ni 6.563779813560474 0.37179026657058656 12.584370432177037 -0.8408646336105324 0.29911674246736225 -0.7008405556746897
Ni 6.343170491957289 4.529081770530044 10.025674083397053 -1.5783858325357076 -2.0899158053346008 2.1564222736972667
Ni 9.375285920203524 8.398485526656824 0.10424912363102334 0.675473794775127 0.2952909409633689 -0.2066447032788699
Ni 1.5978544080744228 7.232076406448365 8.874900454047305 0.7093455078219073 0.27765445882852824 0.5567345943599895
Ni 5.278757272246619 7.656208107561038 12.158868959167954 -0.10335654731148004 -0.13429077499649128 -0.13247403350272668
Ni 6.462713367605147 3.311421212470204 12.524515437328585 -0.8869485724527887 -0.15453075619245 -1.5239116127472272
Ni 6.181558062725981 1.4860945406659478 1.4329579061264248 -1.0677439187687223 0.23689064664760495 -0.7905319467942515
Ni 2.1909966210391913 4.721610298835285 11.835930447811853 -2.8453056570100808 -1.6390888068427187 0.10497968473719985
Ni 6.600404077905272 6.339236739903848 2.8993057625584813 0.3193143004611597 -0.7196975404801927 -0.5534276414739436
Ni 3.1248825023274795 6.162875087579572 7.451836075161728 0.2369063303768888 1.0655746790315452 -0.6811675027257946
Ni 7.982502982542686 7.853721892048562 11.771732365374088 -0.19675881162372566 -0.5424983961559495 0.3827256748382699
Ni 1.3486009873899811 1.8198719941358814 0.20426031008561985 -1.249524768926377 2.3376079134730836 -2.4578748633866576
Ni 7.987122089965817 8.783120103929823 2.3172954107148676 -0.5482437832801591 0.34794996191998134 -0.08138749923955661
Ni 8.479188468545537 1.8773479608928274 6.959938688317003 -0.547585837981186 0.14213495363125844 -0.930057744937437
Ni 1.3724194335942235 3.6644355584401342 4.673903932046859 -0.5289021455287536 0.6214698297548459 0.11378159929954598
Ni 4.144109209787058 0.8048381593900654 12.190046995431125 0.0881880671011578 -1.134862823904407 -1.552451629168449
Ni 0.8685771476144334 4.307186234054969 1.8379165560612083 -1.1924637622473269 0.14683595865135357 0.028735677371795672
Ni 7.8105726690471045 8.904493723373436 6.497707800550236 -0.5872044808140726 -0.9970563224451731 -0.5189686884651256
Ni 8.137965990306204 1.1717323598607259 9.030694873380003 0.10232373517159152 -1.175636406277343 0.32924595775257487
P 8.87149339290126 8.001871313058787 4.244967232602563 0.2801479146743433 -0.6210024032001241 0.591900086517529
P 6.368012277001208 0.9095031904577652 7.274577827799018 -0.42639791891523987 1.1098184793412693 0.47137551206719464
P 0.758045286813572 2.9379400897067183 12.194293382194301 0.6460449479910487 0.31793361806354925 0.06408783161884446
P 4.907078727989722 9.30213127581115 14.057507062140937 -0.3832614927370819 -1.4139398741120746 -0.3313882009065583
P 2.7393372473714637 2.1651972161636466 5.403340795812119 1.2609427809553317 -0.7970448082121048 0.5177181038874761
P 1.69342862264249 5.5988182298929825 6.114089051373137 1.1979234998103176 -2.0103869565703376 -2.133079228095952
P 8.993111111517639 7.884957197733037 8.35306148713377 -0.9715023852354687 -0.10082375358729734 -1.2693060653183623
P 4.627923158641303 7.500510389054473 9.968594308374369 -1.7467401248748111 -0.8581627585693479 1.2548286976377938
Ni 3.9747419376055326 1.3100333180927688 7.560018012003219 0.21906056044471947 0.7601883015053875 0.22188671703960497
Ni 5.508013337623597 1.8585898783086428 9.715157403405886 0.009987964450647315 0.28487463072605135 -1.595640248740781
Ni 6.01542041036876 8.34008949378714 4.029839815113943 0.038361116276701676 1.1955876525882894 -0.21009126706657366
Ni 5.286174131726852 1.552085813180579 5.508967202083333 0.4349764046128703 0.513470898575348 -0.499664588819875
Ni 4.240697374765081 5.3698625942671026 11.959035293696168 3.2398704905751234 0.3261572915249222 1.3190327431195283
Ni 3.4892662366905274 5.604958262931048 9.70769641830596 0.3718313965232693 -0.45078663217224946 -0.17989417465790308
Ni 2.736248453992987 2.8768777427960397 2.004304879492002 -0.6574303070098548 0.6337198507667925 0.4060046999708685
Ni 4.059772945596003 7.164751976913237 2.445361102864189 0.49657258015811256 1.7029910048133188 -1.155053954140301
Ni 5.321221139878384 5.890000377715046 8.00140376925864 0.011127220261413096 -1.1966122371980616 0.5578789923770779
Ni 9.132275805284088 6.149177368615444 9.838028477390129 -0.9422218911037966 0.711256351691375 0.8626992129871206
Ni 3.056112254615192 3.720080781401326 7.1769625686094285 0.2106967618610565 -0.08671379654847647 -1.4334427200316924
Ni 2.172689183081654 5.658237601602344 3.5342048943969626 -0.8245049613055865 0.20704579537203055 -0.6151032641068698
Ni 1.513208325702547 0.8314139874036046 4.043223021682389 0.23831375224737666 1.4586140770909977 1.0389709604010882
Ni 9.32440063111129 4.899427157766444 13.113986774272124 -1.5128512411680073 -1.181370223437327 -0.824435798630548
Ni 0.57977496672685 0.22249827366321584 6.77019007405239 0.776264895352276 -0.3958591268964344 -0.11790821987340985
Ni 3.8285077562585568 1.8204916304975214 0.3178546766617369 -0.1933994082331895 0.4292307603783447 1.8218793292118107
Ni 3.435160716203713 7.173858753743397 0.07158396009991569 0.13392130747221453 1.4055411085254181 -0.72825365758032
Ni 6.407086921503398 7.733578156898507 0.7714134718944631 -0.39365646281816075 0.45042153552334685 -0.29362100946011366
Ni 7.346981397813647 6.660349201679054 7.339504452383196 0.3570408684776561 0.5649821790807625 0.7386082613417666
Ni 8.545386286514047 0.7863945892015618 4.236572098745317 -0.9484169641709149 -1.117983788760881 0.2097570236556065
Ni 9.032213921308994 3.853640582623853 10.558932197381232 -0.29773863117291305 -0.7164373816716822 0.21985965930724716
Ni 4.06860745796423 3.2705439894614248 10.91581082102466 -0.09590317635722838 -0.42790484247806954 0.5659329730298059
Ni 6.57157221022958 6.758326854255905 9.728225158735679 2.1263141414579767 -0.758495744294313 1.3629852374410785
Ni 1.6739570193994473 8.119602221770336 5.320166819220624 -1.31906385346778 -0.505715165889329 -0.8218883496183459
P 2.5382183058707626 8.492228997429136 7.297731573178956 1.5002371519484228 -1.5855584390247468 -2.11437625236981
P 7.878845329984136 0.6925628671898633 0.4342336514933441 2.0130336501645654 -0.36851081679046854 0.41184778901520686
P 7.651053859643762 5.677709204845385 11.626793787328724 -0.2822055685343204 -0.20060338218079649 -0.327748547271442
P 2.551484157067686 8.500800633765152 3.2829658208263575 0.6173324105477045 -0.570467627675366 -0.07039886143853682
P 4.5338510928287254 3.7106172442417376 8.784429789876016 -0.29255528719976065 0.5050865311663947 0.25403887629211735
P 7.986868602363328 5.3320741646368015 1.350557536144007 0.05153622020607899 0.28432621442174905 0.04223165497570146
P 1.9005843244543172 -0.5032930628410639 11.77795689427965 -0.4380717557087423 0.5572387876899177 0.19312481441556417
P 7.273169563340746 1.9956891175362936 10.71464399853238 0.5752395951427125 0.5709533090625327 2.6573842411723265
Ni 5.282568974713675 3.914477607221208 2.005321646430875 -0.21650874055714328 -0.1621641043679917 -1.2499209759235312
Ni 2.686405280599876 6.91454093639717 11.449398468892074 -0.47381111809188076 2.362197686997306 -0.3244120266990413
Ni 5.853883088575226 3.350073377634912 4.152683662651992 0.48762745514968275 -0.6860317727966314 1.2723787907064152
Ni 4.880791124768643 5.279292412740762 5.798075445779847 -0.2941604269033514 -0.7650836819244758 -0.2046464419019185
Ni 5.943401765972723 5.428399453582613 0.09832877984844741 0.6112149847960571 0.06758093237376749 -0.22127659425943183
Ni 7.6691641405771405 3.8958227973639636 3.036082978646674 0.5218519235501916 1.2338433536353783 -2.8970395950492622
Ni 0.8957998384358054 4.942482496470683 8.142357897730069 -0.524833888996651 0.24313662755731671 -1.2431193796206657
Ni 8.98282139254253 5.821399121737749 3.8668857792753886 0.12346051715020673 -1.1509743847542888 0.9185122061916827
Ni 0.2130929447679025 6.982015580807848 2.135021864194764 0.6250002115056075 0.3065783409517301 -1.9245252236095112
Ni 7.811211082268187 4.59251000173062 8.477609334666328 1.364100067771812 0.6566108964323532 -0.6089310738578868
Ni 5.676244609808783 8.547508071631178 8.461834895047735 -1.6168155972668157 0.10303001720999674 -6.157477625363092
Ni 3.980957078081374 1.442109747419249 3.3902821444474975 0.23684642367323083 -0.47697820296595267 0.4411177416239177
Ni 7.811070255822361 3.2662065349299474 0.5874622129830714 0.9540145128633506 -0.8024587801388244 0.9891884896613221
Ni 8.579888765741714 2.9255191971847587 4.684951297300517 0.25898182211968945 0.7422548569554185 1.6944991652922237
Ni 1.9980174481073034 0.43416042174151387 8.620967839989511 -0.9257519184732315 2.3478079939345373 2.964291169108069
Ni 3.5837232281216984 6.950536175950606 4.803150688655185 1.144134736124636 0.15243145046126005 0.6065805713478392
Ni 8.806891607985456 1.0714263767128644 12.169449719464437 0.8156143436841761 0.3863139064101605 -0.24269414070325943
Ni 6.075778625050301 3.338919923125397 7.1044932795867455 -1.1024846646840176 -0.691645519438983 0.2883343071398776
Ni 7.132427613381031 5.255229867363753 5.261753887177441 0.3184136430237613 -0.12519446912217794 -0.20275770951963792
Ni -0.08848031707026445 6.478485929537794 6.181790895783082 -1.2542723109136915 1.3599968442367159 -0.0065043767774210556
Ni 3.6285154263244737 3.8843689131033505 4.1860191600652366 -0.7900370094357039 -1.8510960599850832 0.5798151303285369
Ni 3.9115296402885584 9.596477324449463 9.950071875376201 0.031324521144894445 -1.2823333308159657 -0.29874007585423384
Ni 2.2043751333927766 1.4684067390700501 10.922956354885933 -1.4733254151592432 0.8538384201623811 0.23866933581458247
Ni 3.1906672293882314 5.233702198011634 1.1767514143900077 -0.2708160957504562 -1.3991490889561453 0.044886576100045275
P 6.301166657381891 1.147801252499822 3.4683168946092713 -0.0016879292253841897 0.19333693042637026 1.8144449844209525
P 4.6477139684948865 5.463371354296371 3.4133945807366595 0.8538561607741939 0.17968540108120665 0.3123417257980685
P 8.061929097989232 3.8542508305557712 6.590569697771672 1.0708608671311493 1.532193393140045 -1.3285602229939892
P 0.7010133927824682 2.2951143066541095 8.923034933231046 -1.6657148940706796 -1.309120883322455 -0.7483694544935886
P 1.322998739538594 6.238236012956573 13.762626811851451 1.8735135084483348 1.5570631597985314 1.1660323075286756
P 4.400112911441484 3.794362037360319 13.52287542088846 0.3309068903947656 0.6826062920548501 -0.1982369388311489
P 5.930999650310207 7.284257298842208 5.846251234054364 -0.7716050279827615 -0.35718253626184293 0.6837126377451516
P -0.046666128775248984 2.051221679340824 2.421890967402626 1.0063518888144862 0.47114514122394346 0.046084195952572245
