# total energy = -340863.2151201671 ev
CRYSTAL
PRIMVEC
9.34172068020163 0.00000000000000 0.00000000000000
0.00000000000000 9.34172068020163 0.00000000000000
0.00000000000000 0.00000000000000 13.67255249107426
PRIMCOORD
 96 1
Ni 3.9757803379721115 3.1287104593414 6.095073954769973 -1.6224961925913606 0.7433069523690167 -1.3042846382760762
Ni 5.505160164828468 3.391147422819857 12.594417417972815 0.587525097378285 0.18201996275165425 -0.5371502444701588
Ni 1.4827459564372325 1.830753082784115 5.304074952948088 1.5860957995854554 0.9082185375751585 -0.38247422094909617
Ni 3.519726868422587 6.435455434397477 4.862191939736458 1.7930120113581571 0.8340617517560861 1.8201852293388394
Ni 6.9152368748734006 3.670997353938789 5.77729570288007 -0.6528151768353466 0.5909055838147437 -0.21133131012126183
Ni 7.5382642626664005 9.21317875844494 8.22987856484586 0.7541400384287786 0.5457035333568085 -1.1116246793120725
Ni 8.296503717856517 5.367827526801316 2.853133431333387 0.3392850871561318 0.5741643598006628 0.024280212703603348
Ni 0.11995049806544103 4.862571213602447 5.446966849045437 0.04542522221233467 1.4944102608540004 -0.5808314874081932
Ni 1.713579878323563 2.4481941215164906 7.861868011670358 -1.4426763228148185 0.21524452913273898 0.4236622651516317
Ni 7.458897002433852 8.44549482348845 12.468985198120128 0.7032154836647696 -0.5522259078563586 0.129499524255435
Ni 1.1281716003418234 1.067936184383788 10.099846323360223 1.6240992754124222 -0.7336432040270074 -0.350308691960145
Ni 1.902731041834466 7.851370719965636 9.792911006846017 1.5180942347345017 0.4261667767410402 0.5342798649008992
Ni 3.5915740433812173 4.200841076381074 11.355451140158056 -0.9069759234173089 0.4672308937712018 -1.4651855596609282
Ni 2.830429313010743 0.20608490087243092 0.020605033650533344 1.290049725623617 -1.3738923712718856 -1.0024093592269705
Ni 4.82991255755572 3.4650217512001524 1.179934075500551 0.3296763604217742 0.49852584722974136 1.303296049110562
Ni 8.35861681970282 2.4096688647840248 7.381989417297729 0.3511481571423049 -0.664472558568617 0.2527769788605582
Ni 3.919337660673965 1.4056861012514639 1.9570204524796464 0.611346882388231 -1.4418191170208456 -0.5709803056457263
Ni 6.792206411447946 7.411076733468407 2.963881400202138 -0.24173074834872563 0.24363207913649654 -0.033928277316328664
Ni 7.211976637265924 5.2407520982533695 11.517458065432411 0.48539368072315764 1.0218859798943434 0.37509515487620565
Ni 3.2094509525370114 1.0908047169931663 9.196254362804249 1.7552810724662868 -0.6927076421549102 -0.7231662157550836
Ni 4.8173292595880595 6.7833971686984995 11.130113886812314 0.624937219478156 -0.43010159301907214 1.6151114700915152
Ni 7.080239690020234 2.8361464461630876 2.1201343716732053 -0.21632876333585324 -0.26845762282060864 -1.0938017921980387
Ni 9.064953673921654 8.632048988606622 10.122897953698011 -1.69973470265955 -0.7439944653543444 0.639015551948093
Ni 0.9680918720761758 8.028106736483949 13.387931211044064 -0.9509924382075751 0.04314413948764182 -0.3471868585017117
P 8.034599232465776 6.858934323387811 4.797397764009887 1.0148524700863297 -2.8734736348038643 0.4921718799872556
P 6.372538944559175 4.48756651403616 3.405313208297333 -1.721655156881725 -0.7169374612365523 0.8995431212883476
P 0.7351654047223206 3.14073325405883 9.903700079286452 0.28764242327917555 1.359107756763543 -0.40410285496246534
P 4.736971776946772 6.233347304085428 6.639897126574652 -2.062292130080061 3.16330432398361 0.5459855833736016
P 2.0643895209215946 4.632036226782906 13.330547822457618 -0.2267856970031191 -1.2417438394293776 -0.9982115190955388
P 0.36546867093571 8.380074752465788 8.044054922297155 -0.4561070159438984 0.014602837514839366 -0.1783913648601315
P 6.44163965359168 6.457464528689837 13.139542327360536 -0.653897354155932 1.1772952820370046 0.4856335646481056
P 9.101918863274312 4.3615653833844865 7.433165232387883 0.8980331124017245 0.9829813324093458 0.702856557663454
Ni 4.1825032783777205 -0.05030329836396244 5.374202317100597 -0.9297805800166503 0.34900000045105056 -0.8413724264848864
Ni 2.3982065733168243 6.278430448845583 1.246907674698433 -0.35893731416942054 -0.7806959345404362 -0.4826269166112978
Ni 1.7578596350917217 8.48200226852009 2.1511031104204887 0.4799755950313799 -0.021436315496905018 0.6495272501126943
Ni 2.401933919930853 8.554699540074902 7.536310908839349 0.9289205460092003 0.7273267748906763 -1.1292454777176295
Ni 2.26447049781198 3.1921594272674203 1.2543913272610854 0.16170259135054085 0.5578789923770779 1.4091005437419022
Ni 7.035380746560169 4.514255810467938 0.1556741727188411 0.9759154267014999 1.2386510594366669 1.9124999170138608
Ni 7.212397014703598 5.783711596751034 6.797911400363202 3.0005141559958455 0.8036579426532481 1.6841892987257834
Ni 6.54913483526493 8.4510624891074 10.217703341786056 -0.1295116084402931 0.019624201988830716 0.7378137904649293
Ni 4.02856106070209 5.026808007640632 2.9506731411104714 -0.8153304938951701 -0.32905749589085265 0.90748988693925
Ni 5.730800089929335 5.750903473170913 1.6631018897799454 0.08550023585634953 0.9088862530661445 -0.7794792885245156
Ni 8.244199422889233 8.171576885101118 1.099647589937626 0.582200599841578 -0.16399318715693048 -0.3746444404920322
Ni 0.8205954417781883 5.764738561730753 9.665469382841254 1.8579933013255485 0.07141881806261893 -0.5659504565313027
Ni 3.412511938374452 2.5013391713591187 13.161677534884197 -0.3265524700808118 -0.7593524358676536 -0.78144746799448
Ni 7.855219508950548 2.7288567823482555 12.879777096041506 1.3949764456356941 0.008989862203436132 0.870240001448856
Ni 8.252251986250869 4.681790231961642 9.44330364371973 -0.5493167046293636 -1.507143649260269 -0.8150420161204738
Ni 1.0990160896090337 3.924382189926034 3.06996691620106 -0.8437944056628178 1.0604982929499025 0.896328728116108
Ni 0.9007044346452072 2.612627091692257 13.111977711686317 0.07855054401139375 0.31655422121751936 -0.42425156199619835
Ni 5.595531972207197 8.227468400869872 6.891814378218378 -0.31457344334206466 -0.0017257244418550923 0.28256552297690046
Ni 5.366220750817323 4.521056583237393 7.25419187372907 0.051220488737873084 -2.8861723133174553 1.6104112364023682
Ni 4.319910650171571 7.984901277612063 2.6660794841504276 -1.5211751876526707 -0.8021690168125475 0.36564943608227346
Ni 5.9635397228664475 8.835913362436058 0.8475631214909142 -0.7780772659706664 -0.19517784028985097 0.23754576373310055
Ni 2.9360094419123746 2.699112743202724 3.5426131503015554 1.1058553809284632 1.4617019719877018 1.3133410920513897
Ni 3.8390082031951893 3.595917943570499 8.948562371495171 0.041619989533631545 -0.18145354872522296 0.4189535468220526
Ni 0.0916945950492701 5.338718724672712 0.24934734424142263 -0.5593856588295915 1.0152198807280775 0.14158910843011746
P 5.400523549731391 0.3251862365137737 8.698204253059169 -0.1910028829765549 0.9549820189829423 -0.1476502270225328
P 7.111086052224549 6.723488712969765 8.75443954415473 -0.17145118609687246 1.1272904108737878 0.9001013077846627
P 9.069232182065074 0.8389808825578113 12.665227661918523 -0.6754719950029141 -1.3131446597698675 -0.16254771295965553
P 3.220352740753982 5.915672745296817 9.947835039381633 -0.12524229164097786 -0.2355557298862653 -0.6162481763445902
P 5.3645018741832855 1.5463443918966473 0.23501060527262654 0.6216076408842908 -0.46075299935634195 -0.5245595522893418
P 8.95219910341708 3.649175094063173 1.5513151215541021 0.27799898665214057 -1.3358382447126413 -0.9093919890579694
P 3.9725667860041276 7.528567556437423 0.5948340743064381 0.7306856640605803 0.6456045180195205 -1.2695765453709298
P 6.602111734132489 3.3357977268596586 10.720757811383605 0.2895193285869143 -0.857941129476845 -0.15394403045104454
Ni 4.372411121276435 1.9561470015813716 11.130455793794955 -0.2835019187482408 -0.3354078635889126 -2.047717831810312
Ni 1.7657440474782884 8.542919630099238 4.798559874082029 0.17093079481702822 -0.22375616614817595 0.9170029686360078
Ni 5.578688849537789 2.3430156866108574 3.996336794674292 0.00036123999416066814 -0.3753604927224503 0.05312773306291495
Ni 7.631139651229487 0.5013561447493533 2.5659829453802114 -2.0189926959614777 0.912678373118725 0.4759628743275609
Ni 2.4197672650089994 4.6068696308475845 7.335228499475219 0.01892717592180611 0.6110959427196895 -0.9454216289880171
Ni 4.0597530665773816 5.22161091225802 13.292004816455561 1.6706287864325293 2.0335901341596783 1.4662877915861714
Ni 8.417170725910168 3.280653548757878 4.180437823900625 -0.03365985414629042 -1.7981562745632582 -1.1982346032928333
Ni 1.1003052470845622 1.0591082581926676 1.0677073122232774 -1.642887868873835 -0.18096863866900448 -0.7129203696573593
Ni 2.1556487917798526 6.33068803520868 11.960544292287869 -0.14035523602301633 0.12452263986613392 -0.29398867721217753
Ni 6.022579398557325 6.0822636529859695 5.000872588080414 -1.0207102144186875 -0.002470573027679616 -3.240076435938343
Ni 4.764501828253896 7.589737144479175 8.950777293505663 -1.645649233669056 -1.4287972508398812 -0.1503012914921347
Ni 0.3048287584654252 4.371458265751044 11.724091325317984 -0.01762825460472448 0.832423701932031 -1.179875126949039
Ni 1.811611896788765 6.358012568657385 3.6499289709347322 -3.0635254667210594 -0.2025358233168189 -1.6766819346051445
Ni 6.528900667931632 1.3141372370472535 11.733060311493746 -0.001264468534720403 -1.0413368895301034 -0.08070821378434488
Ni 1.062144317464746 6.4633778379797615 7.07427406709362 -0.9473985502087298 0.7710139313659818 0.2409907848589076
Ni 0.03947530974160527 0.5108706874220051 6.21406599227752 -0.567098711203133 -1.4983774730318646 1.0508921373187061
Ni 0.3021542237897451 1.4523479968330997 3.1083595204976375 0.8371540175281648 0.07182016726609566 1.0875784369961463
Ni 4.852865165652633 9.204584375274749 12.316399398310054 -0.8354501474631806 -1.0048755613792757 0.1550802009380168
Ni 5.713938283818254 1.7808215849094715 6.570563808693301 0.22755445684834355 -2.2349820736800416 0.5275191491382979
Ni 8.897241759732042 8.329377233482496 3.6701509940309416 2.2247313424863107 0.10166913230672814 -0.5746752379988103
Ni 6.417650114481843 2.6579531211941783 8.692995309520365 -0.6965858941633939 -0.362813252185059 0.6800120489651128
Ni 5.922258658487019 5.085558089985558 9.462773658288548 -1.8165700011837553 0.09325905386616197 0.373254502123041
Ni 8.52152708938213 1.8849911139646909 10.69406944912391 -1.5684742298489502 0.31991053928426194 -0.16813883389418785
Ni 7.378586228396751 8.596886751375536 5.632161793781802 -0.4988678039501924 1.6823753854454961 -0.42365660872467675
P 2.747941918018582 0.47944420435370066 11.431156445822435 0.7189133540160006 -0.2126474578295241 0.20666115833910212
P 2.6612040400455115 0.6235654709132207 3.5508712315216093 -0.6658951499477564 -0.3423760673766297 0.3125240170122037
P 7.601750597475768 1.5575264317387327 5.439215089094758 0.43489695752518653 0.09009582564683193 -0.41061340238747346
P 2.2404903004229793 4.599620455477945 4.902566857194682 1.1445471410717063 -0.9024160719607685 0.5851126312820504
P 5.700467522371063 9.067821582218663 3.7812810392819323 1.3795146025546694 1.7047074732837932 0.30787366272438593
P 0.33736036710876627 6.8112074716307385 1.90518791441464 0.3976434724903668 0.6135821994766529 0.25659480994475165
P 9.305764553662074 6.816541594228759 11.421011336993276 0.15934360420006108 -0.017068268336196412 0.7356280956675202
P 3.2062280588481897 1.309214150166068 6.842032347877129 -0.0405493821772721 -0.9865160850354816 0.3635154204584062
