# total energy = -340891.9135948682 ev
CRYSTAL
PRIMVEC
9.07351549121315 0.00000000000000 0.00000000000000

0.00000000000000 9.07351549121315 0.00000000000000

0.00000000000000 0.00000000000000 13.28000708639136

PRIMCOORD
 96 1
Ni 6.137852017385975 1.91179874865142 11.342600052951434 1.2893012774933665 0.592884047697353 0.7276543334334242
Ni 4.839940093844589 0.5347938995324634 5.930917797893692 -0.32521498221631084 0.029792657881400307 0.688130307196873
Ni 2.8428140072483177 1.417927310504013 4.716035798221481 0.6512226355372461 1.7884603874317329 1.0401235859482927
Ni 3.1962455754775627 4.118123804160544 4.763750693165185 0.0332019406732654 -0.2974462967434749 0.33476663046048794
Ni 4.885026391403921 4.211717114549861 2.8981225271522555 1.1891367547566232 1.5118515962588994 -0.7199423095011471
Ni 7.58677445617791 6.14033816058003 2.633119624399715 -0.8786611356330157 -0.8147070013785583 -0.06612311688131838
Ni 5.144982604942837 4.237966794332342 11.63673892070554 0.009516681241183609 0.4331648053254282 0.11092741768020252
Ni 5.787051768595694 7.950794816770154 12.679910087306341 -1.4647896097740902 0.08752112294112024 -0.9518023357033802
Ni 2.1169237091915347 6.490866203911109 0.25564901582279326 -0.7684286871373088 -0.9361800557850908 -0.026664910885696013
Ni 2.542680267931031 1.5265826563025655 0.199589208851455 0.48958432176573746 -0.41087385513771174 1.624046824907932
Ni 0.86247573867263 9.336828720970876 4.533209908899281 -1.3846830341294862 -1.2783013268384373 1.0442244954905437
Ni 8.593408391341416 2.4325913067140092 1.39207686539503 0.5685189885894273 -0.14870180821549872 0.3528934219681858
Ni 7.027201693694192 0.4680064754139328 4.726248039699248 0.2559049829665786 1.8462886112941106 -0.185726465068964
Ni 0.847906395144552 7.3882822353270425 2.463069244629444 -0.4625316885233196 0.29994000969960605 0.15506374587778457
Ni 7.6683181382398375 3.9274801740500322 4.179523374889916 0.4798447258804704 -0.2637080239507652 -0.6485512593526702
Ni 7.697199137461282 3.778356949983293 12.610269949975363 -0.8066710184479592 -0.2943779422307962 -0.015199847668889951
Ni 8.14746326104436 8.807017088693359 6.854249603728817 -0.4276371906389796 0.8257028382684295 0.46213599574679765
Ni 6.934588322958007 0.8197449256869347 0.4157212508102103 -0.2868677498966801 -0.4629708329432672 -0.14212492632892945
Ni 1.9280040469893087 6.631387735467032 9.007960973380113 -0.17022245589609392 -0.17261718138051563 -0.3233627594989205
Ni 0.3008396588081535 5.112118332501722 1.4176541976932793 0.18489779852008156 -1.4546252676465787 -0.4683480380947805
Ni 6.1746904895314545 2.3062153855213383 7.005110405976803 1.0909802635888435 -0.6956669818935504 0.697501721109444
Ni 3.597231437429581 4.406725105522929 0.7225621326422604 -0.4747464854219566 -0.4678939812764974 -0.8545680992395541
Ni 6.06309532477351 5.769467295931176 4.706540364452948 0.9195478465450486 -0.34656593708826117 0.7737503564605384
Ni 5.108189500373891 2.9406537228012017 9.271118323119259 0.543936928374689 -0.20385479923855862 0.8800503026710585
P 0.2409825856809327 5.653734608193344 12.491758951850597 -0.5938551533613708 -0.14827320531851237 -0.3419214963377144
P 4.052358965217087 6.021048654841945 12.393513650163502 0.1926152217689973 -0.1855482876198869 1.660551090481553
P 2.3791029339806093 8.32319910550585 1.319744616072533 0.20202880177341337 1.8216774976136496 -0.18091798793672711
P 6.512107303244254 7.829781343123782 5.750057231986937 -0.3618300623361833 -0.8801893993520842 0.726604294902355
P 4.7076482406719045 0.9027703127984581 12.777451284205632 0.2987004808655501 0.8219390003506231 -1.004574228088773
P 4.041869981522463 6.29423405369813 7.883038341216859 -0.14518839574560155 -0.19087072827406482 1.661558448700145
P 5.046099435129675 0.83335882805321 3.7417743509694636 -1.7666512619764414 0.7647653793531087 0.08965462434435528
P 0.3500471470198202 5.600899528562032 3.8131947120036305 -0.11584310981426502 -0.2891285209063988 -0.31250961883450046
Ni 1.5057952327347588 1.090482290113353 2.5317140173312707 -0.629252301913742 0.3013140072289972 -1.4834280508108837
Ni 2.0772543002703427 6.741422255592213 4.627590800417225 -0.174435465536177 -0.5097965350475543 0.826775245397002
Ni 5.821068377480769 5.73829069733712 9.262167300269132 0.13102418843007754 -1.1009409743459815 0.6632037191585224
Ni 8.516029452805295 2.3842294701289335 10.179590432936491 -0.09278288556069182 -0.07714029392742844 0.5116569852950608
Ni 2.4566361222769455 5.212625661554796 6.94322540217852 -0.546634015590878 0.07016206283738238 -0.1293822819512804
Ni 0.4690526517288033 -0.04939530997851679 9.13345767093956 0.773663710284003 -0.1611426050820128 0.4616829673697791
Ni 1.3510917967543568 1.1439797363620599 11.498547467880396 -0.5578584235517877 -0.4357600768564302 -1.1957984830475148
Ni 3.9720220606909584 6.794320849830673 1.7290835562159625 1.7126254425792893 0.7905165201752837 0.17024456738328098
Ni 5.734761099882786 7.712760216212389 8.116832888071771 -0.7187269490368073 1.5413856011622744 -1.0247054516210095
Ni 5.2242942022393 2.9603704715628103 4.866325876356671 0.3378131305962957 -0.6735516380517497 0.6386705099038485
Ni 0.8301613212591049 7.356397902539059 6.686071997517864 0.24061051870135336 -0.07035103891973692 0.09668119217383349
Ni 4.779410673233135 4.306489981929057 7.314774058420789 1.1878887412821348 1.119459087754827 -1.0465032642223913
Ni 8.29077036179946 7.030903687939353 9.59111308009153 -0.833983333109667 -0.36285079029121375 -0.6549589626512269
Ni 4.708873165238319 0.258477230543913 10.500488004681785 -0.45764196453118605 -0.47322516368142375 -0.6187017800914054
Ni 8.430502497523694 7.469962020118572 4.541297133092204 -0.3315663783556354 -0.6544642824029955 0.6295420652400191
Ni 7.454137809423568 6.316028637464988 6.9711273690983635 -0.6215703598884521 -0.33059990067730805 -0.0782893199302071
Ni 2.5111951698165442 5.364806660279917 2.625510574463459 -1.4022488109273916 -1.134945356315884 0.7330773042212085
Ni 2.1749216190323986 5.432141217371445 11.293875275754088 0.4389081355671086 -1.268603382824383 0.2526376250692165
Ni 1.16835119847604 3.5045999196627817 3.657220983880281 -0.9663324109987552 -0.6084564482143133 -0.007532818041935413
Ni 3.5952715581233186 2.3582066282291216 2.5437318883550852 -0.05100888694769925 -0.0613074406602299 -0.10129837923087069
Ni 0.9448070018631857 3.4057893379720734 8.368263626628448 0.3631366969627488 -0.11479589949667328 -0.7118351070129805
Ni 3.4145815743043317 2.5049525912854875 7.354958843011405 -0.129093547066268 0.014359354045465594 -1.4735534720096493
Ni 4.393913301909771 7.227753602519695 5.906323127303165 -0.8750927015554671 -0.346535598070958 -0.2986500872435889
Ni 0.9282478364283333 7.437723820233623 11.31769960489507 -0.7755259603037225 0.702514600943003 0.2280139129832654
P 0.16340765921418512 5.79203312849911 7.989557781512199 0.9515938192369998 -0.8439710404499982 1.7172418583053781
P 8.431491510692133 1.5908049976438725 8.13250375635809 0.11124957690631163 0.5957569983697739 -0.8697908297265795
P 1.8509063874276972 3.2586441402422093 10.491696675701057 -1.5323008652521868 0.19860306392131605 -0.16045869164111076
P 4.076013619621832 5.997693426442323 4.051145836220572 -0.31339896341798934 0.3575851710169003 -1.2734015755439747
P 6.931875341881282 4.079062320764906 10.318432456809129 -0.7315120166166176 -0.3979682028196372 0.9429168602882921
P 6.260299106450816 7.644137219947299 10.41329152258374 -0.31872680338880593 -0.8087366427277363 -0.32376976512935207
P 2.3880131260118556 8.589833426310548 5.856509528269005 1.3028923859142403 0.2620494053014197 -0.34971039625451383
P 7.093066341306025 4.0061384782444085 1.5249966058269424 -0.8827219359659507 0.8203184340280646 0.8255562853882361
Ni 5.425036654886246 2.774435995896511 0.6240219417076938 -0.4180186937126091 0.27437733073915327 -0.3122036575583075
Ni 1.3663534495003413 1.0918523909246751 7.113807489945766 0.3660798387514727 0.0846492007099639 -0.3143019348482329
Ni 7.090825183025252 0.31413235873256934 9.19556769791745 -1.569259187644091 1.0082912719290442 -0.9634342635153537
Ni 2.5811882668929558 1.5610801614988992 9.317425008487351 0.3116012480876182 -0.8912525991447812 0.3083842838122173
Ni 6.455270803362656 2.1272675166412505 2.9084146155647232 1.017496592577396 0.6059678774645048 -1.5062414491609737
Ni 3.8571695039378833 6.927157113921763 10.466385197401296 1.799542356277507 -0.48219728527304695 -0.8136014270192053
Ni 8.29756642476423 7.315267657653477 0.3488249445079985 -0.29550434252575564 -1.5155470428326157 -0.30605794967188577
Ni 7.625418557869437 4.115156764655231 8.219752864844915 0.050634791437732155 -0.368309756523256 -0.10387488170879529
Ni 2.9960656807796373 8.403844509552409 12.337564540078906 0.811585425030441 0.23594653756678075 0.058852808472150256
Ni 0.0283084604055869 4.784691459141675 10.225538714449966 -0.05960202793334896 0.4449545988715046 0.5321389072984964
Ni 8.652404387866024 2.1741322232007096 5.971620680208324 -0.4261814320290596 0.934496754545397 -0.3228148574152505
Ni 3.49522697835089 2.4449857286230547 11.558506164379052 1.2869757146839833 0.39863231876619737 -0.1926972399598423
Ni 0.9718007099008218 3.475002112732103 12.551983502347742 0.8027308028532885 -0.04935746738720532 0.3016911880627578
Ni 3.2691784915133675 8.572013042248056 7.8604761380550485 -0.1609914242161292 -0.3395082589105314 0.4646942433922771
Ni 5.68783287871618 7.837702521986591 3.5175550848177854 -0.3004999959681341 -0.42186172160778307 -0.6043020597263077
Ni 3.1374854903509304 8.53701649370985 3.4489502355833093 0.6221773973448317 -0.3675206849630574 -0.09902680958787462
Ni 3.212813814427722 4.353191365212995 9.283043644286945 0.484354697935682 0.6344053068695912 -0.28227755942283644
Ni 7.037500133567375 5.982885449461677 11.87345513948923 0.9539800600809893 0.031133488180010896 -1.78929008242188
Ni 0.4110747036216142 0.05716223908111059 0.2330704803334306 1.330475180628515 1.1080765569494981 0.4524704476325756
Ni 4.517549021479799 0.2010201022153324 1.5136156955776625 0.5054804241707036 -0.23270154826692183 0.22993658392727498
Ni 5.842799446640479 5.6459132379989105 0.6567237982248179 -0.12577630976757695 -0.9696177666182463 -0.4678569573909749
Ni 7.896734812572427 8.810982214882417 11.20731666178211 0.8447218025730936 0.5634094352770039 2.6122351554395142
Ni 0.1780214629672664 4.811630726087471 6.037808344965077 -0.41056326587582836 -0.1554851496859193 -0.7163908447044629
Ni 8.02074254627003 8.994612017660796 2.5027232285746144 0.14991511179730954 -0.11623006084003855 -0.4006935721706002
P 8.58761041506039 1.7394473253993532 3.703024089148848 -0.2752309369887002 0.7056567461164105 -0.5472629074241285
P 1.714622187520035 3.1105915909816684 1.4623675737735038 0.7525976336423232 0.8582918279480445 0.11058288985659019
P 4.761154760435917 1.038726958803546 8.300668659647615 1.1539812899014126 -0.24879613983593926 0.04564813685641816
P 8.434077462554562 1.674689646654947 12.367391906946846 -0.05883326808812448 -0.2355145922356847 -0.11996613084370308
P 6.4719569980118035 7.59216412427013 1.3822756541606585 -0.5843209886186904 1.1209017337386245 1.5676008261050616
P 1.6909312390540625 3.2218328886426493 6.157115997733776 0.47149018326818803 -1.0559998908589168 -0.7223694308854012
P 6.820670338281529 4.258146292374595 6.170262614061753 -0.43587809049153314 -0.4368810778347508 -0.4125710403344765
P 2.4885658226414638 8.49456151558948 10.0644121369839 -1.1692706119603153 1.6572230545495845 0.6295682904922641
