# total energy = -340893.32787185005 ev
CRYSTAL
PRIMVEC
9.08339032659388 0.00000000000000 0.00000000000000

0.00000000000000 9.08339032659388 0.00000000000000

0.00000000000000 0.00000000000000 13.29445990613878

PRIMCOORD
 96 1
Ni 6.206544329282924 1.9635564774012155 11.553710012263025 0.6921548549752338 0.5984098626115887 -0.4960380478108812
Ni 4.64480070442517 0.2877436373738988 6.059402490094219 -0.8187058381253061 0.02723929533192728 -1.0596734830557621
Ni 2.5390528355392963 1.5918641470350328 4.700920614608488 0.429951183484137 -0.5263791219965838 1.130208870072163
Ni 3.1929570185972413 4.25230741031171 4.706331590199865 0.5709630792545457 0.7190259683344649 0.8397611161337085
Ni 4.956006738899163 4.522610938342915 2.667001471060754 2.0602352475510326 1.553635622174221 -0.6820380782562061
Ni 7.197124373167423 6.226818456393807 2.4896137589088694 1.2026131919765028 -0.8452712473186603 0.806502611190895
Ni 4.961538523581298 4.524645617766229 11.740603492345706 0.6954111571290023 0.2927877149255409 0.08904758688797568
Ni 5.666609444101432 8.064470061087162 12.41045810873999 -0.19329450722420904 -0.6070971059729415 0.1678441854719045
Ni 1.7922074031092392 6.556509190092999 0.3437763470105037 0.909958917305033 -0.2670062350860628 0.4471454358752364
Ni 2.6693086521925475 1.471173140349415 0.5277595088466229 0.24211050028564754 0.4562276006821626 0.0022574285756090154
Ni 0.27348543964721755 0.08633399128050884 5.0688714965172466 1.1017747831011864 0.13663073598357758 -0.6474649682670268
Ni 8.6209276331928 2.324775658771499 1.516525599691676 0.6568682638587978 0.6161733572425968 -0.6281073896760215
Ni 6.86281019381436 0.6389756311284046 4.8978121823752865 0.11375100317192666 0.18468285429579806 -0.6924901268274654
Ni 0.554268475047519 7.177131831155302 2.2471889723331855 -1.1725066023991095 0.9550640371737874 0.8650995948984972
Ni 7.654209655580831 3.99625572163399 3.593877882214947 0.7532455516389672 -0.26762638516856485 0.4902281259973235
Ni 7.611999140937341 3.8502493062306167 12.60732242633594 0.3018248854271447 -0.4584829723752427 -0.05776240362144891
Ni 8.150462516893043 8.879213835880053 7.053189879087523 -0.7100877853045706 -0.9038340353542176 0.13301422227691284
Ni 6.832126501439556 0.810643532419302 0.33914200128829386 0.4382717875346903 -0.13940289941207606 0.08345440907091435
Ni 1.9837216038287064 6.258428654577441 9.37432219001665 -0.1745470514133768 0.9896302051844311 -0.22317046884803501
Ni 0.11909051331781403 4.948976194820389 1.3829298204314926 -0.6224849012829214 -1.1028114518958168 0.059626453413381186
Ni 6.350824900532593 1.7660018221437839 6.844758772305642 0.8283960688298766 1.5554405365934436 1.083019099760238
Ni 3.532430563630852 4.299295788243877 0.5811171600449863 -0.38779537605169345 0.8215597626343334 -0.836720786645488
Ni 6.015239046539958 5.481053947407386 4.736125110326968 -0.12680989323841388 1.639797145763653 -0.06276448482173061
Ni 5.421112654932155 2.7279237696865106 9.210308861716944 0.22069141117992316 0.34916172283989544 0.2289325681427928
P 0.12509009259950668 5.555610414847406 12.524431039972558 -0.18911954991091298 -0.6715850012436821 -0.6564576586839403
P 4.214783925054069 6.23470283915915 12.939272199198431 -0.6788085155753149 -0.2652967085941238 -1.4799380353797547
P 2.1925033294754983 8.344592734013913 1.625274673172689 1.8686554090250849 0.5774463729860442 -0.32552325748534905
P 6.3418232607624825 7.84172716457593 5.862869716243586 0.23293397599270207 -0.499840452276107 -0.3115212867793022
P 4.5598982554532075 0.9295033276239367 12.606365037000149 -0.18606045136961505 0.3566073804846633 0.4809641841968942
P 3.9511566888806153 6.19291016046866 8.276332872717829 0.791134870485573 0.0024032101248539256 0.23268483609637347
P 4.626842841836364 1.3563409203961092 3.7991579609077757 0.3750316486281218 -1.6004595245062951 0.8467272630388967
P 0.18434558910839707 5.568090993095772 3.6050722523992893 -0.4065505451720095 -0.29751854474230693 -0.16908782807101846
Ni 1.3785861431983275 0.8501898886928907 2.743803352578646 -0.519413232201712 0.47664524510656625 -0.24189838427484142
Ni 1.8488060079604534 6.669397564525817 4.528199040044803 0.7852814970285895 1.1622188473198565 0.6708380957753285
Ni 5.875273085674549 5.560824280869649 9.281062113645618 -0.5140157153352244 0.15580165248507363 -1.9666944007783937
Ni 8.40338951931353 2.234595760045315 10.319745067449965 1.218098946316928 1.223749459734486 0.08685237900886977
Ni 2.4611445970849766 5.1625176169752915 7.172161399992635 -0.6065438045726327 -0.33616093970485333 -0.5278186826565878
Ni 0.5887898998167438 0.04648879146662081 9.355019077326983 0.16057002040799445 -0.2715365188562485 -0.33694538327936163
Ni 1.680127450411577 1.0078021518604101 11.446968368034478 -0.961745305848705 0.7396842680147647 0.042059648174211435
Ni 4.099288617610129 7.083536577682841 1.636015782181927 0.39321449018473564 0.39632398234799493 0.00899706129228773
Ni 5.821962668105655 7.910334011380813 7.961905868049607 -1.1757186815785041 0.4554375006806995 0.475279217996975
Ni 5.504389177043522 3.1571957110544346 4.669945345405612 -0.6719454699068944 -0.6516972611808196 0.8581157073814962
Ni 0.941293568210821 7.265095382652519 6.979604426068718 -0.24848786456690108 0.26005371502762953 0.13681045609455147
Ni 5.102866992989105 4.661841144595428 6.85317453340252 -2.360263960309703 0.9958833851829946 1.3410251882302195
Ni 8.205171776565464 7.188377068325227 9.324162800536808 1.0674047902617487 -0.586657607171667 -1.0276002566703013
Ni 4.767544557314667 0.4116719643562541 10.326737461289552 -0.6136978991189108 -1.1038946576576665 -0.49025152303609115
Ni 8.077450225801073 7.169301948731655 4.678346573078038 0.4859169002164793 -0.03835674540132749 0.0024901134117053885
Ni 7.305825304679937 6.149219053209097 6.9929524680890776 0.3617796687142221 -0.3449456278760188 -0.11181547671211065
Ni 2.5422865224799205 5.320214355672439 2.6144349831560096 -1.228718373703987 -0.012096269042901748 -0.5489531506423577
Ni 2.333386712759454 5.331486843013213 11.683477142519068 0.4112554068468465 -0.9752628807191656 -0.7063334604684609
Ni 1.0792793499946107 3.2943185707613725 3.6137532484924213 -0.5651230755340009 0.6816670680700324 0.5033469227674686
Ni 3.5551117891666384 2.8552274844979 2.7795392266286614 -1.248201165018947 -1.258829848377387 -1.0098447324590931
Ni 0.853586168319575 3.3960888754882226 8.302110626000971 1.790754839892864 -0.03283581558309829 -0.1507399216914501
Ni 3.5860134829082253 2.9858920537138713 7.432534057427813 0.32883201014360786 -1.1246573441263146 -0.579449262348686
Ni 4.0527998261435085 6.942943862887929 6.064653598016621 0.1598241433809054 -0.26804496076322226 -0.5674548089909711
Ni 0.7883528926656702 7.31541736481842 11.461300141222448 0.31340359140367957 0.544480716693301 -0.9726107878082992
P 0.13615820365892 5.486949067700828 8.051723339503514 0.7210723093405323 1.1642579892370721 0.08051743792977746
P 8.764672284415791 1.599594112165571 7.969190747056295 -1.5821144463402044 0.12782342210459277 1.3289579726530403
P 1.765393234994846 3.2819742433672463 10.505375047944328 -0.04377225998994397 0.05049080966070014 -0.09223884013176373
P 4.111950863664148 6.31576301404155 3.778020003381013 -0.1757467281484328 -0.26025374685357755 0.7728304157494302
P 6.809799528124793 3.9385852767294227 10.36360330909073 0.4199449642010445 -0.34730487213681477 1.1483819414367642
P 6.361134548503404 7.799725567908941 10.08862092672493 -0.7239712281548821 -0.04154208510784459 1.3490447161005865
P 2.2886328488368206 8.593622962003142 5.7980996934940965 0.4886332707063778 0.06141825520648132 -0.44298693362217256
P 6.8652627091906755 3.7823146303066513 1.5319337546281413 -0.14395246645597143 0.7699350964795063 -0.39191839708113146
Ni 5.169166658662194 2.7294497792539967 0.49640273725187456 0.47670977979591456 -0.1847039373417206 0.192030810020437
Ni 1.6414412911977558 1.2141767790822986 7.240003425335717 -0.11710809256961766 -0.2326737803527799 -1.9505136772534735
Ni 7.10294778271687 0.7165387007519831 9.217048737306673 -1.0670862305800655 -0.6497074844443004 -0.7676013061400071
Ni 2.640269053458904 1.6461192371933222 9.230675639408709 0.7604045312812516 -0.42067027240284327 1.1023532813124757
Ni 6.475603432845404 1.9673170009782341 2.806912931584466 0.031924616622738565 0.07955815934030169 -0.9085216706378739
Ni 4.299622790294053 6.795229770111417 10.584384193300906 -0.604440899297017 0.6909009279634747 0.22052557502602022
Ni 8.148800256471317 7.29426214885012 0.045186233300088294 -0.17317742475935982 0.05307219723463118 0.21624623092437598
Ni 7.6485870369958695 3.955743800973355 8.244771724841721 -1.0202186194942493 -0.8194761406324274 -0.1857056391333576
Ni 2.9959291999762034 8.374804090094019 12.517491329796611 1.0351891247611527 -0.6440016923087747 0.07625274911615255
Ni 9.087114472669427 4.824061411653337 10.193367858447406 0.3206091080131833 -0.29980039879794823 1.0649642991410562
Ni 8.711307366505203 2.4398894638235675 5.881056480267514 -0.024347832716745166 1.0573566619971275 0.30638833642811103
Ni 3.702971216187673 2.599293879893854 11.3268795901246 -0.17515537442133705 -0.5495840993581373 0.9487339811907015
Ni 1.073693064970779 3.2817744087810277 12.742300697597145 -0.31265488616311315 -0.0478590284648079 -0.3842007167218996
Ni 3.137675505337012 8.44508228071091 7.907836987392112 0.17407705375549376 -0.3588954051878916 0.9492515442570685
Ni 5.901987336495833 7.783348215229317 3.595552859383068 -1.2156779955802612 0.5984420014011049 0.1547958369283786
Ni 3.407942699807086 8.551330696847108 3.765934552609942 0.04826706253650397 -0.43011367720393023 -0.1431104301706503
Ni 3.610693054306195 4.212776495801602 9.536515206903712 -0.7679165233875808 1.1095302586768894 -0.03596253413753806
Ni 7.081111312477372 5.953244907860847 11.215804260392199 0.6615664406654156 0.7485666581060592 1.862888938854953
Ni 0.6622845189327218 -0.055227921257561784 0.21298642700863193 -0.3671753858084967 0.5121642639487824 -0.03812817433028917
Ni 4.793196051472881 0.457233341675016 1.6923718605125944 -0.4968636290359701 -0.36066432416285626 0.05865843307315704
Ni 6.347082543736139 5.701989249252367 0.4434238634282978 -1.4977213275051044 -0.3094068115394607 -1.0047665466052373
Ni 7.981793042734449 8.779859712968388 11.32428719053793 -0.20014032650144886 0.4499193990759477 0.25349843040761505
Ni 0.49256500485745347 5.181538236227167 5.719010614303032 -0.8228440286633958 -1.6922126832508924 0.4740399462732352
Ni 8.004710436417584 9.167593310573737 2.43945346109 0.38381042326201636 -1.2176250920043028 0.2281337263905813
P 8.55010443915895 1.7382702316108427 3.7806251197140774 -0.23418661745288058 -0.21437703892612112 -0.37621795562673915
P 1.826769703134736 3.4291251659462336 1.5643723580055535 -0.5303882431559769 -1.1019503894471023 -0.7001440438282974
P 4.71045544938819 1.0610308189167599 8.127567831685614 -0.41042031254006095 -0.4561962332235949 -0.20554709933931695
P 8.472477785803394 1.5748600404259054 12.399038470476638 0.6153554893269918 0.27206102390115083 0.77696860628752
P 6.486131082182999 7.946213402997294 1.3547322519770513 -0.5993195189100518 -0.18881076042124256 0.11308791566663104
P 1.9095193886097097 3.179895103370786 6.078679260952066 -0.8149841662993448 0.7208013150673329 0.10110014717713556
P 6.835959692138835 3.990596769487897 6.184356331839486 2.732716535356739 -1.137710320655531 -1.2031441247793087
P 2.5416506851601346 8.415661179585396 10.181694793595167 -0.33056467656399846 0.03296077119673678 0.5058902580146126
