# total energy = -340876.232509872 ev
CRYSTAL
PRIMVEC
9.23210859660810 0.00000000000000 0.00000000000000

0.00000000000000 9.23210859660810 0.00000000000000

0.00000000000000 0.00000000000000 13.51212412697377

PRIMCOORD
 96 1
Ni 4.80649426627102 0.11342568696920978 10.301062206859042 -0.8791308761805827 2.663539719250761 1.266382463913664
Ni 3.984347293971733 2.4482444307334204 0.7035605365903906 -0.40974668351180404 2.3921572094738734 1.0532503531382378
Ni 0.7411564526773768 3.2363710826288705 3.114085340980811 -1.1379077813783178 -0.23536829646580756 -1.0003396211821352
Ni 1.6376191300390153 2.768598601157609 5.412281232910563 0.41369846907070046 0.4725049976859475 0.18773655352045732
Ni 7.534268482944024 8.951609500408944 6.4323793862060255 -0.5142723114307208 -0.7879469596758947 -0.036628449856311106
Ni 4.179477142562098 6.181986135190324 7.353068039896486 -1.0808364902866225 -0.5015245248467493 -0.8309373471944915
Ni 2.87041029543536 2.2111269519675743 3.26481336298169 0.9004260381139331 -0.6036672543557862 0.09001226479409014
Ni 2.796359551891486 6.498416659434965 4.854973915254637 -0.0026880883551244025 2.796338740193075 -0.13935610533454065
Ni 4.648339012854974 9.182541466374092 4.907657866520996 -0.9481004613717605 0.04638990011844913 -0.6882966575714081
Ni 6.5813302272902865 8.72642913813758 8.751897756291735 0.12185794854977722 -0.18313453597207172 -0.39862614811861025
Ni 2.701758134475444 4.469762335087969 3.775936133866318 1.0542050037420232 -0.8433871429220701 0.11645940324202525
Ni 6.45665059986727 8.410626397281664 13.125582459789287 1.455643424498448 -0.23590231459240663 0.6199929880990032
Ni 0.3833254603678872 -0.06259000385613338 0.38510356449537136 0.16884563015322535 0.6974906653658504 0.4619771015714302
Ni 7.774543342870824 3.4159448281309133 9.482606231601126 -0.14434635946028043 1.6212029277012336 0.35492485057591777
Ni 0.25764784199896734 5.956990415092114 2.658308138288574 0.9323503976263556 -1.7687207429109606 0.46430240727049715
Ni 4.51187921478466 0.5809867531522088 13.195899738591963 0.03907434029364238 -0.3363578862070078 -1.4424721772238125
Ni 9.372067425009199 7.219887486821405 12.230783408407776 -0.6587109734944915 -0.8537934258570586 1.1561011644578927
Ni 3.1206004400605902 4.304304483723638 8.904787014929395 -0.656520907821708 0.8394574688503605 2.082983854101458
Ni 6.034761698425063 4.21738418071085 11.188268772080411 -1.8223585828410744 0.7145890156090338 -1.0112680951691808
Ni 8.184015058168345 7.260988834565742 0.9966744472089994 -0.7338787170765813 0.6795513072786104 0.7175424418104029
Ni 5.362950383508701 6.8984439275756015 5.106367003637973 1.2921983965355037 -0.3034557361623484 -1.2140252904681865
Ni 6.154723718323965 3.9475573409705693 0.8190034393013205 0.27637224968199503 0.24707581471072287 1.0414531033929935
Ni 5.340340949405853 1.1041786596851235 2.390619454913429 -0.9600789738898755 0.36492772742490054 -0.08673230849123773
Ni 1.8698805196508805 5.3834364326202655 6.5205183275616365 -0.46948472280238496 -0.5556727287543785 1.4594949370340542
P 5.803081931658637 2.0690632639420006 12.008008933652622 -0.5531188519842732 0.4038179767321949 0.9128627212153893
P 8.416996552255517 5.257612023723687 11.132585308711148 0.47776881718804814 -0.7578879355069851 0.08145151970827262
P 2.2933388795649057 8.481889044010895 12.957519307361736 -1.0387992107099142 1.0040695205382126 -0.030976393776856334
P 2.8620183086654576 7.920770711901047 3.005096605432519 -0.30602966753711164 -0.2699504053160512 0.8201101746720005
P 5.77992780314498 2.442123542693327 8.58071230471613 -1.0506034024336939 -0.40252111229764226 1.1145778484031257
P 3.39718518333835 1.530222010023321 5.970223719642144 -0.08269336253517372 -0.4379653120378651 -0.9830363540169974
P 1.92962149477523 3.660281815867126 13.114327596124614 0.19521794949916704 0.5818905248003269 0.8551723084824562
P 4.154735091359307 5.473680294749846 10.652486115760048 0.38141415511569793 -0.06489644356306887 0.29193745111010366
Ni 2.136651531425444 5.8461312543297606 12.373295776914116 0.6420895628877265 -0.97281261940646 0.2633982060198302
Ni 3.7304181453401104 2.9821649707375153 11.675150795262367 0.32714022426348177 0.34388993291799486 -0.267802505735113
Ni 7.57755784044025 1.6343786599001422 7.8210740937167875 0.9179632756667482 0.9679828021179846 -0.6645242377421589
Ni 6.952359442136906 1.3276880102894348 10.394606547833769 -0.09995703471162785 0.014813153753432553 -0.7442996552995891
Ni 8.130154936258988 6.550891965045659 6.110357896958245 -0.26002286178969414 -1.2629891219613991 -0.3906783540264433
Ni 9.402256420320064 1.6840012439355894 9.831597479870814 0.9856997597817735 0.7969694748894791 -1.0248879999454608
Ni 2.198035821890874 5.08513776977946 1.2245339674128461 1.4438993965886424 -2.481040245759527 0.7534499543402895
Ni 2.715080067268588 7.782021350883607 11.02706876922904 0.46577847759539137 1.0735093604975898 -0.45689094529777446
Ni 4.590481387896808 7.4178423606610435 9.368698628559981 -0.7636436070438397 -1.8269981384956149 -1.5256908161348368
Ni 7.089705522638365 5.898144954507567 12.820370793985552 -0.6747916811064378 0.08091853002293806 -0.34272625162719683
Ni 9.317782626101582 2.459932280294142 0.5604803934015976 0.19542852284807632 0.5598973083586875 1.128443036420992
Ni 8.965614609242762 1.1034493231011608 4.8139916617119844 0.4328002228971579 1.3147724251812778 -0.20695554965106938
Ni 5.933956303991008 5.170470150103113 3.2775139748621673 0.5901717909725126 -0.44802166783260255 -0.14323281468112753
Ni 5.087510421704503 2.7454260084266373 4.469797417100869 0.48132645263231943 -0.354591378495899 1.2478293835018253
Ni 7.297086379417574 2.3037434660221985 2.8819873596921877 0.7043683663222902 1.156673492021595 -0.4374408069929628
Ni 3.8933463989322163 6.102239180604614 2.791645637210835 0.2325007451100254 -0.016985735924719133 -1.8226869127147705
Ni 3.011763111094286 0.4148835773927 1.8541065387982358 -0.13861408496219355 -0.7358633516067778 -1.5393798835861552
Ni 1.1865752294556102 6.26463197189457 10.217476541493436 -0.7919049158823781 -0.9144907437371154 0.7029293198829184
Ni 0.6478290662561054 8.178494257191007 6.761277873192968 1.141161769539241 -1.1163506240328323 -1.2162009579632669
Ni 1.1838609895102294 3.504166858464445 11.125288250028056 -0.5079214295120286 0.5396205603875223 -0.48479667056910697
Ni 6.37620200502357 4.469143783807899 6.032758330846329 -0.19174233224574075 0.8896957961806226 0.14813333730653844
Ni 3.7579205970315703 3.615746123702104 6.815812862245208 0.6304452937805788 -0.5575398638701043 -1.139071976889748
Ni 6.83064332159303 6.3672283954082305 9.872376627022994 -0.024902933889266787 -0.22594160383526896 0.4856685316510991
Ni 8.68508775556814 1.1892156125317288 12.129076960168724 -0.4863745565791882 0.6977688587279014 0.24986237631692454
P 7.300640741250811 8.305675786060275 10.96579157122404 -0.565507198346297 0.10375326852926647 0.3624299007037113
P 1.521608452645633 3.3628232749141764 7.749703431316261 0.8466159342720129 -1.7560089517712467 -1.0279370711844296
P 8.924707135780238 8.125945094711051 4.784575393895771 -0.24963457657683458 0.6319481035783504 1.8404316382927015
P 4.407925671298309 5.036207593893344 5.274227972885919 -0.7552093602335574 -0.5954692919260262 -0.05673216258472165
P 7.641480960786564 5.328514618215266 7.882432534277976 -1.0420912511976248 0.12960005438904132 0.4276883555918892
P 8.97451436198884 0.10033086404904641 8.342993815676664 -1.7756295542156517 0.21767293606857352 1.1154394250724726
P 0.8596191781302591 4.7964589641600375 4.696111482315407 -1.2823490145452496 0.9120145142824809 0.49234234412684885
P 4.517003035089715 3.6186819342552705 2.59101714470391 -0.37051781991816835 -0.3270121833260497 -1.9570098265007776
Ni 8.774999261786041 3.8699983961367472 6.602213257074133 -0.14572832740947161 -1.019961766288437 -0.9166301586776214
Ni 8.041028159276998 4.2723336914418235 4.209580279262448 -0.17044922719491934 0.32755520031371327 0.08492610852043438
Ni 1.7968730043853336 8.835081824930727 8.871845004816784 0.8945685508918917 1.1474648289391334 1.0633154506837237
Ni 2.0904632918106825 1.5482615503405792 12.751729142904258 -0.367213952355916 -1.329505103405762 -0.8411865357263255
Ni 7.6164342499980675 3.373532520957175 12.509889440559968 1.5686842889772274 -0.2683339527585507 0.12074723198410174
Ni 5.4530003713564685 1.1108165458100512 6.844309612039109 0.09908131697489388 0.1583493586075918 -0.5846174368131867
Ni 6.849439894820224 1.3509713883242995 0.41449490561820845 0.18361893180765798 0.9173554668794202 -0.06275420040908548
Ni 8.764317712069015 7.335002649674985 8.766625739233454 -0.3821343211111741 -1.6074087021306187 -0.11334528309307576
Ni 7.651867083026541 6.907408305082284 3.60166992763162 -1.159954476765712 0.3049778292338296 0.13329575807307364
Ni 0.23599300793133113 8.844877092216608 10.723938020716764 0.20727179533990756 -0.7867778790684579 -0.7368766233626406
Ni 1.5631806379315156 7.119709875776079 0.9764441275072553 -0.20905768359573676 1.815983532552666 0.39540609851941577
Ni -0.023247372811099395 5.171421057294862 0.24763838979222655 0.17331060790311442 -0.8709923062338483 -0.5331892029398818
Ni 3.0700915735939986 8.61653934878429 6.830324813844338 1.0833980803662115 -0.578535749395481 0.07925914004264413
Ni 5.3856798350241 7.911076997810401 2.803793245782712 0.40799421959707155 0.6045404009893589 -0.23498494498445982
Ni 5.5965596609846 4.576014673630102 8.455495368569231 0.2884749464828 0.008574629042888457 1.018454328504975
Ni 4.00762143989794 7.644342914470468 0.34622161567235943 0.4200025569118573 -0.5645476626465052 1.4317864153751922
Ni 5.090381607497066 7.395777620969004 11.70449966868538 -0.14901651124244014 -0.7177954383614734 -1.2381296397155581
Ni 3.4447028465998284 1.4378455307937985 8.184807173091182 0.07014432222556952 0.659901908478799 1.3752781958758187
Ni 0.31239516955033564 8.417135033885383 2.825804439244538 0.2634324016918753 0.0905514251270118 -0.7215117108707961
Ni 0.8775904008434502 1.360822048262127 7.20866401232617 1.1669208807812161 1.1311707197648004 -0.8539335509793488
Ni 9.664171342940648 4.90641337827393 8.463723947015891 -0.16060884406572987 1.5525007372388295 2.0654877541992236
Ni 4.544745521606276 5.433889906434911 12.98825945955947 -0.005873942282273754 -0.9895597569578118 0.09747592016098697
Ni 2.011833422372561 0.22620235669977923 4.745241994959396 0.025444665325349725 -0.7427870753098046 -0.6557588328447028
Ni 6.8609246379904745 0.32686373023877335 4.144574232570579 -0.5092689446788584 -0.8662601908655017 0.6449933667980828
P 7.471600929375166 0.12790255655543945 2.1060803268161457 -0.4040290643017364 -0.935186324413254 -0.9325648276300067
P 7.14695382842512 2.50559428971541 5.523108081292614 0.7008474976532252 -1.270294654483877 -0.4084626745930578
P 5.33639883900899 7.922681758393202 6.907276285928479 0.5031162948139013 2.004571121219509 1.4441999585481966
P 8.265183757487351 4.166838385809627 1.9392330430988214 -0.6813953024658845 -0.30546171084878365 -0.22832270247293582
P 2.102834317412078 6.82652580113167 8.385002679702058 0.8346816447282721 -1.1768468816456765 -1.6924674795741756
P 0.9552647470354936 1.173511795704883 2.544683960983222 0.72877764840459 1.222350008283798 -0.45682178262273576
P 5.781146441487804 6.521173807276338 1.1547299938515412 0.6823512386212506 -0.9101856886038584 -0.26654086541387
P 2.6521263183313395 1.2965942683301075 10.340936607362764 -0.27373301228693503 -0.22764238857645955 0.4683408390059289
