# total energy = -381175.88339149003 ev
CRYSTAL
PRIMVEC
9.15462357022188 0.00000000000000 0.00000000000000
0.00000000000000 9.15462357022188 0.00000000000000
0.00000000000000 0.00000000000000 13.39871695855560
PRIMCOORD
 96 1
Ni 0.8887628765673935 1.0137005988163184 9.443937833224396 1.1875485843338967 -0.9431456884696466 -0.013181531687280522
Ni 0.5482685618570188 2.7651448300102968 5.966823297432491 0.5527025903824611 1.0687733884745012 -0.31827146101894216
Ni 5.056373118135094 4.902685301237131 3.5859923022876665 0.3709407663881999 -0.14559257316255572 0.05030131935771337
Ni 0.7870962068890323 5.387706401253273 7.657125630157436 -0.5628581907592243 -0.159929301500202 -0.17541711272315594
Ni 4.565291657457382 6.74885242029406 5.44983425265773 -0.7467576299217785 -1.4160692617502515 -0.6271164865176619
Ni 5.910362157885303 3.434457652802999 11.39012836706731 -0.4144340616851443 -1.8400829967040306 0.6702035475151232
Ni 9.178791561506655 6.817200838268817 11.538090882518526 0.3641936774723534 0.3365229510299624 -0.6448902655613151
Ni 2.6966774019319155 0.3904071521711249 13.231406917252217 1.5665970674308956 -0.029716553227826244 0.8718266292096856
Ni 4.658064610545537 3.977839476712666 0.7128796753431788 2.0447152975385623 -1.1857475265694157 1.2627608080006767
Ni 0.866454890373865 6.219925746663276 2.011308285235393 0.5623465412301283 -0.17977076170616138 0.6842561689534474
Ni 4.980289043424649 8.95747854187905 2.6799848617048636 -1.4153586088364722 0.6769840607720664 -0.13194361492055343
Ni 4.006694849530296 7.278749484000565 10.23005449541435 0.03453840009650181 -1.9726213077857897 -0.40157854587871483
Ni 3.2569586605564766 9.270429341298687 9.203738825613675 -1.00643930632197 0.0728871750780293 0.45949624413110546
Ni 4.871770138164435 5.756418011533375 7.962186975169004 0.41206504723233556 -0.0501964183487329 0.7713792851252006
Ni 6.5656958708136255 7.781384079353357 11.590586239227962 -0.22193608222030164 0.4855677444071766 -2.403288286390029
Ni -0.12642809493125684 5.93843023309433 5.293203224350862 -1.2973061500757141 0.5889132359750633 0.9943162978061908
Ni 8.939096058180509 0.9358679910449054 7.394658001233618 -0.3741515600160137 -1.0826185218877098 -0.2465456532388657
Ni 5.082912371243696 2.545159230769288 2.974621837101128 -0.8755120484810728 -0.10307012641931282 -0.44846775423108565
Ni 3.8400990137005886 6.631288747158271 2.6700026603976474 -0.3450582421944831 0.9362394482681168 -0.19587820879098522
Ni 0.6404437180400377 1.3179636606712568 0.45924900434476046 -1.3783979724517228 0.09845525335512076 -0.17737500778047519
Ni 6.83258060550664 1.2342537847053896 1.5593957960480087 -0.01646123087981681 0.17834328523101545 0.2637548180283006
Ni 1.7268457582368169 1.740202353712998 11.68897372282026 0.2714177338901971 -1.2411964515663398 -0.8042112440535569
Ni 2.2597180745339718 2.8326235587662465 1.0880196621437574 0.9537730862765059 -0.1974067296203697 -1.012220431780121
Ni 2.7907960846533806 4.189530987193278 6.692363816876806 -0.6884938611838788 -0.26459325476919593 1.9451416143082825
P 1.282224011090029 7.547767245935492 5.598734201540585 -0.5896012631810232 -0.082482017855316 -0.49377187748452384
Ni 5.2436400935023055 6.0109623139427075 12.3645235905053 -1.0081565461233926 -0.39694927463681956 0.8643614311808919
P 3.979102814735773 1.8253037324289536 10.398288093362419 0.1943442886449621 0.7192098022104968 0.5099711129522057
Ni 9.258711423403202 3.0992428093819413 8.40052681976901 -0.16240321696199128 1.3251722803583628 -1.1085612098954005
P 1.9260503624600522 2.0790698918530386 7.685972763814046 0.34299904567260925 -0.385093146629182 -0.01752335359574401
P 0.7850419094079801 5.621433090151408 13.408363955796073 -0.5928593651070048 0.0754654773281668 -0.8580398598382385
P 5.157275376763242 8.950429481895046 5.461115495019141 0.5166896626229618 0.7902606954107357 -1.238939537211363
Ni 7.799958810142371 4.77403537921741 11.52179748386979 2.5891145102616506 0.07558451940453434 0.40219998151279757
Ni 7.90330535320653 8.753074111589692 9.797623960190544 -0.25675961765739 -0.26616985522769643 -1.8215083190256371
Ni 5.688280149895805 0.6717296433586455 9.430486029665312 -0.3376490942146056 -0.13021763336838219 -0.41203213711187103
Ni 2.0062631723039854 8.242420066177178 11.269017277381131 0.22303882836617717 1.7686361536169541 0.512861290015807
Ni 6.312121958480014 7.594208650219705 3.956909261334193 -0.6877181593601188 -0.4470916998191655 0.7570430710081866
Ni 2.2020256381454226 2.3915446508581715 3.5973943856773745 -0.3552860905700784 -0.09548202965940976 -1.2891629521432892
Ni 5.188794744977425 4.257055489066007 6.130502470261026 0.30278030736187855 0.792142742924797 0.5111597339436681
Ni 6.953952601958463 3.632041888692249 4.352814680292839 0.2208608468782519 -0.4716058829104458 1.2611070744473378
Ni 2.798632442245986 1.6318665409199018 5.667389299397762 0.2042900870037643 0.17681759261510838 0.819695455732085
Ni 8.665885478748605 2.257255480851249 3.815712928005283 0.6200562372367708 -1.1065413512518942 -2.062152004957771
Ni -0.15956142324307468 7.869405782919828 3.570061426723821 0.7881310506622426 -0.5993172049172065 -1.5485283828546426
Ni 8.7358634196807 2.6298303421875193 10.477957118579017 -1.2754851975458807 -0.05945496083252341 2.016939155866559
Ni 6.136106015217139 5.448007905298239 10.2505004312173 -1.0480186724256533 2.4067975850948677 -2.242087831486887
Ni 9.053235902181212 9.462218700603687 11.545969351378568 0.5931964367314494 0.22731225893055046 0.42664911569409747
Ni 0.6360147112604788 4.9387087441423905 10.041105815736673 0.9810936284683296 -0.9604702957910234 -0.5514442924953278
Ni 0.5903761674445737 7.987930691507982 -0.007380457349484028 1.7836570525058184 0.044868321267600146 1.72343667426218
Ni 3.637104395408033 3.118046405754851 12.329137309385608 -1.1247213645950307 -1.9046053447571325 -0.08554600149262043
Ni 1.435911827987992 7.322023388603656 9.220956841221353 -0.8893551250117523 0.05562658822536871 0.6306021310734172
Ni 2.2300754041077386 5.722399431143048 4.594928835109602 0.47594127706100614 0.5027504268340502 -0.03981687488662175
Ni 6.649964178804199 1.076940736958511 11.387824148368644 1.5654130744251236 0.07481267423551631 0.11292130818177973
Ni 2.7752057610783725 6.661737024439819 7.4919194661531465 -0.39598819627513093 -0.7561809801182074 -1.941939048210585
Ni 2.25948005432672 5.958780960814379 11.431865210408953 -0.24120058687686846 0.37581892041610754 0.45491325274611333
Ni 5.859563152883706 5.924634215697068 1.3843822840425994 -0.37606934586401686 0.43103850301104474 1.3751059319640124
Ni 6.98241432597179 3.4687417172706465 2.0395255808051207 0.17449614357078336 1.5875451304374721 -1.455803604225396
Ni 0.3009216243300539 4.344372286634077 3.737384139647983 0.8489265846830605 0.2664346788533089 -0.8850464703340692
P 5.822496082915881 7.493645112655723 9.132123122563218 1.8093706552218387 0.7060256994200551 -0.5683642081791179
Ni 4.70168639083615 3.2943095238483338 8.848620000092334 0.8401002446406822 0.39734548163397376 0.02759205068565571
P 2.977458854879105 5.464257361754868 9.21878628002368 -1.37749294413895 -0.5059979872370706 -0.4873852572318897
Ni 4.419806383086258 1.3563581510256797 7.567956852284477 -1.1566449527765048 1.23104393651337 -0.9326334760844132
P 8.793885422510058 0.5015937146772318 2.1490469173227993 0.13728045375243453 -0.5707481350302622 1.0888840431814475
P 6.8225471383086305 4.744813821465546 13.366304869712305 -0.47940146769546466 -2.0994394285543194 0.9450189942329595
P 7.804719214287411 1.7087836863557302 5.734610783237413 -0.764544007370922 -0.2856567603077145 -0.6424870554364612
Ni 6.6576632170464665 6.864109128344178 6.681243695886458 -0.34106943275006424 0.8964855654089464 0.3357017406802477
Ni 5.38616842452949 1.5412266150736587 13.196757583312671 -1.168938425431877 0.4737003035456294 0.7268675758660708
Ni 6.52003260951466 0.14302359615073668 7.365716574956443 1.3180148433779753 -1.1343339479841303 -0.9748623028466373
Ni 2.0722588520762883 8.849728624980727 7.038158658510215 -0.6112324682975538 1.1853832012514616 0.5545671543950256
Ni -0.4060386715512341 7.589310926724327 7.46419743570697 0.9950210371826992 0.2850417524315349 -0.2578168552773108
Ni 0.06742471647815036 3.7229656078625237 1.3746280328569442 0.5341381971167124 0.6742352943823355 -0.5270656065406472
Ni 4.57537089777217 9.11097411168654 11.430485608669228 -0.8046730141813239 1.1950603193299096 1.2153087851663005
Ni 8.259227954658515 6.369146107363585 9.517885218843585 -2.0641777771385486 0.6886977496645688 -1.8496590704282403
Ni 1.13765419905449 3.8192081632025454 12.08779946662942 -0.6969551045773545 1.0931068230135432 1.687231685096533
Ni 5.117727403865983 2.1596122681377823 5.298174184833087 0.3475714955346401 -1.5066973057514697 0.1464145548432188
Ni 7.708467504324034 -0.12006929354828537 13.312697226265135 -0.6165844766380865 2.521281352667761 -0.770496368299615
Ni 7.513364171364217 4.831645423995757 7.255418010915853 0.47013778300535164 -0.8344800702404275 0.6540264235346285
Ni 2.999365868569648 4.415155834421488 2.6075507353263934 -0.701844571459172 0.47612716781956715 0.254484191359652
Ni 5.42457206950727 8.13378215081334 0.543045849232508 -1.041897904239896 0.5976539582821708 -1.6470656544006088
Ni 3.061983492323643 8.406095577156371 4.494117207252677 0.1711601372190149 0.2406254310996888 -0.020201671758855528
Ni 4.421490833783734 8.20703744690683 7.265561333594132 0.32883612390866596 -0.47685684689673996 1.536130780521238
Ni 2.91856716283094 5.20366185330732 0.17736533474552638 -0.6823862056242441 1.1771536142528178 0.10375481119116324
Ni 4.006493447816468 4.619752511801317 10.817842650836228 0.4496427483757934 1.0499953365360497 -0.3897861812294771
Ni 7.622514745635984 6.827270923960248 -0.15798865895054015 0.5864033250690159 -2.9840205292161968 1.468340560350142
Ni 7.650234945157489 5.957517622791271 2.9851935961524605 0.5833169728342082 -1.6502270828477257 0.19908797397753455
Ni 6.772709368759399 2.454839716740499 7.501606888588304 -0.22023915413385295 0.836606629665127 0.635204405732119
Ni 2.575433570207075 8.52440992940734 2.0041530316204628 -0.5679142651258928 0.31229621727211376 0.24802609443913412
Ni 7.161707624396059 7.964119516159423 1.8200819352667785 1.8424782364090848 0.2567223366615514 2.277304745707652
Ni 0.9473753526032053 0.5703632453263561 4.427632670593172 0.16473392197769693 -0.7142462875576344 0.8470332243150895
Ni 7.888392471759856 8.566603588454441 5.369080404573467 0.3377588803195925 0.9517336872489739 1.7904776749720779
P 3.7285316188628785 7.635999505839147 12.819556890794694 -1.6442538959834263 -1.116921666044954 -0.6733022410451048
Ni 2.2897269298944387 3.2367910253035457 9.913951759173296 -0.0788477635368384 -0.4990639791213986 -1.4166346473354183
P 6.567654960211777 5.612754507210066 4.931089351123318 0.8101466357013853 0.5969972985347783 0.9851852820392002
Ni 6.709881188668219 0.8822246445666475 3.8240738455161782 0.20197943659271667 0.12240122264775694 1.366291676106492
P 3.6223196786883394 1.3878317461230827 1.9801422854827468 -1.0310982425212307 -0.7363310352718158 -0.724392889073333
P 7.00596001724303 3.6908786530002793 9.47050729659007 0.7080195899216322 -0.6288388685254074 -1.380879601222996
P 3.41831805182664 3.7481591313378155 4.79904489476325 0.7165512815417273 -0.13315820405394488 -1.5816092245690119
Ni 7.664003498684684 2.615182944818163 12.891789615459333 0.6361019778457239 0.24573626996369288 1.0515945627023697
