# total energy = -381173.82595984475 ev
CRYSTAL
PRIMVEC
9.21318091896587 0.00000000000000 0.00000000000000
0.00000000000000 9.21318091896587 0.00000000000000
0.00000000000000 0.00000000000000 13.48442155751545
PRIMCOORD
 96 1
Ni 2.496707571569722 1.5894395679300402 8.034463247894672 1.289563787126134 0.5323607935013155 -0.32389214963982926
Ni 9.002328185919112 5.1014857568250855 2.1948054484190047 0.5989377100906008 -0.8473633539609986 -0.5392246105006843
Ni 5.56328724364342 8.541623067645414 10.355092188559492 0.6067037271892648 0.9709398278637794 0.7496583485083412
Ni 0.4388219706499856 7.635018413041143 6.436586248761452 -1.1329987741124745 -0.8663437517182435 0.35144974754312375
Ni 1.39591670003005 6.568178113661025 8.315290219399532 0.26480948454506004 -0.05117780842539574 -0.8452450220664154
Ni 6.039986444215349 3.6069880195881847 3.56470136121697 0.5466072761180006 0.19448749909104568 -0.17685153117683736
Ni 2.560683900762654 7.491173017348567 5.700660379650217 1.3160032122645853 0.5742558910732046 -0.07851763389092929
Ni 8.21913409144435 4.2974975127264115 4.438559606424577 0.19322971542454462 0.8966352036129331 -1.3771849259802282
Ni 6.6246088475761615 6.112208570445676 3.684807153304789 2.23232432434222 -0.6647057576253456 -0.3219334832515617
Ni 1.7879191272335149 3.942891387394219 10.905579756139803 -0.5368278281337335 -3.110246267816366 0.17785374718910657
Ni 0.01666295924227194 8.799582923790704 4.4136130761026156 2.4433023648891212 1.6166266211844609 -1.0503416641318748
Ni 8.224053930123645 5.694667205378904 7.9111079668514455 0.5735262119960316 -0.32346457518410743 -0.5236159574291498
Ni 3.676483044228491 7.182531452261698 12.09965224314788 1.4820000601151058 0.6322478942069563 -1.208111238976597
Ni 4.824436189549647 3.2305005892684897 1.4245079647743508 0.5690573775914006 0.4283437297877011 0.8580732841793351
Ni 1.613495183644721 3.163456270786784 13.34311843638711 -0.0635656405667873 -0.24949033768948642 0.5057467904582129
Ni 7.801371610032441 1.3600037203074047 3.525664191801162 -0.40171018636057265 1.1749077556414347 0.4693204293103789
Ni 6.715837766307211 3.906692799059105 8.448744989506885 -1.4943722085272135 -0.25879978801587045 0.37176274806886295
Ni 9.338756705044846 2.3766137566172647 5.176979483645333 0.05748703847287519 -0.8058521220910896 -1.8662064332639603
Ni 8.184787352499757 2.754363392740449 11.20369341924384 0.32999312033124456 -0.16764981007291127 -0.8016334560240518
Ni 8.830373374851012 1.5275914835590507 13.082505184100178 -2.405353396449174 0.9364554209336646 0.26300636989805026
Ni 1.9101872529131514 7.278772341482518 0.2038794047153378 0.08989245138677422 -0.22679855251892556 0.4140993040535449
Ni 4.783409894345711 5.841829346248533 0.33982634029600356 -0.41725199074991365 0.022618508730464268 0.5231593295077055
Ni 8.60540592003635 0.2795841133815706 1.649751815020433 -0.3133238872056797 -0.024949213746169936 -0.15514576406862957
Ni 6.833416382833738 4.602545937204806 10.740948502686258 -0.2337770407192877 0.61416815388711 -0.7235521383395926
P 7.4041729487182595 0.7545392587812335 11.447653846787654 -0.4882730591534816 -1.468250314629181 0.21401348493911526
Ni 2.5531383054848584 4.446529929348656 1.908328954295897 0.09772428872636718 1.698517285312681 -1.777548111394603
P 5.865074202031045 6.000084157099193 7.81713536280449 -0.28625608445461026 -1.6087924698520228 1.0709876225170007
Ni 2.290101986582468 5.922675009939197 10.27642359955032 -0.6824977915014439 1.4486669931806149 -0.48228495989084685
P 2.6597071706597784 8.651941697506613 7.679095192489862 -0.19593014507484321 -0.7582933984755199 -0.466127633404694
P 5.847845553472465 -0.31281329346511705 5.978439630864608 -0.11767090705162314 2.001036625703689 -0.5081381735085249
P 6.47437871741776 9.551581187239073 1.8318180922880196 -0.7443271661034149 -0.9425700184718347 0.009631609552493089
Ni 0.48279095588045046 2.3120754233804433 2.0058486330460905 0.49515538809561177 0.8821629781386872 0.5951041952771234
Ni 8.148874372777113 0.27544094586456863 6.706706582571163 -1.338572870034985 -0.10994139961784936 -0.7896156056275693
Ni 3.5915835808769834 6.028313343828332 7.193439858621784 0.2640990887415967 -1.5291947155230374 0.21416672268752796
Ni 0.8399565029076028 5.061205729285987 6.21093793986739 0.03669015633218197 1.4857487285242605 -1.7219678030261374
Ni 6.520011603145379 2.2987531635859475 5.440654275994307 -0.6220329013471675 -0.9180918308248124 0.2547616133907548
Ni 6.9525151742330795 7.168601122518076 6.418058541675192 1.3351288773504426 0.5459837836013888 -0.7139403262814413
Ni 4.553826635826318 5.394243797786289 3.0504731889666865 -1.4200899528738704 -0.2247658383596129 -0.09275948852192412
Ni 7.925832472801352 6.186844550110415 13.243724796611883 -0.2562523390036684 -0.261016336051215 0.8799322890359556
Ni 4.4151498347013165 3.7675829784248775 6.422549046117679 1.2376922950678233 -0.3132796642313056 1.4915031145095345
Ni 3.169325067113958 4.038690043924764 8.77737455087602 0.3637103100780317 -0.06021060805162534 -0.024372515307093508
Ni 1.543346023150052 0.638857636232361 6.144055773372117 -0.22739479134202772 -0.5386291430085305 -1.0704011538859113
Ni 3.842808601676647 2.883780946912845 4.354914978331721 -0.4539786567469859 0.24978704299429888 -1.1149270042124282
Ni 0.7736777997709334 6.1635812679658075 11.932796006471396 -1.0419249008230895 0.3182840594244325 -0.8790889671990537
Ni 3.087880546655214 5.007971969194288 12.371107566891354 -0.8744890065331972 0.11264877124668342 2.2578780044416087
Ni 7.066344026073326 8.404945526807692 4.184283180062025 -1.0002213504367161 0.3661927101802532 -0.5412465260267194
Ni 0.287882425550936 9.025849437133044 10.860312633699765 -1.060415503428109 -0.8374296397870546 -1.2920994090637943
Ni 5.333528934684126 7.49186400592712 1.8914061833480893 0.5300858814242096 0.7906435326714513 0.6316493413910089
Ni 2.86457146442908 2.1787699068060586 2.1711810095773405 -0.1501007454455544 -0.9495173963239453 -0.171320316945963
Ni 3.3793211027266445 0.10728012275177647 3.9032139018956187 -1.2619714793301622 0.01250610288681072 -0.1406599117476287
Ni 6.293367349380097 1.6642413848536306 13.612793773552236 -0.40644564416302903 -0.5500409843898979 -0.8535694827717105
Ni 4.368835173576191 3.8625524486611593 11.007522683110839 0.03349530354396812 0.4074010660977629 -1.953405396978971
Ni 4.118614389510691 0.4225883456445211 1.287710652583013 0.5523210386733262 -0.28255035346824886 -0.04462226669506509
Ni 8.037109273491478 3.592348274903915 6.601501268191255 0.318908837492625 0.7061989917731257 1.3692515300657644
Ni 5.311831893317572 1.2931805181708358 3.394311869608819 0.7931341603037888 -0.3646125101773269 -0.10329278395308017
Ni 7.202579334220775 7.568895412664173 8.999853525489787 -0.23291520693962467 0.5906423028510279 -0.9558289403642699
P 1.719345420697946 1.5608879198642427 3.9011510706591124 -0.1700404217922749 -0.025543652797059238 0.2628320491037151
Ni 1.514573258739118 6.251124914277909 3.9788891283824994 0.19153407288967658 1.0951963585527202 -0.7970838889801563
P 8.683469203050711 6.805795266053725 4.6840429727955195 -0.9705197096072254 -2.0075628568579815 -0.4148012152165759
Ni 0.44260306015182593 8.858482790226535 8.5639291002792 0.8540248251415744 -0.36699900813163244 -0.6993416025316601
P 3.1290174000317177 6.932927951326372 2.073041283742659 0.45917588467720916 0.10423483615137533 0.2320052935308456
P 0.006086227399892096 2.016028276785329 7.237655757104317 1.3188229411015675 -0.5815722222289598 2.478640378068783
P 5.781464584026169 6.092520002547448 11.864376160059317 -0.4340765185064202 1.2341757972741325 -0.03361871649570984
Ni 7.836667306624912 1.1169323647346632 9.08287718518005 0.4323214834885264 -0.14716197453220464 1.5140712296180376
Ni 3.307485930100307 1.5044387595870117 10.227286941070387 0.6964887064638973 0.103486388021125 0.6819437187701869
Ni 7.555757416490625 7.480706843678756 11.386029642716116 0.7021070810919392 -0.40448029290654214 -1.7556325422684345
Ni 1.3528911445388359 1.6365097099010493 11.565439759887747 1.2994530212153879 0.4385921469885866 0.9734314839373814
Ni 4.84914594111869 7.926615593190378 7.681468507927663 0.406001614647075 1.3239895729041715 0.2638658896848681
Ni 1.337523558551824 4.0230184229631885 3.7493298241338295 0.2532598320342477 -1.8478916941151726 1.333636094855
Ni 5.676793634147008 2.103350806752294 11.276037159463995 0.8465691401944775 -1.310348327971653 -1.0582213239902678
Ni 8.140997102981611 7.222793053438702 1.9170934534262596 -0.3488159094647025 0.4595492088562279 0.3053652944802354
Ni 6.703003805108226 4.875873379337109 1.4709884631583285 -0.9912541139410992 2.9042661947046886 0.933634920765734
Ni 0.7846543836707692 2.0479888018386525 9.417452933597158 -0.568308672350834 -0.029357113005878472 0.6314241127540802
Ni 9.026061340297133 8.445446670691927 13.000344799474053 -0.32436728950403493 -1.3838880490320167 1.1936490408046796
Ni 6.216603124893417 8.289513581465203 13.015959298713135 -0.07146535502983821 -0.08832202157586079 1.1841094767453606
Ni 4.365859316097891 5.920353288315259 9.859916874715168 3.25303171054743 0.8110534637863709 -0.9443291672547866
Ni 0.9819316228475622 3.910230660581295 8.098703074065558 0.09126413492332025 -0.38130514034165947 -0.6530123804478173
Ni 9.014968670316101 4.5241233401295995 9.885335119906756 -0.4485351171339114 0.2923169459367095 0.613502238168337
Ni 6.431132045581409 4.972620993515532 5.786853373620776 -1.1767419806366959 -0.2804567041640138 0.42591326596933743
Ni 1.4933460896059794 8.378494484020694 2.272300278162741 0.20902888724033034 -0.20765463260062303 1.12277221128846
Ni 4.395857433588126 0.30710204253385287 12.413300250815887 -1.6693514623820025 0.6230343460284883 -0.6900632625535277
Ni 6.050544749695634 1.1686367367724992 7.8266958807773435 -1.6938535612884245 0.37175991985538553 -0.8031390940353006
Ni 6.0474491208637176 4.095065498753616 12.825869262071393 -1.1679711764226015 -0.5619277085251548 0.66007982881756
Ni 1.4145918180130674 0.7022876237891837 0.44235061899112804 3.223617004830739 -0.6487883150641407 0.08560359420343322
Ni 4.948583804162946 7.503721369935084 4.38170875145368 -1.6547352551307246 0.20920295092434937 1.0084524800972565
Ni 7.462667435188007 2.9288057626913377 1.6232003485600197 0.08669811281919262 -2.343143498579332 2.0580575231734235
Ni 8.231166505892213 3.8500501619798793 13.302098590409908 2.559111279031341 0.477918455392035 -0.7606783537679287
Ni 2.2684602243021974 3.0934268816457307 6.0807188389438735 -0.556381581895945 -0.05740013518602373 0.19897355988685733
P 3.432490370551012 5.135021735837509 5.0647352989452346 -0.9957332327583756 0.40323382209395076 -0.06497331954759132
Ni 3.941398852064545 2.677792645055764 12.90124782412855 -0.8655744776523867 -0.941065151791534 0.22141029162381867
P 4.816641838383572 2.6657049515216156 9.041588314316265 0.34873851925954774 -0.5065631157119211 -0.09909880047639062
Ni 3.432315320111112 8.190619296102742 9.649977960824977 -1.7865680555050263 0.16409217462863998 0.5016245407597232
P -0.16203313639818692 6.683407369020472 9.804940902087413 -0.026550753905334918 0.8738907108275661 0.35868406050803386
P 0.9976861624385636 5.129401695398614 0.28558834347014106 -0.7406792849381825 0.2566632012888418 0.9095758229340012
P 2.208758811115245 8.700191126651685 11.761328572680702 0.7093858741415395 0.9520584175782442 0.48330543073556115
Ni 4.132784261961545 1.0271130627038607 6.082364313078933 -0.0697530003244218 0.12627716066339542 0.15309273819434277
