# total energy = -340865.3293693179 ev
CRYSTAL
PRIMVEC
9.29371988617883 0.00000000000000 0.00000000000000
0.00000000000000 9.29371988617883 0.00000000000000
0.00000000000000 0.00000000000000 13.60229847702505
PRIMCOORD
 96 1
Ni 7.953360858942849 1.7975355023984867 0.12188434577282634 1.1473429586492885 -0.1507589478548436 -0.4924161347875777
Ni 7.9487697614101736 5.399706909047614 3.815036621442448 -0.2193305262766545 0.5470248232713935 -0.061120521460404406
Ni 6.282796155109968 6.734954206040569 10.541794696078025 -1.4190278301579433 1.9628261760722392 0.605538246126254
Ni 4.093344492887765 6.026865701962576 5.172599998183297 -0.4200372668045346 -0.9047670886914482 1.0963297008262152
Ni 9.130717151922402 9.001376454832844 9.713509585725047 0.9660382767971041 -0.5736959048046766 -0.08274452748808331
Ni 7.801873227803968 5.450088163550919 6.629188887718495 -0.8644311080765629 -0.09829790184165006 -0.7963616661021511
Ni 7.152511738521473 8.214058990297248 8.715957958443703 -0.9177141357704195 0.5269715041649441 -0.01002164590206016
Ni 5.483545554477296 4.028539385407311 5.515187881945919 1.1183720253382352 0.2822981282481267 0.8486028827950546
Ni 4.296598142765514 4.752166988826665 12.588763412180393 -0.6277428072477511 -1.8804871115526904 -1.9046138293975652
Ni 3.420507067638594 3.376036618865616 9.250419332309253 -0.09016498832187052 0.6434573897695305 -0.2812511750408511
Ni 5.494735192998229 6.592016797027318 7.276793863977356 4.773310611638077 0.8786925030915835 -2.50795841030661
Ni 0.12569848833843347 1.5705549861221146 5.439762840962249 -0.38588376085127735 -0.2255875629299599 -0.05967016216712304
Ni 1.2250237813299416 7.6067701701046735 1.5294832506440743 -0.7165037161332435 -1.1073605047190798 -0.31251887480588114
Ni 0.37531292957650064 3.2906645096851403 12.105501140151903 0.9795807913682291 -1.3783138973783489 1.674713240914548
Ni 1.2641689287138043 1.3508142774934226 13.474790403040476 -0.2488503901126424 -0.7606860670774126 0.9943700338622617
Ni 9.076042198916879 8.209644473438907 13.12850268946458 -0.8513061406588307 0.13258407671802974 0.25240956821881044
Ni 7.292651737904489 0.18999801746711167 11.287078525146446 1.6945439024872302 -1.259652344278682 -0.5270216406765892
Ni 4.447518857002586 3.49843490733795 1.1948108279514518 -0.08909540940677559 0.9851785971709808 -1.1370264072146288
Ni 3.5919854898559853 1.361790160461215 0.14407681904868716 1.9547763091845693 -1.1458491477125814 0.6667333295783356
Ni 2.1979647094690256 0.3271826139849649 1.933403178834599 -0.9194275189171004 -0.5183107431661526 0.1195025609437232
Ni 4.600623595369575 7.152771962673122 11.998750687541442 -1.3587069217806989 0.8710802379619643 0.35769958510757754
Ni 4.575019397591193 8.020099060121272 8.879226308676548 -0.481235692690726 -0.3106913346788391 0.5408328355280685
Ni 4.699239255125074 1.9326754805819502 4.873077352774746 -0.21704918644164556 -0.13478854056851625 0.037495940062928966
Ni 5.5770403746771215 2.59344036393852 7.97623827936073 -1.3511946725640536 1.2083020148311643 -0.3662744712607821
P 5.397727346751136 9.188747137740265 2.5904217637793843 -0.02614837626059368 -0.3350214267837714 3.028353546805617
P 9.27092220734333 0.5100690771362808 1.5354953579191506 0.25690822742011243 -0.33084492680857863 -0.3303990975204116
P 8.630436220376028 7.507513243689751 3.655712525851034 -1.144938205862538 -0.9791658153179974 -0.4976177335931753
P 5.393192011536671 -0.01440061867789537 10.263777718059371 0.27467737847807533 0.9797000905549128 -0.33187156830088005
P 8.291670843526745 7.239240730778407 10.80399283379229 0.985600772310064 0.7965100187545573 0.033360577738316737
P 2.538449424463136 3.1126711899568074 13.449871152404118 -0.1617974650571923 1.726823588456542 -0.4182920019786538
P 2.885644205081926 6.451179768666669 9.970797851320867 0.49074157529863227 0.49225929749473935 1.289465828095689
P 7.1296863629339216 2.3688297461860994 4.665057883433928 -0.0010428394422175586 0.5949108483193948 0.4283234180727269
Ni 7.581695714349293 5.831251489679684 9.006584655353718 0.11856076585574418 -1.0903853103173222 -1.014163157328789
Ni 2.0362725740976 5.22417642504025 13.380390374541701 0.3835168032809975 -0.14829043170969297 2.5985394031199767
Ni 6.75846731688605 1.1685365529825729 6.409960263045371 0.7706555195852985 -0.8182204138484553 -0.12968592923462827
Ni 0.7201034249084424 6.29460847285092 9.611982203586983 0.4028432715237513 0.06890685027404261 -0.5029604859623273
Ni 0.2636024187612038 6.606440650004468 5.488146875101644 -0.491301047346528 0.38645917373877314 -2.4599556571750862
Ni 3.47498685253038 2.2903628707440404 11.599631894948851 -1.8640893869209574 0.3820566737957033 -0.7033862049146788
Ni 1.1144099294394538 6.666022687012528 11.749121376351852 0.46628241381500335 1.5579288502329363 2.069462422576255
Ni 7.2341384786621346 4.593290850524877 13.193590326023969 -0.15965933566826696 -0.41715660282262995 0.4045797945988839
Ni 3.835183547011949 5.82026631299219 8.07527680336266 -3.275843823345939 -0.3599757827362639 3.9447685041486387
Ni 0.724765154710851 8.906218058806402 3.9963282822929402 1.4260757381436602 1.1366780227362745 -0.26577904754718096
Ni 6.4126294193437205 4.594257397373861 10.948598465492006 -0.5266969103473187 -2.04022795119117 -0.08510042931476956
Ni 6.062209717988415 1.5738263754571382 1.5456701222486504 -0.7396683271751648 1.6620613564784925 -1.025124284325983
Ni 5.657635511930886 3.294140360853603 3.2148212513148913 1.1037730444781377 1.1254001358296102 -0.12458588900390158
Ni 0.7519158274476071 1.368751156517842 8.243890901167966 -0.9635057401832373 0.8792622595521243 -2.355294017898937
Ni 4.345557458154448 8.379078277321907 0.9798591730850827 0.4860379991753759 -1.3028684746548402 -0.2533387649012992
Ni 2.063930683930073 8.206819182649568 8.755880990166602 0.33043226475119225 0.031798889678151684 -1.4775543656389263
Ni 1.1286107331437611 5.258814118368753 2.6318132032151653 0.4446512086984729 0.2664966424394959 -0.511505547318861
Ni 1.5721720933502228 2.7469261448132807 1.8665478767879333 -0.3465361122915903 0.747308617329242 0.6061344849493561
Ni 5.398396494569663 5.901865171973746 0.41027404435062564 1.0265353057408966 2.0551349502099896 1.8626963632281728
Ni 8.839498445067385 5.087623801462117 11.375016630336582 -2.235369281816131 1.0668944262842335 -1.4253661136711453
Ni 8.831803245154317 3.8983529598248916 1.190368429934005 0.05025478239049409 0.9254955794880513 0.5924315335409668
Ni 7.324845182951427 0.07930795707506946 4.223377572095105 -0.15762996394306403 -0.0928438207056143 -0.9568807786675521
Ni 1.7966804801859235 6.154412711149693 7.039747319891995 1.4495702217211746 -0.5277076110000203 -0.15849822548063028
Ni 0.33998843036203624 3.863315636549212 4.478352630857154 -0.1910486486128258 -1.011731922179477 -2.122536933803732
P 3.625173362911012 2.2112082600440504 6.944408625703339 -0.361501475352171 -0.21609325028627943 0.24751727312351565
P 6.683522761210964 5.048432185479746 2.0952031213545648 0.11300435481388925 -1.5603744835599516 -1.6198996355087778
P 5.45098965436199 4.6477613416969605 8.869133329080423 0.954035338798957 -0.3423567841029201 0.45569126856271847
P 1.9602778280962123 1.8145151282936236 3.8245041337026433 -0.5324872917768507 0.28443085832041337 0.5469626025748903
P 2.9209324587895535 8.655789487722462 13.063389030490027 -0.9365690636933934 0.7203832536933077 -0.7503967693362625
P 9.36444490870226 5.033125429130927 8.042249711658474 -0.4847354783138684 -0.06458739696308231 -1.9438596622720654
P 1.9955846692432433 5.255775072026274 4.8669026054048885 -0.5573336613965693 0.577519906536457 0.5577380959238394
P 8.617592299748178 0.06402257628156542 7.12731832315391 0.7371620158135433 0.7852303320756799 0.3293130635450845
Ni 5.441891102773956 0.41318948422107143 12.37720768249305 -2.178133183011797 0.5220390998603333 1.904320466526862
Ni 0.8081437610152966 3.8175719481770916 9.476244639226696 -0.029163251827517517 -2.428145711753341 0.9756184642863716
Ni 7.118729067405532 8.120489820339811 6.300543442252471 -0.17971162633345178 -1.5975089265184035 -0.9478063271701096
Ni 5.14559802496177 6.335919056925295 2.8584005951481526 -0.6577156994607576 0.5174710208736765 0.5390312635429556
Ni 5.329808843170588 2.2285782221666617 10.39873925682456 1.0968434072378401 0.23803555888532552 0.6866352107085852
Ni 2.222416486004387 8.56330768297013 10.990792882310021 0.25406792975783987 0.9517151753062126 0.9208058873218659
Ni 2.662975974747176 7.010940506304383 3.6367105865487916 -0.5983700105125889 0.48796889764950163 -1.0086825938301918
Ni 0.9379872483407202 3.7465958108146604 6.558511078758491 0.31390855606455614 -0.27646043852042707 2.2378524532493005
Ni 7.803072117645497 7.006321527612603 1.6667979592377524 1.217513763237419 -3.5305313889656484 0.408937043126315
Ni 8.134997316794276 2.0524622338180865 2.7591585386847526 0.6380459889459722 0.028285220097938383 -0.04982695082445612
Ni 4.680410179009285 0.40713462583536714 6.63325581945999 -0.7739177352763381 -0.712833723480824 1.1171090994654116
Ni 1.68614097805305 9.079369350570113 6.296068516216068 0.0742593728352076 -0.4957937930105591 0.38638512596772806
Ni 3.5517622709867167 0.9885636709577623 8.907219921790254 0.6033440666884126 -0.2759513600944925 -0.19687939636198995
Ni 0.09966027384997947 1.030970913956947 11.689951051126581 0.19076068505876181 -0.29248072520808344 -2.3332750904256847
Ni 4.9312476737601045 8.184402730728895 4.857502937298516 2.458533580016579 -1.0918148436749968 -0.2671229631695851
Ni 3.871438347568561 1.6824327838920432 2.52409713312769 1.0022455799555965 0.8076020149026608 1.0330815914998466
Ni 7.81630637450082 2.962893603243053 7.071535558759935 1.3777878496715497 1.6243622992658215 0.005441225620229338
Ni 7.106275483005158 8.906273821124614 1.0844441890050311 0.08339475947757251 2.4338160226652406 0.41518379536697525
Ni 7.143775642001807 1.46672554961392 9.202661694877758 2.1361966906790113 -0.6416630168732692 -0.6600443475939343
Ni 3.143238234055935 3.932377267653078 3.6656019729856895 0.41263660346508935 -0.8893772364989393 -0.0726434344983394
Ni 3.281277852786351 4.234144346369608 6.789995331602342 -0.11540088007052385 -1.4137912643493522 -2.1699182513011728
Ni 2.237936997906346 4.6679194197301035 11.204893232451708 1.025478325231292 -0.3334967626091289 -1.3920225052136928
Ni 3.3185177876313507 0.10295396811228741 4.160956303718155 -1.9357776565948792 0.2656003558774716 -0.014823952386709955
Ni 9.337028435582035 7.370533109005337 7.6980028989290865 -1.9688754675901123 1.444190702576816 -0.0859056988248843
P 3.5459444024534075 7.9327473886443185 6.932642776560896 -0.5537343740810852 -1.1313872066509805 -0.7074454625857172
P 3.3096887539146675 6.315928265846784 1.3395818878618613 -0.21680930251669758 0.08533748502624014 0.7968686876455567
P 6.290807341492895 6.1171727763046935 5.117647162958691 -0.5598811104087712 0.5477174784630439 0.12308847852276866
P 6.505631672399351 7.833304587835361 13.051323923573186 -0.5616847392764134 -1.3218961807102523 -1.1527276199999696
P 6.1070054469509545 2.5697042038201947 12.9203605430237 -1.1869322909061366 0.6496267518050362 0.09843956962583691
P -0.029318897543179425 5.794188135509018 13.534368722560657 -0.8934241528748033 0.38867212222969194 0.44300390290303704
P 1.7745242524168996 1.486976564844081 9.975190992623896 0.267542567205507 0.12187183250684817 2.7955933773866173
P 7.933044787674776 2.913385958391715 10.69709182292266 0.6872936702281905 0.11785319826575832 -0.01478590005992292
