# total energy = -340890.25513857405 ev
CRYSTAL
PRIMVEC
9.10175680445887 0.00000000000000 0.00000000000000
0.00000000000000 9.10175680445887 0.00000000000000
0.00000000000000 0.00000000000000 13.32134110300535
PRIMCOORD
 96 1
Ni 6.729547843846788 2.020326095322648 11.604194025213458 -1.446747921781031 -1.1392013033787607 -1.2481541138310956
Ni 4.818142474126701 0.6741480247228168 5.872819484577735 -1.6725200899179713 -1.7517033824173573 -0.35845703209889235
Ni 2.6229170169607503 1.570763013540471 4.857586758286794 1.190224845614479 -0.8777401664806431 -0.3277462332785968
Ni 3.685720076030314 4.299014663859493 5.190447112261162 0.17437093084682873 0.5017037307370908 -0.6470888158745307
Ni 5.318220307065745 4.367314248126362 2.552249155531536 0.29264656136198636 -0.5359688225675479 0.9540628496027825
Ni 7.1295882659813055 6.118974681350204 2.543190176824071 1.749350823024781 -0.7338080117396459 0.6324857212493753
Ni 5.033653875548733 4.551278959907006 11.553039420541939 0.047205968261841286 -0.10993934273532033 0.852376490904874
Ni 5.798010323729353 8.00591452834783 12.379149469380057 -0.5864665742067835 0.1394005854192309 0.3524151967801866
Ni 2.0653524870294975 6.296213194733565 0.38122982101453656 -0.7313636639642113 0.36038921612459873 -0.7268704040795482
Ni 2.53125322256421 1.4427468018249179 0.4135492498222691 0.46028634413256864 -0.3273808795193781 0.4235995302344963
Ni 0.43116661060411227 8.901700347105955 4.766629260230753 1.1218494423638745 1.4699349014204555 0.23466869929562167
Ni 8.754588649277409 2.2483706160857606 1.2725184616561553 0.9458625731801774 0.3029276315730202 0.2567565323335965
Ni 7.005940897609048 0.5099477781921067 4.952461652540657 0.19304485310724817 0.460739115399271 -0.960180018244114
Ni 0.5261889533208115 7.190433511293675 2.165663860718675 0.9371812433560955 0.03579335554952545 1.2508576288051876
Ni 7.685286935734692 3.830456215290942 3.9878902156937213 0.556349443106429 0.10200671815180497 -0.6227700366235082
Ni 7.413890746546326 3.859581837579585 12.713515253956468 1.8154878238631702 0.7896778263240722 0.5958400450018835
Ni 8.067114742181843 8.791032084166075 7.037757909432303 -0.9427751925041052 0.44052304546271226 0.18556114313569333
Ni 6.890940198353734 0.5859055807694957 0.49408978703163686 0.6596023749605092 1.3697716642352924 -1.5616037279813622
Ni 1.8173478132416985 6.769659286792429 9.33077355360807 0.22921436104926976 -1.2784774474049854 -0.5220303581095848
Ni 0.2770611227235068 4.86787447418456 1.2197901632053525 -1.0615316193104234 -0.4033556923837957 -0.18131290938230066
Ni 6.380131393952719 2.013354149487304 6.818887959690112 1.1176492882395976 0.534667330147305 1.5741630527036117
Ni 3.6700195452653426 4.4479922218659045 0.9970628888613099 -0.3298702216001351 -0.04518919494212863 -2.062487276810003
Ni 5.991832238303311 5.465131766241055 4.626462202966657 -0.46759521908915597 0.6038441462532828 1.7343643769182775
Ni 5.3028474395515195 2.7589973853474716 9.421185856421896 0.1860062010929119 0.748042410171473 -0.20345036471128833
P 0.21665276174546724 5.585029210743648 12.359833720748505 0.1430716065129149 -0.01405159299705967 0.10850029629594862
P 4.171134978498419 6.301082634709948 12.583219052121132 -0.4990935468077533 -0.9685785267204544 -1.082962792601006
P 2.3928974149361886 8.420126386077166 1.542651326977751 -0.46072600277314846 -0.21953441475734453 -1.0039635910879676
P 6.237015367431898 7.7775878531187965 5.998853333626267 0.5850861489194892 0.03333203849322647 -0.3375755606641928
P 4.873754209184081 1.105927183570687 12.76542803498319 -0.6284719721042918 -0.32295241143437925 -1.139277922252967
P 3.8440724437108824 6.363502483977296 8.363417889305481 -0.3719900335883206 -0.24461141233063033 -0.23490601211740833
P 4.7872329074728786 0.9526262910058052 3.6268016726674785 0.9878669426364212 0.8565380784817314 1.5414941017156807
P 0.012486700380559353 5.5301274127295565 3.611135728578974 0.9725058867993185 0.6661535458154657 0.35540384709486533
Ni 1.5313159988532896 0.9384821606818827 2.7385876055287044 -0.9423915839124414 -0.2936942859002103 -0.48677796266519385
Ni 1.9368629839517537 6.89098570713856 4.535024132142853 -1.052501133677039 -1.4971919373641958 0.8360556422576634
Ni 5.643316862348796 5.509839596454123 9.486672997786517 0.430737169720542 0.5490930186543318 -0.38447222521573143
Ni 8.834201717452023 2.165626543515118 10.10013414776816 0.5276140228449494 0.5759546189318661 0.0006790283448956047
Ni 2.1017868201611973 5.403157903065001 7.132046650537606 1.6849650005495431 -0.046909520067345015 -0.06552919205106135
Ni 0.7980811882637806 -0.08439422110843393 8.957110023158705 -1.1814576409448105 1.088661642757996 -0.4831946161893097
Ni 1.5715457646394784 0.9334579908370918 11.604846621187864 -0.870805901254655 1.0158942810872826 -0.18209066808858965
Ni 4.1569999499314605 6.995146213848321 1.2218116634273235 0.8438435137331983 1.0116383340244062 2.249081232085585
Ni 5.637100362341563 8.167006524874925 8.274404526537207 -1.3937446301111223 0.4017541522246307 -1.3114366759398253
Ni 5.519323627211862 2.8975079228439014 4.658019814716402 -0.32014245278940995 -0.5986613165007626 0.04596078300083052
Ni 0.58623142366885 7.2252386299286036 6.744142511140488 0.5325356285162828 0.3149010018848125 -0.14997064762559334
Ni 4.83458934896282 4.695195941040765 7.290290707310289 1.2708641538341015 0.5358610933450901 -0.3442393458376136
Ni 8.271740442273494 7.427152006444624 9.271733186701901 -0.42760788006294104 -0.8324532696183857 0.47392064708655157
Ni 4.641040487097819 0.754708585797508 10.490156266011079 0.6175684378179107 -1.254863150420155 0.8275689449428908
Ni 8.037597744343696 7.258514653393379 4.727184976070661 -0.698759504775945 -1.3976048843974769 0.003859997176038513
Ni 6.864372169772311 6.261144125146645 7.55550498316789 1.1964381735140426 -0.3988248943929777 -1.755945188412847
Ni 2.2012326167629843 5.11343077534872 2.6294866651382325 0.00549187635250667 1.2976835880197908 1.541928361039622
Ni 2.371863254589609 5.165729470870765 11.443538002844997 -0.04313205530278378 1.0189695775784966 0.5899123666635389
Ni 1.24818764493678 3.1386771771508344 3.743923081295686 -1.417503937314249 0.5960776149339864 0.0842797331856871
Ni 3.5353499492082276 2.3952183629623147 2.5011619038615587 1.1156109176533304 0.796813408927589 0.9457838974234422
Ni 1.1742176660805907 3.46371002013513 8.26120333823488 -1.0011857712325145 0.04228436259050782 0.20592170906991633
Ni 3.487711353252365 2.866161471855749 7.221645256278742 0.6529848696439916 0.3404976194069942 0.16938607603772762
Ni 4.100077561871093 7.055681999423873 6.140991831449026 0.12448175932586948 -0.18066087762059854 -0.12400661946166386
Ni 0.8515094118252073 7.537001111257636 11.495331550855475 0.18995824376212445 -0.7794998573498059 0.379342874408966
P 0.06326540248941616 5.651353713749069 8.13209309533211 -0.24406016781285061 0.002386755064621696 0.08313764916144392
P 8.753842305206264 1.616799700270458 7.848427737754652 -0.8082702446142789 -0.03311863693083974 1.093026604594911
P 1.740556289726297 3.3446135302454736 10.443545258416588 0.46721109627685986 -0.8495881295264593 -0.02837135205384146
P 3.957252791573158 5.958683639436048 3.8393568234272117 0.09101782324046906 1.0198229267177275 -0.8824355150737836
P 7.000825710194606 3.923931259323557 10.4383900232715 -0.8280104033556837 -0.23419664475520957 0.6754691667894367
P 6.335232426843382 7.80020571917732 10.243751681097764 2.3590380583224015 0.3383762021886173 0.8056292074470061
P 2.4504296207132246 8.607968446324985 5.880932790736515 -0.725736547585421 0.5531651318411764 -0.41837967659645364
P 7.350760960235692 3.957726082935349 1.620807203862236 -1.5622184787472257 0.15642925876674352 0.25463177268110987
Ni 5.437353203983261 2.9124439060237965 0.4173911014372804 -0.05270684347541245 0.049119640344786365 0.6618767728169827
Ni 1.6990158709371195 1.461669354555571 7.036465459943243 -1.2780380458747216 -1.4625226681167844 -0.14580134673925213
Ni 7.060251081420404 0.772479766272063 9.230050780504067 -0.1448919475511053 -0.03695677973000732 -0.2722289169375828
Ni 2.690725106351498 1.6127858254488043 9.425328976192455 -0.24936229675205443 1.0328877303214856 -0.3718450233700241
Ni 6.686159768393674 1.9223547833492234 2.597368385159431 -0.7187722004524459 0.5010257308334597 0.23363640137636535
Ni 4.312021074562765 7.362966416326027 10.377378215806667 -2.0000457225453294 -0.8644586188803887 0.2938439241041972
Ni 8.164203183729642 7.084170498724952 0.34759609850102907 0.15621122921866645 -0.9067697209437738 -1.499850200922649
Ni 7.333640555384148 3.995461967313072 8.28366283372221 1.3097490038247572 -0.41434304463323474 0.3195804096383528
Ni 3.074300450135967 8.328690135604756 12.570030606278555 0.6759221951664554 0.19876761452363834 -0.21316630644747162
Ni 9.04989515401336 4.697753534747987 10.151208656978387 0.25513313779756064 1.0030917300059758 0.7510146054259196
Ni 8.749591784703515 2.5334922547776495 5.830018472448876 0.12192531145260292 -1.2284152406412714 0.05545998074051739
Ni 3.592763832144716 2.7678260896037163 11.789493964740897 -0.34002633619753053 -0.6925351211327879 -0.28533254419907633
Ni 1.181617394493299 3.311264692724977 12.633640055181257 -0.8645817747218142 -0.047363062664995854 0.2170792683486326
Ni 3.038439527693075 8.74482246405375 8.065539228051167 1.041660077197477 -1.419970910797503 -0.8596280302609647
Ni 5.730311455422188 7.748607858941596 3.615439039272121 -0.341432729626754 0.6226617931804179 0.09512927430568134
Ni 3.373912085916456 8.356313967994142 3.534124852720711 0.1497482472021421 0.45343898219343204 -0.04539231209187022
Ni 3.452915336374401 4.321687140459809 9.451185247379199 -0.16451280710582636 0.16767680665610477 -0.748606253094743
Ni 7.060087249795031 5.94815290662731 11.570423776345471 1.1457581306606721 0.8217407682968879 -0.7872849006118635
Ni 0.42588395086150954 8.932973984038385 0.3517874575835041 0.9444548941993736 0.9623798541089104 -0.05071809518015781
Ni 4.715492859073164 0.4545481140720173 1.5663768768589406 -0.43642367858235803 -1.072154132021276 -0.6721974380167004
Ni 5.993534266855803 5.557323462541577 0.5687196432678031 -0.1856354480170545 0.24788288399305047 -1.6236657874194296
Ni 8.197533817736208 9.047665223556884 11.355604108452797 -0.9847579646937943 -0.9078233590192688 -0.43573436582481734
Ni 0.12384942737688406 4.820809288917506 5.901447240760381 -0.933097045984393 1.2756227515650096 -0.424112979535805
Ni 8.015826341682935 8.976007090969857 2.443799900939772 0.8496302956183045 -0.6842697958002022 1.0688500073487077
P 8.590010679832645 1.6063235780035117 3.6989904376855773 0.3844917655997572 -0.03887199447484918 0.2619205930330392
P 1.8279604618631229 3.239925121631731 1.5777131151590986 -0.4978061954548975 -0.34377294772415634 -1.1347399251732972
P 4.596123316474551 1.2028608952500783 8.028492346675709 0.9056086107561371 -0.10989820508473976 1.1231537629975945
P 8.645995586925597 1.6432949147961586 12.493606793744549 0.6219046032994192 0.2380522710558739 0.45542078851015116
P 6.489188645909758 7.813712726513679 1.3351576632663655 -2.09606896942019 -0.7329088969641442 0.897910213670615
P 1.8760632474242107 3.485080945489422 5.846870375469946 -0.9197131684783193 -0.7412307865662783 0.7539353786171403
P 6.940208008806367 4.052775730922943 6.205707143822999 -0.8658639838683474 0.39966770200924717 -1.4968137280891705
P 2.4386519472002544 8.637467240649203 10.245710379196675 0.7529958975220065 0.028298332724060942 1.3978694509127734
