# total energy = -340893.07478910906 ev
CRYSTAL
PRIMVEC
9.06919035821415 0.00000000000000 0.00000000000000

0.00000000000000 9.06919035821415 0.00000000000000

0.00000000000000 0.00000000000000 13.27367681706046

PRIMCOORD
 96 1
Ni 6.530569788638438 1.9912495697482548 11.47654071249155 0.39157181237499017 -0.29665054031505683 -0.25734120119247295
Ni 4.60484511910712 0.26406126673860286 5.87353596980987 -0.8472162868601731 0.48429247723917884 0.7322134135590165
Ni 2.4698307440662854 1.6197029798399534 4.454911450544289 1.0516554978472918 -1.2267517368959195 2.2493519692484676
Ni 3.3947430518481694 4.522995676275583 4.92375050059754 0.6485450887050831 -0.6142874530737936 -0.51299524449051
Ni 4.972165466316308 4.572504386349528 2.728298134202285 0.2825783784927069 -0.1398171041313592 -0.15303385993194935
Ni 7.243208627288469 6.082660616055173 2.6708493479844044 -0.7801768288121725 0.88808679982229 0.3696379884163763
Ni 5.132690135359877 4.218125773757581 11.700546993168128 0.459701418163376 0.493550248392021 -0.5621534513827158
Ni 5.832106094492083 7.6971578806391365 12.33001138027774 -0.13693721148040286 0.7324350426515192 0.6854699867558904
Ni 1.9115223174566154 6.411128551841612 0.629226774322664 0.1663765997874425 -0.09666756532707868 -1.6187467528512576
Ni 2.6410570577127594 1.4105130354241926 0.36941714401613035 0.5193576963734281 0.9177483314424646 -0.21286034517127855
Ni 0.37816256426238537 9.094221306786968 4.657640503760805 0.6617371619153248 0.04421706083684643 0.7580293461808558
Ni 8.348797345052613 2.3290134256346753 1.3700290766590182 1.70370885681595 1.0395921389248548 0.5555133203583787
Ni 6.935545414145304 0.996187074675297 4.916317392193692 -0.23657465806908293 -1.3860554889969807 -0.31150020373337967
Ni 1.0453058095645609 7.578360556356555 2.6309884425956875 -0.4916563738034177 -1.1121144744642977 0.7203847963552045
Ni 7.632848251927953 3.767532120833249 3.809120706982011 0.7122793936392507 0.441928153340355 1.5757368249486345
Ni 7.5983943978208055 3.809087150977748 12.540213446335606 1.1907596350720266 0.2617213325380396 0.5419144986280215
Ni 7.583965315987567 8.96923879469152 7.145565189477307 0.5440557133407403 -0.6894238291973158 -0.18798569341678592
Ni 6.840672613983451 0.8480790341281997 0.610022763774655 0.9947500429094996 -1.3598716315127615 -1.718673962766214
Ni 1.7352626031706402 6.662181878873481 9.244717265150967 1.1091355943416317 -0.9185895963968373 0.027560940337404145
Ni -0.15371914861134905 4.812538647116542 1.5396664681576708 2.073627609697539 -0.4369664384597055 -0.8521355785386615
Ni 6.414366252793508 2.013178871993868 6.9551276099305515 -0.8008191876528724 0.481595647133306 1.5411454601270103
Ni 3.646168215684037 4.125502132800408 0.4739667702723035 -1.7871064445069993 0.3822772744469416 0.5631965479352494
Ni 5.853844943740525 5.542018972230637 4.961726828233306 0.8534021039559109 0.6993346605531247 -1.1013765192215033
Ni 5.20703935777904 2.8890449984092195 9.485528755530243 -0.012189600087656426 0.040973614198884276 -0.42932280587151866
P 0.3241047483131708 5.544186508722242 12.507957963967224 -0.4201491097920506 0.42863657843777153 0.15239725478921495
P 4.096099817713444 5.877207178060087 12.666499201083118 -0.1317736650015924 1.7487365864795497 -0.5500227295574528
P 2.4305883574588547 8.488852851495542 1.2401065765845856 0.7635975842972526 -0.11196485780578137 0.6665929473457294
P 6.208024034144961 7.888399897369179 5.831152922587197 0.7090364612219208 -1.4134819606390494 -0.37077595867556146
P 4.838848368297073 1.2379172740361608 12.483600839467206 -0.971051156630663 -1.8509687903785994 1.2658409895878975
P 3.951010910631014 6.235494611689197 8.235453324922341 -0.46208071702883 0.9426083279089379 -0.22475298284380646
P 4.603883784930926 1.2019488651419916 3.938605165162952 0.05131561955484065 -0.8758169813160014 -1.2012854743040149
P 0.20891605486744905 5.522275344857312 3.6777906685665864 0.18169034732637743 0.15981128786509896 -0.4120971860218515
Ni 1.4535282052136642 0.9953617783542256 2.4202159244653445 -1.23272286687769 0.6314601081983383 0.25917696884963104
Ni 1.8834259657788202 6.426591521373775 4.86740452792518 -1.015895309528547 0.8691637376655419 -0.7664527943578606
Ni 5.836477444236659 5.608106162248743 9.307104225509764 1.3870191384618307 -0.40166236384177273 -0.4091000510667406
Ni 8.738409762121073 2.139784769160434 10.132049568915008 0.6253447393292197 1.4738463206597197 0.4494727984568324
Ni 2.225207472986501 5.190814576258195 7.005701042950582 -0.23199783733167786 0.7661239502635322 -0.07100538467428416
Ni 0.9024107396257259 0.02475798271310956 9.131970904664197 -1.2176883411420707 0.5089406148051622 -0.17852686199673126
Ni 1.4438604483096844 0.9084517273121621 11.371439679462618 0.34975436211857186 0.32765341645447443 0.5411202848615003
Ni 4.29659240859176 6.964539615666903 1.343163414110557 0.18962991388842823 -0.15009740301144472 0.486901889837568
Ni 5.435646438715834 8.084158370889261 8.19707976674962 0.1654990822784956 -0.9784813876564633 -0.10397746872493062
Ni 5.387434622860714 2.938762299861019 4.949276643732571 -0.6960073959521046 0.901513614751157 -0.014775101426645522
Ni 0.4429592084949045 7.6063934237019595 7.013252957747903 1.0478448658519504 -0.1719782622449361 -0.9176637421484583
Ni 5.06000964396354 4.789729633407809 7.046610346742771 -0.4939315429908397 -0.608149715607172 0.08110622055371193
Ni 8.371950987994321 7.339768296853831 9.16729268028702 -0.520469184270052 0.10344936413560248 0.7334976795880788
Ni 4.7218558128924375 0.4601462311109761 10.421627909598298 -0.29345440197526235 -1.401879857623747 0.6906805844225524
Ni 8.131381644997163 7.064482093229621 4.789355075846707 -0.5405942371547012 0.3842505961232286 0.6230050354524496
Ni 7.211638775709901 6.227568139330774 7.254608599547666 -0.1921123139906498 0.007253082017987509 -0.8797296861068463
Ni 2.243980696993291 5.193508125789604 2.627125874429266 -0.46198275799838506 -0.826575213571054 -0.17108686077891827
Ni 2.3800548288763257 5.34063760069886 11.257617713001352 0.1976882654165305 -0.42467862223128794 0.9160380336195773
Ni 1.0647320152759352 3.1778261572614976 3.6185371134707585 -1.0731280658987712 1.1297900373671899 -0.034246065667063605
Ni 3.624039391250913 2.5475174285310995 2.5375286222890328 -0.33700503287270345 0.4374009548939628 -0.5594036565517204
Ni 1.1157915568982681 3.268672236911748 8.141383148105707 -0.044983249578909625 0.12281671291862076 -0.059715670693077795
Ni 3.7676862970690532 2.6817233072037965 6.977387937623627 0.3243107252344866 -0.3689260499510162 0.08998655376247729
Ni 4.033903310351818 6.8725598872239715 5.749373312521289 0.37974139539896534 0.7898683450683235 0.7102988728741122
Ni 0.7468188032088685 7.463653436917963 11.520608815279664 0.8673858198295126 -0.37005142180471107 -0.027741431779326416
P 0.1904412072228923 5.690644863546231 8.072944317032063 -0.11949381919297487 -1.2765938572290272 -0.47569393693689044
P 8.627230557725303 1.6147784094845488 8.008115023714314 -0.2994054773523747 -0.2406372581742307 0.1554183010037259
P 1.9178435431246024 3.3698390551705626 10.210245034957977 -0.6800629568077062 -0.3579667227260351 1.0115671144668386
P 3.869025429944355 6.275798093566577 3.4869812522158314 0.6790383721979337 0.6914719699755962 1.3040221286433091
P 6.883125493971754 3.9928198781050734 10.396354796873794 1.3601539386398704 0.0964428509107823 -0.24037526276209573
P 6.558611725174185 7.8484319755344325 10.161968827851434 -1.5607544926071895 -0.4791551560126135 0.5585186828436058
P 2.2683496114407524 8.388728990125992 5.84774500631687 -0.3833203709994753 0.4221244883508666 -1.2837806047854536
P 6.9409959975405116 4.078968117158456 1.8319800766479417 -1.4567924505012266 -0.7662807875563705 -1.5758887771454666
Ni 5.429769603374577 2.7441828210853254 0.6166868048375486 0.38502861193983373 0.5475650120455795 -0.1216723149015324
Ni 1.5565542074924748 1.1000927884172276 6.996076818160241 -0.02263702067322553 0.28833353580892923 -0.8247543583122313
Ni 6.842277860673888 0.9207586186055025 9.325381364804876 -0.27469383353830756 -0.3696567574694537 -1.317865976504937
Ni 2.923117946522027 1.5840066466560276 9.280755506810765 -1.00723557697102 0.1952997105796959 0.004482718361701958
Ni 6.230914670566768 2.0817147434041643 2.77253945852592 0.11686280932803099 -0.4407225630680281 -0.15688048737154917
Ni 4.307557059714567 6.708969831844994 10.54057396860248 -0.941428962888856 1.437740576076098 0.39682817567792306
Ni 8.517937744920554 7.131666655279043 0.6837353290318483 -1.003830407944213 -1.3547589928765442 -0.631881512006473
Ni 7.779451713797405 3.816369710821928 8.155997241421911 -0.12290772997053026 0.46242653040402293 0.9658719264225688
Ni 3.4315276878730687 8.31920457696848 12.626532186167406 -0.06849367399602396 -0.022964579215973353 -1.5031725804276628
Ni 0.1400754586616798 4.878217723569283 10.295117238930317 -0.570517764187011 -0.6815541966412519 -0.5561679232232422
Ni 8.695512491806038 2.483851712334159 5.96731411869751 0.6435733465221045 0.030970994460217633 -0.5580114041898842
Ni 3.4203907221337744 2.6650994813079283 11.739305991930362 -0.7171441779307197 0.09839843197525634 -1.1381952307117493
Ni 1.0874775446522782 3.500226804709511 12.461646143488638 -0.1528649384542529 -0.9859962079762695 0.19006854408774362
Ni 2.9092420852996166 8.340798319171459 7.9037839649453705 1.5316429199532138 -0.23756144746238442 0.12516567276677154
Ni 5.693238651983884 8.14436872556611 3.569145395952217 -0.5123288145511048 -0.3898676851996899 0.420905785452417
Ni 3.14494127308342 8.483302507006577 3.4717831030416386 0.634734922294868 -0.5555701417382433 0.4469171219145142
Ni 3.332374229870055 4.271035430209569 8.868117322384412 0.5374294662734744 -0.034655899510972574 0.98102652267582
Ni 7.455355127755541 6.173932947651471 11.51472835226227 0.12950903733713182 -0.45604710924024033 -0.4830701747963036
Ni 0.5061732790128415 -0.027873249595395774 0.34494393387974215 0.08100183376536371 0.8645339522030142 -0.3323824464990276
Ni 4.8369710458963935 0.3075561966971369 1.4614184008107212 -1.798253976483387 0.15237951417740206 0.455298403999674
Ni 6.113069611270036 5.436607772892026 0.35546419467581786 -0.1171577148606305 0.9568625238351068 0.4216483200453964
Ni 8.08823950654291 8.991802940261033 11.160759667073757 0.2607150027607123 -0.2670643420175078 0.5611656335481497
Ni 0.015039438343217547 4.9558953388437565 5.838187893535056 -0.2834132156891764 -0.36083375986118504 0.2079423390443709
Ni 7.980824016138841 8.604276436971107 2.7260417196453335 0.16218981539960456 0.955563088297393 -0.029106944668285353
P 8.39090559580794 1.6021631657195996 3.498396642098608 1.160594681452872 0.17172063770817522 0.07314274273226114
P 1.6859534152842062 3.2468245573792083 1.3925016234060839 0.42220650654171155 -0.4575175231381798 0.30016061035084435
P 4.693768530404983 1.0549100821361508 8.196349696927134 0.8598231769909063 0.5735460094903735 -0.6909762612861003
P 8.517983090872262 1.5389781166107552 12.534359283970202 0.43455705768726444 1.213753781974355 -0.5715287219500287
P 6.547774042716157 7.859324073134507 1.3225772589545117 -1.2362326798031613 -1.0135746318151704 -0.13191970366115344
P 1.97477085089785 3.1831588411822676 5.934143555023676 -1.6384303473231137 0.20654314470399915 -0.16147582005171546
P 6.946999801546548 4.039417378079416 6.156451176349302 0.24615690244087926 0.3579793211315254 -0.796667370268028
P 2.6387806909370566 8.413778093849063 10.198351698744206 0.14878536906824052 0.6161548452998357 1.8855300732932365
