# total energy = -340878.06320184487 ev
CRYSTAL
PRIMVEC
9.16242933136279 0.00000000000000 0.00000000000000
0.00000000000000 9.16242933136279 0.00000000000000
0.00000000000000 0.00000000000000 13.41014147899830
PRIMCOORD
 96 1
Ni 4.43358040193714 4.448185314159803 3.296856444579805 -0.050104629965875 0.6859525828192639 0.32760148017061647
Ni 5.815796991130548 8.714881229758431 9.635977493416311 0.03024440070683824 -2.1486012349909513 0.1984616532474453
Ni 2.066027008893406 8.10743049541833 10.726020706236616 -0.8643264641778985 -1.3866206174718314 0.3613711204218938
Ni 7.040822944130727 4.1657167828470785 -0.002228302793319747 3.604655521774572 0.9964891370877935 -1.3761418294276944
Ni 5.842633746400423 1.782174950764106 9.8902743035176 1.0390064416247138 -0.6503626015297961 0.04092913411419403
Ni 1.4481494300681164 8.947716881830146 8.518523957255152 -0.5564245193187385 -0.12361684022241291 0.555611793609456
Ni 8.021816756517097 2.536178740939525 10.888243348573313 -0.3914437714375581 -0.336196420928479 0.4897355026316211
Ni 7.851551333785761 2.270559917015432 6.311067522962382 -0.23818339731709948 -0.9991139763051503 -0.2891784003077278
Ni 1.0102769362656876 1.6648592066618608 10.361761001505279 0.8158439431964788 0.6658758666740467 -0.9357841058982528
Ni 5.4850241328179 5.838941287413137 1.1106183639415177 0.6320764016260986 1.434561149906852 0.6383411515888877
Ni 2.720948289171787 6.076266529816788 1.5981805440462968 -0.10956036212934679 -0.407789045564801 1.2035161634067466
Ni 8.971044426697713 1.7110561749345508 4.05538739104708 -1.4519232953343832 1.0071800411427363 -0.6401923458650136
Ni 1.1903553207225392 5.255908427021215 9.12210081650884 -0.5565340483134092 0.7869974512784318 0.0964320522775049
Ni 2.536783461269949 2.062297900189125 7.72204222883915 1.5376716426457968 -1.309992744404447 0.5804944157837486
Ni 3.5427174060716826 5.025775691577909 13.034120928370424 1.148431820838093 0.7031041548978858 0.3150742942378832
Ni 0.06599331290775003 8.724281882167748 11.79514426059595 -0.03886839493042338 0.8590238210180626 0.15112275895216554
Ni 8.968460621649538 6.493010461771375 4.855677941301827 0.6546720275384273 -0.9416030265728752 0.8240704448713292
Ni 6.5134151917085585 5.4187247947732375 4.587113396374229 -0.23067294787266726 -1.379473979124721 1.021619613606834
Ni 6.158444357749703 1.7592505527834894 12.755967901233909 1.5344317955522606 -0.08558456804003971 0.9645025568788679
Ni 8.944473381876055 3.092832967524015 1.317216483616234 -2.173581816195689 1.1971894498577704 2.290960903038506
Ni 0.3743695291645156 6.253779434083963 11.765829984457188 1.2134336796307745 -0.43997925714410036 -0.18273730053365303
Ni 1.6416965855207741 4.000096711744908 11.312915530556927 1.0297404429417556 -0.30814619965948215 -0.8772038343611988
Ni 3.8631092320453875 2.756526001945062 10.665917002850025 -1.192084267420721 -0.42497866997021 -0.2533385077909831
Ni 7.841738372060246 4.872836422556143 10.214813044969334 1.3869340349471921 1.326165754619884 0.26666736368940525
P 0.22294572594051013 1.0584071771098842 1.7854935826380387 -0.7929279578302538 0.2911794898981566 -1.5295258736102109
P 2.1221377256133493 0.7663886457910865 11.871850285781454 0.15026503893756057 0.5126579157557494 1.4295665249057379
P 1.019384390939042 7.105060735594398 3.010228170388104 -0.025473718791072256 -0.03538583569846164 -0.057776287578519846
P 4.770501250275765 0.7040291523234293 8.054559613680778 -0.1044423241764911 -0.3009638229784301 -0.9485642883820568
P 7.230173706987412 4.255371153047053 2.441731503999479 -0.3065629143327624 -0.5920715790983868 0.07527495858391552
P 3.148751273229732 0.805805416419629 4.806543498211957 0.1954192668766957 0.10304312983611931 -0.5405150471773337
P 2.473177877424449 3.574895857593636 9.198887471071732 -0.22832604490704547 -0.17924934198505257 0.5728965488318327
P 7.436035167350521 6.8574644100027875 0.11340338681298728 -0.5951016241739622 -0.00297296658539488 -0.20380491983722965
Ni 5.41910045437244 3.528002544698033 1.1916774592631478 -2.5609658157415764 -2.078119841140937 1.7297394765517564
Ni 3.9502805839189237 4.759258949587428 8.004231306059785 1.031988615545984 0.4644492172610065 0.07834048488311669
Ni 4.251037324012348 0.8295296944736702 12.117591219450173 -1.1627703489479522 -1.7341319491924971 -0.18323146656125217
Ni 3.655094600808799 3.0004848431248794 5.613592256280654 -0.0625161162563504 -0.3707602749462776 -0.48532657493064796
Ni 6.979443830592697 0.27015880761689715 7.613567312719117 0.10902685822337997 -0.4578571658657857 -1.1177007103028234
Ni 6.315625831513684 7.789347601615335 4.213855269877599 -0.46616568573148104 -0.41805854581160906 2.306472368410544
Ni 7.8371113452895775 0.07296134035149866 0.3168423008827008 0.9494613462750294 0.01873511451565806 0.22573283025857252
Ni 5.65103818837777 5.798993095888161 12.16586805916235 0.6673588789774765 -0.45736479961039944 -0.9959877719713428
Ni 7.462010654271004 7.017495399263161 8.63775373282748 0.7688104959567598 1.9827200867826884 1.746448561776321
Ni 4.335175911804515 7.5339906984499505 11.080692845001957 -0.2774865657920963 -0.1371837802735702 0.10754076059615673
Ni 1.6066319687854342 0.26355086364262825 3.0897635537256507 1.258976144147264 -0.24798469967823744 0.9005540790513651
Ni 5.590657779627864 2.6174678132353013 7.431310102586891 0.6889412331339426 0.1887958480229071 0.6376610948027276
Ni 3.1140073415181013 7.090776508395443 8.778466656259583 0.2876665916488917 -0.33376749977201225 -0.2065763119347797
Ni 7.422300685906499 7.121269072935609 11.129720087669616 -0.6042580938622497 0.8812846892987918 0.2263208415515586
Ni 3.8688632376136636 8.064761062406445 1.0064607844835425 -0.006485864834659797 -1.1680477952968076 -2.5306874764730094
Ni 2.658588795704129 1.0929220480902933 0.9288036991420094 -0.819931483002291 -0.5975338877645386 -0.6537261186853903
Ni 0.6050575078203021 6.974010510048129 7.159983085240765 0.5853430021253015 -0.6765379743735832 0.3011188604990556
Ni 8.194830908023087 0.3980617387161858 9.616587044396972 1.1180148991091325 -0.9908730764525967 -0.2530500300162868
Ni 8.80178687118375 8.678423923777265 5.6351422898739445 -0.546618074751278 1.4283082270186045 0.6357250541222793
Ni 5.213458892311303 7.411021735501167 7.362703664857369 0.036880160855801 0.06647150135967261 -0.17820753098409955
Ni 0.527320709344304 1.9305879797369403 13.024519618760559 0.7689493355274692 -1.1239634033830836 -1.7093143759281855
Ni 8.52621764909541 4.4600506600370595 6.401317451063532 -0.19814206512449745 1.571391146385429 0.34590387802423006
Ni 3.659694140291721 5.183800108832784 10.652359356290503 -0.3001786080729734 0.6398007668535497 -0.7223030964238398
Ni 1.8427569329574867 3.004113165107423 3.520390398478091 2.132523098482166 -1.949177989161185 -0.43839134383169015
P 0.5929374464099263 3.861936441101535 4.861417286983306 -0.3369430692865165 0.5184069024243847 1.0668342624702596
P 9.24562410642718 0.9684962588909424 7.4838648805153545 -1.8601491713262868 -0.5483067753076105 0.3651637546951066
P 2.953683154521766 6.472156772800997 6.665081799307659 -1.4044285921875297 -0.0271261667928307 -0.12701378171910382
P 7.412551861185724 3.2860777628114604 8.835727257850257 0.556467456741532 -0.7928317985720217 -1.2300088103806364
P 7.072781497350707 0.16892862430392888 11.46690481397061 -0.1871817094582518 0.7060025594916035 0.1875414067905157
P 2.5611830103596303 6.777027443627154 12.517160177777795 -0.6624475577187882 1.2640664141859779 0.02876755905099562
P 5.3443075444140975 4.309731845780465 6.169416366775198 -0.05016427955921683 0.2556625279384694 -1.8102065208595728
P 7.390369619974264 7.202613119806879 6.515196367954534 0.14945359877985873 -0.4021932966445783 -1.1716941338001432
Ni 5.234624103876142 0.4214186033573482 5.841551663506134 -0.3605571091610307 0.5492951073628088 -0.6187313477777602
Ni 4.002524755495853 8.637128855152708 3.0852308999762457 -0.19667576499161613 1.478991355195769 2.7614388429920957
Ni 4.303144059150544 6.514248972770203 4.958466653830024 2.40127125596 1.368362956813224 2.1366029249784946
Ni 5.852620794281666 2.7385584781880716 4.364330761674348 0.8032128846960296 -0.23239944364547074 0.2948762220234535
Ni 6.369766625945125 8.20140953222376 1.9815759822638523 -1.2932155249461084 -0.08932320914686552 -1.5413511483799132
Ni 5.741993623531081 8.147442823948047 12.94014280780792 0.6227674655203468 0.6158324289634104 -0.3823847465590834
Ni 0.6949803371972675 4.8407770826144265 2.895397277098146 -1.0669167948817366 1.305385327539423 -0.21718494068856145
Ni 8.337434956852151 8.760638401427176 3.1907555138781487 1.0968308088323497 -0.6025197710149043 -0.805720995829864
Ni 1.4463444315060934 8.078596330572205 0.9207939034926668 -0.21989308364834387 0.739776570618255 -0.29437691378953174
Ni 3.1489528466732066 2.8670798732616576 12.919276291436594 0.09860386311784308 -1.5132420488485228 0.5277957998384523
Ni 0.46574368733449845 3.0186722651838416 8.05697391378785 -2.1797478357970848 -0.3081382292396822 1.606045503234505
Ni 3.091870912452886 8.83606351900369 6.764437349596313 0.6295731755882706 0.1869428539745684 0.9953784205221181
Ni 6.881524949210262 1.608876763951402 2.13123326912868 -0.1713712247885565 0.04262991885538465 0.26128424500062103
Ni 0.16220431747819958 6.192162097385463 0.9065243361805115 -1.2643602912773129 -0.00952053789592554 0.018398042891213478
Ni 1.4362291096153657 4.346830521809049 0.4231594649146293 0.010507070178910937 -0.3309835092689719 -0.7265143062917101
Ni 2.553669818375575 5.381507007164418 4.557557232103297 -3.051645941674654 -1.8845126877723155 -0.05658586681484448
Ni 1.2542999144502467 1.4209003654820436 5.815884034208412 1.1889593486384942 0.6117045228379658 -1.018718637909955
Ni 5.658707141659055 4.0163325363738664 9.843928903891081 -0.4939012039735365 1.7456067826013164 0.6525809493373536
Ni 3.4615566077853903 0.4972294592052385 9.660317486715872 0.21722453567724526 0.24894963469466802 0.6191563511303209
Ni 3.9399911758724677 1.9362137112957327 2.7621938806783994 0.7074855717950331 0.4662744433952034 0.8754688539479633
Ni 2.0981871355568615 7.864030562422692 4.889029183767632 -0.6651842399236608 -0.6727507394170091 -0.1992990615470761
Ni 6.609199227076012 5.278915286865072 7.746931051650719 -1.2620709810225037 -2.5402154705681026 -0.9536944105197703
Ni 7.804108275135229 6.404757943246474 2.9867338693082086 0.08035880086472612 -0.9147483682738762 -2.987151104425378
Ni 1.9133076381736136 4.301897968772701 6.92924837819581 -0.32769866787011304 1.5115600331604098 -1.8984606653119755
P 5.286135281113164 6.195955343094486 9.453465567750964 0.024526781496770664 1.121540652874204 -0.009500997511899768
P 6.801124632551624 0.6559822895853972 4.327398841858094 0.9786276834263405 2.4738411569079264 0.01207210067318566
P 0.2849304760518893 7.235524565668739 9.38034021991591 0.4481970170682023 0.6149947635534635 1.5527030830576225
P 8.944546681310046 4.126300012218535 12.12310333688628 -1.65403488662959 -0.32779508423866127 1.2096248474076459
P 5.267828747473965 3.629064139312823 12.241822765149447 -1.1430756987325024 0.6193455843229915 -0.9199453390937834
P 4.876473906967936 0.7981932701996863 1.1280627129883987 1.1289078918725524 0.21764028305842517 -0.21760248784195427
P 4.715260964334463 6.676286534036074 2.9689917413107403 0.5919846758115352 -0.3766563287157384 -1.8108989189409068
P 3.108665645266023 3.750429677143059 1.7361841371495155 -0.3480013839832071 -0.10686096092031273 -0.5112309535012356
