# total energy = -381175.9378592926 ev
CRYSTAL
PRIMVEC
9.13773539319584 0.00000000000000 0.00000000000000
0.00000000000000 9.13773539319584 0.00000000000000
0.00000000000000 0.00000000000000 13.37399940438870
PRIMCOORD
 96 1
Ni 1.1464750839030775 3.6806980117826935 3.7854566631456 -0.8164905756415423 2.9810958993702337 -1.5513010605037736
Ni 2.571376959180127 3.627141745808199 5.427516815318038 0.9971188002519924 -0.8892162854410428 1.1032120297683452
Ni 6.476927220891909 2.215242867712809 2.325270337188818 -0.9228792249111268 1.0141004224116534 -0.41588262120621283
Ni 6.929866479008911 6.6685820788596715 11.219781865071173 0.8247492161059086 0.03595970592406065 1.007868839679645
Ni 9.031719190694165 3.5533271209076758 10.041947901527884 1.0147935918239364 1.0249751603426283 -0.11053403889652577
Ni 4.940417047950215 6.784841483738274 2.643290935160211 -0.5229302442160348 0.6223051811719477 -0.32143623190016896
Ni 6.413438236761081 4.984945231552624 9.821824429561907 -0.0641096859957154 -0.5744623506570559 -0.39240510690956293
Ni 6.664095450879211 7.884668429473838 5.8531570895417095 -0.858519113467502 0.8949153927083491 1.3480689824508783
Ni 7.432341399614863 1.4867186538672998 9.502307070565669 -0.8080195620560534 0.5233398209496277 -0.778054640262847
Ni 1.3136408115497937 8.73279645927911 7.807633666690802 -2.678881234703838 -1.9493785352077653 2.6569777497625275
Ni 3.7492036125352595 0.6778207487987126 13.34549868599017 0.12346617357716157 0.4581315025730949 0.351744138855091
Ni 4.0101590542175005 3.124794753494969 12.089293109004904 -1.207211352870147 -1.7313014217222378 -0.006674326696382054
Ni 6.361115565037832 3.3661314777147915 8.015478763876036 -1.824883149035141 -0.137939170382356 1.14315488870987
Ni 4.9957643100228175 5.010137967483639 11.888602858476899 1.2017107347668916 2.264721252615687 -0.8895556710583324
Ni 6.028383213403424 5.924304409538982 7.690958494860852 -0.3203275722170225 1.2558517395856692 -1.3311248983973722
Ni 3.3665975022097063 2.7546068252986333 3.114576938000569 0.3677860228093021 0.15713374103293584 -0.4675049733681948
Ni 8.94289126686921 7.01343106736188 1.0509875786684293 -1.7064650794048482 -0.8951776452308002 1.445552101700717
Ni 8.142672382688282 1.2284497063322177 11.641972644258951 1.0229663574427157 2.709571464698843 -0.01682247087397748
Ni 0.11616894130017866 8.724462844781797 5.497756758210504 0.4366069982377577 -0.5821270662911652 -1.1140358598567266
Ni 6.594374531345787 0.7553946379582201 4.1383029974899666 -0.6786635053570182 0.596522930001521 0.5618009531393034
Ni 3.114971688160968 0.9993849604785017 8.287934045300455 0.3084385340889204 -0.1924121046192557 1.6155809535287662
Ni 4.21822528459444 4.818282079341601 8.661363128170251 -0.4727651933258697 0.7402825637203961 0.35253655284939933
Ni 4.17057199555554 1.1950512841966134 4.693256845090991 -0.7299127904502978 -0.19376399066145983 -0.008015671215624905
Ni 1.4536035015227222 6.44076920272759 4.93259880171787 0.7312032271269472 0.19958779643208852 0.035245710576171554
P 5.753803408546302 8.893154574205983 0.4807563515958546 -1.2106190930001148 -1.4859209924360668 -0.3090041767844033
Ni 2.7792238839124 5.594386480344454 6.90704224404029 -1.3702797142199625 -0.5850807496028504 0.4525462951758335
P 3.4388404366567897 6.566522714473196 10.408783194681387 -0.820231273630897 -0.549669459983092 -0.3598305154076512
Ni 1.867798762415384 8.309472600927222 10.18537013804542 0.49942316223303024 0.4257001215172669 -1.6439175956899303
P 8.648976014340697 0.6281151244351465 3.5314714858696625 0.4019037904286175 -0.41751912836837124 1.0664128586621247
P 5.698437871003312 2.309379815685722 11.196096855447236 2.008202033103877 -1.376274498350817 -0.4369584680399055
P 0.3939825906426051 1.768389341235291 13.276502388857667 -0.7451632888514651 0.897966520829847 1.2427434843384855
Ni 3.8185681603961 0.773414251761616 10.948918377117622 0.9553219188208644 -0.6300352028263537 -0.8863957852731121
Ni 4.414211429044356 7.696147814677763 12.108550885927144 0.2293938240499275 -0.390173903586199 0.21165732600211293
Ni 1.8167736490897437 1.457295146541268 11.579221989131831 -2.0948926897239017 -0.7880552031189848 1.1336027262450605
Ni 0.22959656204203138 4.4476555398559325 1.487068629125246 -0.20803618430975787 0.6282827389116211 0.6278127412537382
Ni 5.4894761425773195 3.1971290652939968 4.574108088343912 -0.2099886800504384 0.09297134742241407 -0.3149426537560253
Ni 5.931797352398406 6.633027151218184 0.3120573119835147 0.7474320302809837 0.9485298355996955 -0.6743170554628645
Ni 2.1077099999448765 6.305859680317176 2.6023794671477547 -0.22551634337239226 -1.289561987353921 -0.19197347441994034
Ni 4.320476541419998 6.8513824714240394 5.905503519376463 0.9128925460120602 1.1652769174198898 -0.8348451668893301
Ni 2.4558485731170774 8.5752801799977 6.0373838825699275 1.7622731875134037 0.04531980698272195 -1.156299396511628
Ni 6.661162237881802 1.6195721858589696 13.32621349586235 -0.5665981174176307 0.901521585170957 -0.12636843482562107
Ni 6.108868384995874 9.138648967939265 11.198035882855491 0.21134673674022955 0.7768806745594039 0.6548620320620463
Ni 1.6110832298633535 5.954605139443678 0.24459067172255483 -0.9340601812286107 -1.3450278816317094 0.5076974864266804
Ni 7.244707145132646 4.23995481888677 6.139066772266392 0.006144165224524902 -0.9469938585711433 -0.5539027813381492
Ni 7.851315696014206 8.311839274342576 12.760426863188341 -0.8711067203245256 -0.5972017012361005 1.1726698674498515
Ni 0.714795680489413 1.5457849741640295 9.13921550752132 0.8637140274048801 -1.2779220891221474 1.0623276328491575
Ni 0.7476367007781578 7.992374914210465 3.1073818853084827 -2.481624657508087 1.1234054739970847 -0.46734736474440797
Ni 8.13886194711221 0.45668207445263614 7.227509927496748 -0.20901371773167876 0.3029384302062976 1.5785915207886103
Ni 7.12724155920838 7.713847607749354 3.5161849686629174 0.8114848948968346 -1.3956343909346676 -0.2964857326024184
Ni 3.713429379249106 5.151663210174814 3.9009686012853004 -0.19291526950791935 0.16669387391754517 0.951586105927516
Ni 6.9721467797534915 5.62115090672891 2.083561707146583 1.9669250287319608 0.7921800239206357 1.3066598233764721
Ni 6.552432326803401 4.208009296647078 0.3706484700501346 -0.00721451547056822 -0.8704588023278814 -0.6454397103068819
Ni 1.6619438639554944 5.514714567184307 9.093409868538732 0.04466931788291662 0.8750639052000607 0.5945339245959502
Ni 5.288765789031889 7.463345735129529 9.745312345231993 0.37316605617429277 -0.8722228362068398 -0.7732973280835198
Ni 0.830430064280718 8.925374228501507 0.6058409811252287 0.0354547412631841 0.5760070694363564 -0.839931837383618
Ni 0.3396550998177015 6.028282698316285 11.127207469816504 -0.7205115517410559 -0.46060387537298736 1.4661360964996555
P 8.899569264312465 5.75030365596684 3.39325136199831 0.010602715216510772 0.6526755659336888 0.17660419105272168
Ni 8.523743353501173 2.907417170954916 7.880307902239062 0.9156413124017907 0.03231773829609918 -1.9401863271855362
P 0.035127281634388684 8.701380925680693 11.197420913276908 1.6834169393361331 -2.33438452143978 -1.5513159729021089
Ni 1.5273358868064957 1.4978758285396865 6.886044642337032 -1.5279528726961362 2.5310944821034407 -3.5504448400601243
P 4.551524175810902 4.685145277558904 5.950466659174125 0.972618501117783 -0.7202770671327466 0.24682384660091686
P 8.287816168516446 5.465727168807024 13.079223254877741 -0.917389405441149 0.22715542163771202 -0.6297210140200444
P 4.741223558447059 2.644113331327709 0.7885107040763171 0.2011685106556471 -0.2913566389059692 0.33672066886306523
Ni 7.718562679109675 3.854305842741476 3.56786160250792 0.44461727013674396 0.07151009222484458 0.9535164901810096
Ni 2.0928703179891386 1.0740128438113283 1.9557604289439081 0.7162658890908244 -0.48279866630247176 0.3668529694720714
Ni 2.448182013288959 4.937227978367364 11.657112043929066 1.3030872755338654 0.3080587821519985 -1.5677329808075515
Ni 2.0838970620282184 7.550620243971434 12.29919785170296 0.11052066916008708 1.4285666228863139 -0.4447625374653566
Ni 5.04005491251017 4.356232499235762 2.1475167157723276 -0.04672388641910018 -0.9758010126108226 0.7695291192903392
Ni 0.4326324691944426 4.484526301365417 5.940369461784291 0.27150309451515175 -1.150892880784076 1.1969418526233386
Ni 2.0215228815911086 3.4527572073578914 8.022500199599428 0.05562298868094291 -0.21319895945761994 0.46964387408806857
Ni 3.7775580048435438 5.59452354637237 0.48720942019015395 1.0290153918502731 0.4405261307865059 -0.3475694386521111
Ni 5.264121317212538 0.5746886143004126 8.974474934795202 1.4064235111303713 -0.7436260262713321 -0.818831307959577
Ni 2.9195246700875224 7.900568088712129 1.1911083514602212 0.0060264086997380084 -0.12816923547978573 -0.37895052406655383
Ni 1.449637724448344 1.574111953266731 4.200465182470566 0.9648568548944931 -2.271741906907894 0.9441967554419803
Ni 8.327081016646869 6.395235868253796 5.603853174005873 0.12266913159716292 -0.17948176971083282 -0.07271105451148123
Ni 3.453826322375638 7.731291544235502 8.125908293700599 0.24612939163705355 -0.8016247142733033 0.7418882176446191
Ni 8.837697659311049 7.196843688184275 9.314067898013581 -0.45493947799835843 1.7175329071832355 -0.5686215756055627
Ni 4.444877668356829 2.6637320487901284 9.495271928239484 0.608493729210152 0.9846108975929687 -0.3477494158734011
Ni 2.8136822833305577 8.299137822422333 3.8418419719362875 1.3210009225894928 -0.19935768269915344 -0.5100302483249152
Ni 4.117691921985433 2.6049033096084537 6.889736287355578 0.7194463437013352 0.5200950887600849 0.12733928337932263
Ni 9.105935875943242 2.333777568654823 2.327410394771351 -0.612936338362538 -1.7908345440908642 -1.6837599244978487
Ni 8.175979427471942 5.299950376909859 8.126108410101358 1.3137776653681763 -0.4005261933548005 -0.03527450693157796
Ni 4.7920385038632265 0.14914794139035922 6.6604924418920515 -0.8740020395944496 -1.5460925197196405 0.602285286406595
Ni 8.539697839150628 1.938013119649306 5.421658613284894 0.02275400586706404 1.2570933253022545 -0.5583446191595868
Ni 0.5921489987099101 3.9329543295598475 12.471053978824973 -1.6919136639532346 -0.9864317528517914 -0.39181503873404777
Ni 2.2770322330974757 2.8403005059519026 0.2763278535998138 0.689662170460367 0.2622185838894323 1.1364077997940234
Ni 6.335219223496847 1.67839178730545 6.286728917914139 0.5611152399261885 1.0679305808582318 0.4315000160284956
Ni 7.481685169664731 0.11398959145630953 1.7561530000364431 0.7030337066712666 -0.2962486768909478 -0.6796464380955779
P 0.8917479225293528 6.7209778524644745 7.284268969656887 -0.8112018164387771 -1.0719939522943278 -0.44920797483121994
Ni 4.389384202521118 0.15410790405389033 2.331756301629817 1.4848449857630688 1.124649630816831 0.0004864527181152912
P 2.6452098595510396 4.389439028932284 1.836704877095812 -0.5741260503635596 -0.5926176814098438 0.5711505126750034
Ni 6.280219195361634 5.558127947092997 4.523540775551512 -1.199239904628896 0.8350737379603682 -0.09839226132766926
P 6.994095619690488 8.195360563819307 8.379145090464116 -0.7733222677841842 -0.42740090625845745 -0.07177234474729575
P 2.445075183322856 2.7354541323311294 10.085506571426164 -1.011790286221238 1.1442406655748811 -0.52051315013411
P 4.98115307144694 8.24887114111783 4.330514343531068 0.5886203873249927 0.2913209005720273 0.1878108584018185
Ni 7.346026352968374 3.68492878317771 11.563681442886681 -0.35615306655606405 -0.06491238440266885 0.22067778433316834
