# total energy = -340894.1585990723 ev
CRYSTAL
PRIMVEC
9.08911435811767 0.00000000000000 0.00000000000000

0.00000000000000 9.08911435811767 0.00000000000000

0.00000000000000 0.00000000000000 13.30283760487052

PRIMCOORD
 96 1
Ni 6.368506137861966 2.1872226656439078 11.510293589357897 -0.26560112720842 -0.6582232352247954 -0.09824647977842434
Ni 4.881181636899384 0.31088406868162755 5.932360439179876 -1.1890639925371587 -0.01156559335041234 -0.4279932884268178
Ni 2.7403770784580574 1.486133826977163 4.825151791226718 1.0477512776968794 0.36059593281876606 -0.10336143240748652
Ni 3.52395871935128 4.436605784618234 4.8743857060681 -0.4150629535183948 -0.10661439212714542 -0.31137010591341857
Ni 5.174005635283081 4.417318683877315 2.6785529223601614 -0.5384926174306661 0.1585267647257205 -0.12354202112041948
Ni 7.08700063059038 6.061185002022205 2.5993612864810456 1.128414754286218 0.05107110764420236 -0.47907519470429755
Ni 5.0904948522446425 4.887135006826482 11.391047135262399 -0.04504135651035469 0.16395719171267248 0.2285173349822452
Ni 5.634941893470761 7.81165754287692 12.60121908887686 -0.06163705608550675 0.7434838442665131 -0.762014556080849
Ni 1.5812514090948457 6.572865785863303 0.535865099416705 1.4751642681401949 1.0395402026409968 -0.7109367635684273
Ni 2.8632619050448773 1.5039394020721022 0.4108806874052134 -0.8739339053606755 1.3314737970963586 0.5161471598559305
Ni 0.4256132329240431 0.00732128164317188 4.780068874928397 1.3186213666137225 1.2081734596731 0.9907843733935324
Ni 8.71324315592818 2.3965177027603803 1.3272070261782583 0.37390781943632384 0.3175078433800403 0.5610293650806015
Ni 7.029112061024444 0.7949839348986345 4.773111157860926 -0.4680359061710004 -0.48143598162699014 0.2780524655978953
Ni 1.1271047193583765 7.56213408545917 2.951806239633893 -0.25091884260589686 -0.9790691418391332 -1.0745650554556139
Ni 7.619177367386602 3.813765131756662 3.644498554424831 0.9127135972320346 -0.022240299455439115 0.35467005425263437
Ni 7.59179186572195 3.9254158129543324 12.685453365420946 0.8033324409930294 -0.004692006159030628 0.2773526113173933
Ni 8.124023137204528 8.8527701509677 7.09504177009344 -0.23935787724117488 0.888757086416437 -0.3185591674626901
Ni 6.968460400683182 0.8046983803613559 0.45032744386873413 -0.2767509731776524 -0.07997467805243001 -0.9201433140372024
Ni 1.9711380600762252 6.6168934559806525 9.136255993224527 -0.7108256919118597 -1.1593099012031776 0.24845392600517213
Ni 0.08283727966195431 4.97493585185819 1.4192797549744485 -0.5501980787930524 -0.9289531990193486 0.6120706479281329
Ni 6.324614804460506 1.8645227482520088 7.071881797709868 0.3067549757389104 0.8177141636359982 0.21256106876330488
Ni 3.3611454132381353 4.25295113920305 0.34602803839173113 -0.09879129653830082 0.6291576853174068 -0.9059166289148592
Ni 5.808807562685205 5.465938900456313 4.708752047758957 0.6814688360162974 0.7086194282891602 0.7171431494894552
Ni 5.321540140102407 3.1995864049111584 9.239126589919024 0.23113651777264707 -1.592423027355064 0.08180993148895588
P 0.2096831423010333 5.505276587547123 12.444538208244346 0.0019743501175514384 0.3089172734975518 1.0917942748497067
P 3.7989589644112534 6.2217714751091835 12.674478259791982 1.7016144361807664 0.9959065251114461 1.2274996708055377
P 2.450198012362582 8.638885111083006 1.4188543844208785 -0.6928451961740391 -0.3137943990841951 0.2755114443435965
P 6.504779229948964 7.915173466693288 5.951223987190104 -0.46226403668422966 -0.36925412271439634 -0.588973142678721
P 4.727266573776513 1.2556157077541643 12.623049323824807 0.3408120653236195 -0.19889694101265099 0.7223630031274979
P 4.087292940285048 6.141741822883078 8.102970930448581 -0.4888800966098612 0.8047619743507044 -0.23437199399080927
P 4.897605666606661 1.065589593149826 3.6304776865629353 -1.2777783644554317 -1.1573358081959424 1.0111449393277554
P 0.29729038919618017 5.512447898802818 3.649207624591594 -0.5172961858587091 1.034706014477147 0.1726637183477349
Ni 1.6095003766267864 1.09981010883765 2.8159976012923535 -1.108299985814214 0.45305280249860685 -1.3606866712148888
Ni 1.968056850297162 6.451044385660407 4.897918332141763 0.19975286125504307 -0.2340470065512227 -0.19530331012412172
Ni 5.88699212468963 5.597831039406117 9.162076349390786 1.1131555141343021 0.47120016283159494 -0.04566073526190846
Ni 8.532478848889816 2.334766259577625 10.348011270566163 0.668395804882423 0.16196227276983075 -0.04324904049662229
Ni 2.3923185319110383 5.166398046536546 7.103369216699862 -0.08484794698433129 0.016690830392119643 -0.11584156715236824
Ni 0.6017829926369902 -0.25995321618316247 9.265479568188686 -0.6332426540200577 1.0206153407120357 -0.8559984039281775
Ni 1.5819694491318548 1.1233236477710897 11.67758964668943 -0.30473768819856556 -0.01907578568452844 -1.2305523415889323
Ni 4.277128183487143 7.058815286859186 1.597231890019768 -0.6758229505844296 -1.4921057810905398 -0.6756085205807784
Ni 5.530089869838693 8.04582948608571 8.069767486661279 -0.1631627208358351 -0.36124796458046815 -0.019916536418268925
Ni 5.1760961315933605 2.739977157424786 5.024535149098151 0.13117588351659343 -0.18533180073370664 -0.5969440766993397
Ni 0.913910452167514 7.444084667729168 7.009864043475412 -0.5401885170758502 -0.7116453595996776 -0.2786600172749072
Ni 5.134840641365729 4.393105283135651 7.102212172437696 0.2257091761094887 0.49990447274482286 -0.6269532214669202
Ni 7.8880151928884485 7.307993357930021 8.951918755318463 -0.26820231227669294 -0.19402007253632392 0.6191476093795724
Ni 4.53711321157068 0.5128432815719005 10.595257904828589 -0.5357631343146451 -0.6155637486830561 -0.4293336045047961
Ni 8.227130050873233 7.300903848703859 4.691950819804391 -0.7464444695567338 -1.871510876196009 0.2534128126723443
Ni 7.1212665918501665 5.989671849981887 6.864157359560423 -0.01749121480622794 0.2864298910283132 0.3103907727192848
Ni 2.6483316170050446 5.163462262587762 2.3125915471942027 -0.891486055311826 0.7813957888209381 2.0949803643417013
Ni 2.413605237818311 5.3362554163038896 11.445854495049273 -1.1768322263576572 -0.4016016858071664 -0.2631945746494564
Ni 1.0191533077184602 3.3674987041985043 3.9582993199150174 0.4946792197901416 0.3702270281506269 -0.4352450848932246
Ni 3.6207850549747564 2.600641033787512 2.6464928891634383 -0.4407652433805054 0.17110820093515694 0.11150334478833054
Ni 1.0432212826298435 3.1857800401489262 8.315989777731668 0.09387688995581897 1.826127048744571 -0.7344659570386189
Ni 3.739243482852421 2.5136854763943077 7.122778111573642 -0.4789103869916591 0.473547580017849 -0.21048156052645683
Ni 4.253814605070339 6.980176269135136 6.048707465784159 -0.02408095220860369 -0.15956729017509294 -0.49961008143285573
Ni 0.6236668533598517 7.184445025992547 11.100247282653916 -0.509534282525103 0.5496841152711114 0.7779777642783248
P 0.027892674247754025 5.655819589230371 8.255768032501173 0.7044215881577288 -0.10541060162703136 -0.7397755421769904
P 8.62271557657872 1.661108368147494 8.171667365938658 -0.5914714836205427 -1.2198974329782475 0.18375468605457387
P 1.8482077879174421 3.269981595881197 10.383489719685912 0.1054244855841023 -0.607797988694708 1.0844491473385454
P 4.074013744157582 6.247593649098322 3.61897086774201 -0.5259168376481845 -0.42513550726304844 0.8035993215011707
P 6.927068573739663 4.06938738493179 10.473550118555599 0.605778387161518 0.0802803822183069 -0.5577218979739234
P 6.209092160531624 7.993512543642386 10.269232280480468 0.32163729216738157 -0.9089633861609828 0.699479156550789
P 2.4490527839491247 8.47880762840201 5.72963864959207 0.1080675796339042 0.6016268268869897 0.2910969574866793
P 6.973941136661869 4.022123990090706 1.5463746593478824 -0.03727405386011 0.09816677558042448 -0.8558204835894164
Ni 5.189011763145126 2.975748784766659 0.712193009720082 1.0234363551005987 -0.9135936858441426 -0.7640238732013939
Ni 1.6286693188806034 1.202235338926916 6.87158043928479 -0.9896050083734503 -0.6729836813634216 0.6301922972295082
Ni 6.805101747706487 0.74782960943026 9.178558549430177 0.125824389396693 0.40019374971604627 0.8322113288109086
Ni 2.3445461466639723 1.4963863480119213 9.178146812548194 1.6218001949656005 -1.0040019005250709 0.9874846195963382
Ni 6.4992803157414905 1.8112150923399009 2.553852090717716 1.0076901480099354 0.8298281732907128 -0.2554910353576116
Ni 4.196780412257299 6.95595377927908 10.26851333153202 -0.37746056978458864 0.95301769616772 0.6838833589950609
Ni 8.22307630585417 7.063559804572081 0.29891461393812285 -1.0033881782004719 0.4177433285640354 0.13090231814023262
Ni 7.774328550066856 3.811583744302458 8.175258475035141 -0.8474947373325404 0.3265954075036053 0.16088575187620036
Ni 3.1257191722431785 8.43232589739868 12.613910219303133 0.3922600966912663 -0.7343248034750643 -0.6097659110543563
Ni 0.2064701403632788 4.825519900359614 10.423065541573807 -0.521668861005108 -1.0044641848734701 -1.4044183077748844
Ni 8.621770308681898 2.329667266403423 6.101785167102136 0.1751818567838983 0.8772981938472182 -0.9918225848500597
Ni 3.7698919765839864 3.0511248104237967 11.60177734354145 -0.8371259925037067 -1.471908737317375 -0.5597412423967973
Ni 1.1440468285860268 3.347057285929735 12.631017750412726 -0.5184087021965974 0.30364522646533515 -0.05423227898100338
Ni 2.970667969821243 8.356459059564347 7.964461916221025 1.2489359863024427 0.8942466487760986 -0.18414343685256027
Ni 5.743947642380209 7.7448343738631396 3.6220829805100077 -0.020663698996938606 1.391286912599249 0.7746265884179047
Ni 3.2752169257712866 8.406540079867112 3.5434366914944424 0.9261216431078244 0.2563551831301198 0.539132050786878
Ni 3.3242436088045193 4.476597887945306 9.34401951456586 0.41329866252912045 -0.3081950506195466 -0.2083470306819573
Ni 7.345994945205132 6.122272939854308 11.376054641071944 -0.3992447555392156 0.5175630663668506 -0.2684159709493958
Ni 0.45203528846308794 9.053375994724925 0.39954656175774556 0.6069616088363419 0.3153090359565086 0.2098837790414579
Ni 4.70449834222326 0.16868760074502778 1.315672031102716 0.19775434276777556 1.8860702620674228 0.5903733654603573
Ni 5.914686656243627 5.731459199204891 0.3093943628326941 0.0855637421044333 -1.224559100119975 0.5174046864121153
Ni 7.8264637102223285 8.863540751522832 11.501886158544819 0.3903829342732115 -0.0737873182947955 -0.13995440104017187
Ni 0.09699084859398069 4.966928342078383 6.034539354269105 0.2017755481120267 -0.6487494914064053 -0.5314791622273105
Ni 8.248153172463121 8.73725659615321 2.610988081611952 -0.8996349096712054 0.8499784229863426 -0.3769725744045766
P 8.635749366617587 1.707562831807645 3.624850615842529 -0.08421674115823562 -0.5223041805962618 -0.2293819969753856
P 1.730412865390431 3.373815638701303 1.5506583589610754 0.3335096181249353 -1.645520935621308 0.1293077199596031
P 4.541766838139647 1.0668438909359932 8.432802166992849 0.659873883454341 -0.2232856542696606 -0.454548670317843
P 8.607073210709197 1.6195165806873395 12.500410812238023 0.0317765210806485 0.1748499273657763 -0.09778033877528322
P 6.5055881611298965 8.01249061449396 1.4874572020327133 0.1678308157354658 -1.2879547907678013 -0.3343976771568435
P 1.9227657932792535 3.335895853455725 5.994910815517733 -0.39927715143904785 -0.8161861570272461 0.23821553610661556
P 6.8990377449531435 3.920498602067981 5.729053310625192 0.5679895984485186 -0.36991695310937583 2.044680587645885
P 2.338429172677809 8.405831128944495 10.447077163975957 0.8017309008338644 0.6795703334420038 0.016463287762345843
