# total energy = -340886.31881243846 ev
CRYSTAL
PRIMVEC
9.10785237031243 0.00000000000000 0.00000000000000
0.00000000000000 9.10785237031243 0.00000000000000
0.00000000000000 0.00000000000000 13.33026257977897
PRIMCOORD
 96 1
Ni 5.608688467706851 3.0303647029194547 9.44910375551665 -0.6730392171917053 0.520794943040587 1.6751678119534634
Ni 4.707439133588106 0.5653526425847246 6.147904305807421 -0.9016480834464924 -0.5120570489469568 2.662467569232505
Ni 3.915784589293327 2.7543876625757346 2.807660402969598 -0.8412767814472867 -0.5633955513199329 1.9346970219361905
Ni 5.140380904907161 4.8218428695624125 3.1051647636181396 -0.4585266811289844 -0.1502493552082767 0.30338117417067106
Ni 4.845750982525756 5.043354951612497 11.741628571762357 -0.5958418447740964 -0.6837434909830871 -0.06301002517363341
Ni 5.867688470883457 6.026083134710316 5.10277093855637 -0.6746744388022832 0.733224371322034 1.2050341427131699
Ni 3.614487718839857 2.986055000227392 7.7139030098262635 0.6600286638646504 2.916983385161041 -1.0262661112399099
Ni 5.399881839974429 8.40465347720741 12.712592141711701 1.6325337793330208 0.19420339219172358 2.6464796784446807
Ni 2.105006883081102 5.232734529839847 11.999489182584025 0.626670914339811 0.24255298713970488 0.6267855855408044
Ni 8.172967923850637 6.891529500425669 9.919168223074674 0.3029561708181105 1.0470439672172096 -0.040305641597582195
Ni 8.288510141394626 0.022255948509419272 7.036792462435176 -0.40581315278535274 -0.6339985583494758 0.8774285487774953
Ni 8.824552803664176 2.7643698689787155 1.8041981935247124 -1.1634591474848608 -1.0319356508208612 1.1771091341681275
Ni 1.3751217948310444 1.1900320151582588 3.1578327426021877 0.2001292707578553 1.1553671145053457 -2.0261321352197363
Ni 1.9890457043194694 6.734482798777316 0.919303830243406 -0.11762694118756517 -0.8657943069726768 0.3639427378038119
Ni 7.40673339604374 4.408564951914922 4.218081501957606 0.1942815537278267 -0.556119843594126 0.4014587324713989
Ni 7.445988240566411 4.043922966924289 13.202651988774381 1.1866080747974983 -0.7314253704400824 -0.22463368365712283
Ni 4.332095421842453 0.6519828929703002 11.126890420255297 -0.7345050378066705 -0.05130173559776971 -1.6763402349950096
Ni 0.7427371789938955 0.3877604471372437 1.0518768212845975 -0.3243822019023703 -0.8708588659797777 -1.1433364085930566
Ni 3.2006360064812456 4.492175038392442 9.873538792547036 0.39976926058411794 -0.20243529318321266 -0.6158715097314619
Ni 9.129347089499712 5.1984707885186685 2.091011756841303 -0.2830982555519189 -1.3325821996691887 -0.43664350790264805
Ni 6.139694487512123 2.451424055104249 7.227535486190379 1.1876419153786515 -0.883134083802705 0.7076107845189878
Ni 3.4164465728303575 4.5962777931242575 1.3914530852518332 -0.5007408526031892 0.17055438531421593 -1.0709719387877168
Ni 0.6870718057331864 0.3811599863888495 5.095253317055439 -0.7730150209564106 -0.4333733217918085 1.1865844206484144
Ni 6.695036689350938 1.1972909736465578 0.8509002143958276 0.7715376650799357 0.2168733229854136 -1.170807874540448
P 0.16306425983306996 5.8464034194566645 13.36812072168262 0.25003232623588545 -0.94134900158054 -2.0651483685819336
P 3.871456670896149 6.104948030005397 13.320371893864861 -0.005781382568467462 1.5257442950805917 -0.5006256671815636
P 2.318895692540589 8.507007524248191 2.181511022993289 0.40848195786676744 0.3082302747328563 -0.16813857678387173
P 6.2384509327927065 7.966010190187381 6.250746533745282 0.4657393968273398 0.05550446082520763 0.2623090867207095
P 4.485526306025493 1.5228967025758993 13.02642597121052 0.1731972222537017 -0.6678874977874368 1.3438901684828404
P 3.9362135025797187 6.388930872747127 8.825487269336573 0.04398797554517586 -0.6139048729233944 0.8745869655636422
P 4.5840823785498115 1.1472160002856202 4.211269739029879 0.5960475330269993 1.1055427347840507 -2.3055961364531776
P 9.20621736508471 6.130213212999803 4.048373974469122 -0.8959415199800183 -1.8030583398505655 1.2910365150169185
Ni 2.6481536703454736 1.9829616588110832 4.860933772739048 0.45143814971331936 1.0821906903216718 1.6823607301574768
Ni 1.4863833216730258 6.567326380790177 5.603735617486103 0.756938169999206 0.19448004289187798 -0.928064368656492
Ni 6.495647581162935 0.7480261089740149 9.912863767534397 0.32816120932882836 0.3805127263473511 -1.7428461891370435
Ni 8.408788442268499 2.2277625198506033 10.624419302512559 0.5808104043622707 0.9295131852878766 0.13390150997787262
Ni 3.2711398931285753 4.7994011208608205 5.682477556771658 1.155819885772048 -0.9075459369881661 -1.8163362879063945
Ni 1.770238654478952 6.558491763809436 9.909210607873598 0.2329146927189924 0.01708446628611251 0.6609779151517972
Ni 1.4071905436858754 1.2273377792336317 12.296420659306703 0.1860249701459893 0.7397611439992873 -2.343157125426087
Ni 4.304407550067762 7.3095070699928115 2.1771920793105397 -0.6652654867835575 -0.9191400695836687 0.18047318708982465
Ni 5.400255261929285 8.30613383609332 8.360540504130588 1.0377103485211097 0.3793009654274371 0.9334783405832117
Ni 6.895436769172821 0.9053041500773279 5.327080042126852 0.38620592007738647 0.5093447922221163 -0.24865472916206854
Ni 8.108475219891234 7.778588800259884 4.936102701466312 -0.338501672022888 -0.518915723740003 0.0619306760665256
Ni 5.113795083291925 4.72092786322571 7.642653190054478 0.045945356381862805 0.8874244836479427 -0.9047683742430289
Ni 0.6470591878777351 7.420659302604103 7.7646118897252006 -0.6252835470739811 -0.5349941173591044 0.6807095892527696
Ni 6.3926195530329 2.0675553933648096 11.954326074107328 -0.8316266599520323 1.095415930762694 -0.11711349188625637
Ni 0.2814317332403849 7.51225697577452 2.559157199865469 0.6627589183116198 1.5175676728070704 -0.20836297152155728
Ni 7.302084170158478 6.254416998325941 7.414918623137134 -0.1262013131201375 1.0345766879881344 -0.11661778319676046
Ni 2.277181727827404 5.399900055679543 3.251984257629717 -0.46081059206715475 0.7640848083463163 0.8230510024678793
Ni 2.3649996421864725 1.2327842750629954 7.473731670241702 -2.26050850008592 -1.5716672828649514 -1.8407656245933521
Ni 0.6029152481022181 3.870873768332471 4.286052494808705 1.1897000834592608 -1.0319577623080487 0.17994919626555458
Ni 0.8523173962537689 7.62122332377202 12.049891127851778 -0.5293960544460368 0.1734954702204109 0.17414441665831945
Ni 2.394827859312167 5.401867351831956 7.583653431972481 -1.643903454622543 -0.12700041198266515 2.1586264804374373
Ni 6.497979191417645 2.2337099475706275 3.1852929180629417 -0.5540488199977103 0.185842421821538 -0.2174263672754062
Ni 3.9946130531781785 7.316092047391858 6.8927326477485105 -0.7077413965595811 -1.1996191423451856 -3.2338476814198116
Ni 8.041505180036202 7.503713810075618 0.5616849103598339 0.2515950427373151 1.0729074652475328 -0.1575947398297544
P 0.3149559169338987 5.460139392494611 8.801599193648855 0.7680723322391545 0.6602155830644758 -0.8806501410385865
P 8.324395080471035 1.7636627849324629 8.421233412003017 -1.636763244033336 -0.3363751125981884 0.5662065384061667
P 1.3989843685316001 3.236912583217625 10.827559024383726 0.5012126500332852 1.0088939385100495 1.9608803651997777
P 3.7671808669657425 6.535594622479972 4.385522995729794 0.7576164270131533 -0.36220364362551816 0.31689129284196393
P 6.713033806004488 4.231626700281066 11.14229999599727 0.48481415407060374 -0.851130791423231 -1.6910839689630877
P 6.30093080133691 7.878848041212449 10.785129182459524 -0.9202471866049183 -0.7543051032517333 -0.9421252176249324
P 1.9637987370301788 8.49020353627967 6.451487247252814 0.9074832020710306 0.11846306393561534 0.6961192389396206
P 6.933744397029515 4.087358315770835 1.908986769554104 -0.20667015720016668 0.5014620470399299 1.8266039883809897
Ni 2.601047856918269 2.166703476305364 0.8440511092726146 0.7227437835056844 -0.8028573011288237 -0.0659336265783316
Ni 0.873291869908353 3.200481172987769 8.73072188504667 0.1855446880754611 0.3176482256126465 -1.2221116670207468
Ni 9.17834733625887 9.211590998093614 9.476043872596373 0.7824221732029235 -0.5334766522733135 0.5226983307108869
Ni 2.655549246622135 1.8622917202772415 9.687861556384293 0.028629490811234566 -1.1891557809200166 1.5774016142455674
Ni 5.190009593492784 3.144804870303991 0.9855743870220262 0.8644334220694081 0.057220672185365966 -1.245983845652654
Ni 4.014723191625059 7.28889599965527 11.347066380335201 -1.2605473452891258 -1.042485658422566 -2.0096017416648806
Ni 7.001415741531474 6.211883326882583 12.147495429783842 0.2601627298016681 1.0375663667440775 -1.4744276470844866
Ni 7.763670137770759 4.244341262451287 8.897403783915564 -1.4227867829797431 -0.960523517626462 -0.048345224072607065
Ni 2.9322640230230084 8.641494075111705 -0.13080242450402063 0.6476655143136071 0.8711478579751061 0.24554497988849325
Ni 8.888553683585476 4.935554408742352 11.187290055275374 0.4566268930031104 -0.7978318228897744 -0.15918599557627425
Ni 8.712489785797137 2.3484779976472328 6.401285674741328 0.3827796680046569 0.6894770510327545 -0.4231948385969099
Ni 3.4694542747147987 3.002075712875971 11.807106745368477 -0.35378508054451974 0.05061602238465477 0.34103677973991586
Ni 0.8350516401605842 3.625562867549733 13.332529055458563 0.3874300222924747 0.4371561858730084 -1.1980479412033238
Ni 2.877589584120552 8.331745117484909 8.769273603351904 -0.17204253982396825 1.1250489231377785 0.2829110792417773
Ni 6.00728452703171 8.498090936594433 3.782768956617842 -1.0527402462710387 -0.22626273462011354 -0.2568429213998157
Ni 2.9439311821491203 8.650082780073394 4.39008238672006 0.714443491170105 -0.8580658279801673 -0.3123715505947395
Ni 5.08590683876097 3.07451957211804 5.233994145848546 0.04648014583941028 0.5765714265802586 -0.7334033201020596
Ni 5.946535150473424 5.882087985776808 9.519353533077627 -0.14717637270990783 0.6322723196869884 1.581717725122418
Ni 8.05033979701694 0.40812196231471043 2.5418814251344712 0.006840162850284994 -0.5791345593217445 1.3632989120267553
Ni 4.638638415369022 0.5801082745130723 1.8454950185907661 -1.236146290736942 0.12870916714365574 0.2027001168088251
Ni 5.956471817613618 5.83467250536265 0.8411411503805047 -1.2364987889803545 0.1504614712190828 0.055128565543027634
Ni 7.723777743569066 0.031081457637601978 11.77482122962278 1.8731556108882836 -0.5497908160523047 0.9988172710003379
Ni 9.124064535016382 4.759363001018209 6.477655018435664 -0.0401788862117308 0.5012838695908528 0.7112075007313106
Ni 6.99133334875036 6.350422872134169 2.890227640329289 0.8127208241864649 1.2201437446610988 -0.14694651608728887
P 8.482598479394188 1.9251723343339737 4.139993506485676 -0.256607665460558 0.39455840580713986 -0.40131140826025724
P 1.7735265892521965 3.421783774429031 2.4060195885347793 0.0031678562050203507 -0.045532437214160296 0.056874087479224636
P 4.412490436367189 1.2623028252017365 8.52994200777314 1.837261982315468 -1.6718737145832239 0.6557698885882964
P 8.58588152739583 1.7321587229361943 13.029199312314267 -1.2347679223321766 0.6233300228920361 0.2830213795673964
P 6.337289348746307 8.228607795124185 1.5493094749925453 -0.5998123993860702 -0.5298704229792939 1.1032292561595258
P 1.7436710485688292 3.2627242373654783 6.521031166240587 0.4061209138337587 0.4876889045152375 -0.5493437012125572
P 6.930574864339517 4.295837060811189 6.440356540642337 -0.32184143775838764 0.1661331163180687 -0.4808042615802623
P 2.1996647947108268 8.855419315981424 10.812322497840345 -0.012224824200966043 -0.4818707551715637 0.09346679900159387
