# total energy = -340861.52069273643 ev
CRYSTAL
PRIMVEC
9.36359488802089 0.00000000000000 0.00000000000000

0.00000000000000 9.36359488802089 0.00000000000000

0.00000000000000 0.00000000000000 13.70456760529811

PRIMCOORD
 96 1
Ni 1.4951132894654684 3.6745930034388503 9.35638212909254 0.3436168817622663 0.1459512420535551 -0.4887870226754227
Ni 0.12753590806107146 2.12813912310242 0.9842580240083074 -0.8822858768697966 -0.5794253510892861 0.3461694729807909
Ni 2.0918551928407054 -0.13312784693908328 9.867151249476562 -1.2274055684298346 0.8536553576172976 -1.528756342434038
Ni 7.24657037030012 4.5878150510503914 10.956335845285313 0.040298442508730596 -1.6943328149176884 -2.2772862337648907
Ni 5.2774250887058045 4.053490871320209 2.1340615968806222 1.2564960580378877 0.24993513853638888 0.8667265889789589
Ni 7.809041516318487 8.23203255261337 3.307392138314378 0.4429473386334888 3.1512821027117535 0.5848866313141734
Ni 4.2558662480289655 9.515285143730054 8.128042340303553 -2.4624689105152426 0.2579214991759752 -0.04970148099018537
Ni 3.1504657785615726 9.415281950131316 5.827566252951624 -0.8457008786569113 -0.9708493250325021 -0.5669529296538882
Ni 1.9322620812586007 5.765081111423243 2.5879159783459933 -1.05619426625791 -2.0862172734370907 0.6050458798708677
Ni 2.9313295669706316 3.091372131108236 2.3597757338932035 -0.12936274156725464 0.7173704350089128 -0.39457923174274623
Ni 7.4827015066459035 8.177274249601629 11.984973563711277 0.9903732539980428 0.8244417121678188 1.0518874113524401
Ni 4.8373642188968295 2.4866711720626875 0.5838107788097079 -0.009415636886945074 -0.9766978133934793 -0.9436347122909232
Ni 2.7814465033063067 3.8250753371771755 11.52334833483321 0.190471178842801 -1.3058126448848284 0.5046283605830535
Ni 8.242997322248588 0.16398089215517314 10.191196242037623 -0.9267083688492299 -1.7348022357866444 1.1248761450053402
Ni 0.5244025145675216 7.029643967107054 6.181924947662176 -0.6851997638136393 -1.2623684576582648 0.260882381576512
Ni 4.7802650171585235 2.664401566978196 4.526632385573471 0.4474056315151585 -0.28538679447577947 -1.6718312913810627
Ni 0.6350605428100795 9.020072699923272 4.758568631401255 0.3217007984154653 -0.3627600303496204 -0.582136579372862
Ni 8.013926336462116 8.439258271483563 5.609402918871441 0.8889280647766626 0.47755155897091955 1.5732027456728712
Ni 2.0559364427803355 7.203488470136469 4.443925624485557 1.2682238879977772 -0.5308353579957246 0.4510208596702426
Ni 9.176351098908565 5.5271147104758365 10.259211522717635 1.3771031648996994 -0.3165992155228418 -0.28284962987622253
Ni 3.6899212083003796 7.594034650081201 9.527511189599144 -0.31466060373923227 -0.008603939618927118 0.3661973381659435
Ni 3.9018942697880408 0.07847254347130889 0.22464762355275925 0.9527546723143203 -0.20310892221146953 -0.7008456978810124
Ni 2.9043530500457284 4.590118495397329 4.767023957601597 0.19119571571365138 -0.16951643096800484 -2.47004543731092
Ni 6.013525375070744 7.023220541001367 2.4892021517658467 -1.3931849009529103 -1.6756925741086819 0.845140378167751
P 6.832250022888422 6.165290521311225 12.159500672809358 -0.6808440579481049 1.242652467286576 1.2117364944340099
P 3.8154776523982705 1.1760768838197584 2.8333095827730377 -0.407077364209757 0.19007137230122104 -0.15340178479432937
P 8.57962792272314 0.8553887400325862 12.820376646775966 -0.13730590767373127 -0.7181931880205245 0.7190825326040132
P 7.098691115945733 2.49572576833703 3.829823616154134 0.2516456934695924 1.8577541887315487 -0.6215824440733101
P 6.278992654257805 0.9615850153023165 10.818509346422275 -0.28024767347700125 0.10656914071150679 -0.42655449909776216
P 0.027818304106974626 0.2226466233212939 2.637321114149834 0.586177582211455 2.274735185208263 -0.7980663074980836
P 5.761860034775494 7.838284023210702 8.935323738786305 -1.3411627422493484 0.5545532704379547 -0.8461636772259427
P 2.2913934002928684 3.2100276057602213 -0.11079473672818918 -0.029411106172265476 -0.052651050536812544 0.9229630428741847
Ni 1.7039682738493482 1.415700641065572 3.7983713008640443 1.687719423366229 -0.8418336823920212 -0.49965250463501687
Ni 6.921485082344974 6.216031842108187 5.975109354248877 0.23269563472965085 -0.5975405726327581 0.6463102858372933
Ni 2.6020400249025792 2.506624992807904 5.697784018472543 -0.34960600946616566 -0.8129056865037613 0.9459620748725194
Ni 7.901553833992225 8.068946820131234 7.999396846246091 2.055341666904157 -0.22075183210421337 0.7180090970341763
Ni 3.5514242760420536 7.191512432251376 1.581301435139526 0.5503757420214973 0.3292549566136394 -0.8014951306739746
Ni 3.9701923310342195 3.0117160292407776 7.70262519656846 -1.0643181809166251 -0.6680024260987463 0.0779519911954464
Ni 8.33654899895692 4.0926213344334235 4.828283404556749 -1.7115401799349106 0.7164116706400694 0.9002910551979656
Ni 4.935251240046754 5.676585775964286 10.479978872541245 0.4211754941740359 -0.3287818736319628 1.0512456640033832
Ni 6.495235515022714 0.703434449174999 4.633692920653049 -0.9757573038570808 -0.9693305743951305 0.19212234129297878
Ni 4.498533173619309 7.030861234444866 5.634263263347532 -1.7233227743921353 -0.899374199810651 -0.026301099788374055
Ni 8.992262823051712 5.922857685593537 12.572789152062386 0.20903094412285936 0.8485915699411449 0.4202892349143407
Ni 0.7380282505561353 7.654326837682537 2.4014652674942947 -0.6519726263293932 0.1055036755614699 -0.8306720093482469
Ni 5.690013171059848 5.149593291045696 4.164941059691836 0.8028465024955463 0.30292531758017505 0.01252975703589455
Ni 8.216254895196343 5.744022386479091 8.013211894170771 -1.0248892854970413 -1.2805327872721173 -0.45080205879121715
Ni 7.766952157214899 7.940815387434127 1.1413576102668783 0.9804035443798406 0.37926368443159847 -2.575700293738274
Ni 0.3592661548009173 8.36657804782126 13.28078086287826 0.37840390753446446 0.08619006283452253 -0.38481135372270503
Ni 7.143889188558195 6.802286519188426 9.98946508065842 0.9416030265728752 -0.13984127250107528 0.41247385263498
Ni 1.5385884606151814 6.218363377239843 0.4141396300300073 0.044662890125013406 -0.04337425322057691 -1.2683537287074218
Ni 5.849222375250796 2.747288109088311 9.145989642425054 1.190950410926594 1.2140682278909802 0.2198221212010924
Ni 2.3833439022722316 5.997710263274089 10.895706568267352 -1.0202443305258622 1.417219830414927 0.7827044803300327
Ni 6.895267016607477 2.3058133364484914 6.375310336901442 -2.7591706157832094 3.3802807482057915 -1.0558319978224848
Ni 0.24873640780857498 3.0200777194920576 3.2922483962725018 0.030842696412469457 1.0165771660869203 -1.28762080446715
Ni 3.9606227370400333 4.800228201498646 0.383707010225208 -1.624480570011241 0.6428819768820347 -1.0016012615033782
Ni 0.7201877931812595 3.505420934267653 6.983546053024099 0.27434030685363076 0.7251248821433512 -0.17178954327289767
P 3.8576419202611087 5.596770492983421 3.1453897737628953 2.8143464896244046 0.3299704946234252 -0.8954833493966771
P 4.785012359775992 1.3912054767908253 6.259739230411575 0.15602148180536354 0.007908456213799283 0.7387039063793664
P 6.2007598188160955 7.841027556518233 4.68004177907949 -1.1478551223990165 -0.5865527061626866 -0.9664177716237097
P 6.33808630171114 4.544873604810335 7.750700701895614 0.5730425874913938 -0.611130909722683 -0.26881834859413706
P 9.247121149209994 2.9257769551912256 10.654684826302034 -0.29496261108967264 0.7642413885288386 -0.15957911724963483
P 0.6687058120272129 7.577442359907328 10.711064903951542 -0.10191312999673416 0.1720577093326198 0.18375494316489
P 2.148991848958636 1.5758368411522394 8.182709816444705 0.24581417438947992 0.17729684624437209 -0.3875570347886422
P 3.4566085140213776 6.772145107185212 12.820335446958378 -1.2833800269129252 -1.2811272263230065 1.050520355801584
Ni 7.373044446698823 2.517674034797277 11.935089011848238 0.8249001398614763 -1.2413712865813074 -0.3827130764327796
Ni 5.181663603599598 7.784808532701115 12.26601250122743 0.2503889382443559 0.4576486493994054 -0.04228873346588201
Ni 4.584041522303173 6.030651390154273 8.004728477185708 2.5721226036893445 0.9320696331611431 -1.4495583946466326
Ni 0.8506507610100242 9.198936089822437 7.248839169345904 0.2535529377946343 0.5030072800398627 0.10917109711072812
Ni 2.715451886407065 5.206973400631189 6.864467343882352 -2.051938554759879 0.8454769355715633 1.541796720557764
Ni 3.943562267120848 8.50397007588065 3.6063567419190528 0.576554200189078 0.4281506399402884 0.10161899579508306
Ni 6.195169752657065 4.305830390448708 12.94802023617846 -0.3782758665970324 0.4936332950241305 3.2160132243415513
Ni 2.6805163138118506 8.672589692952378 11.967061006655623 0.12980882796573773 -0.9729519731978018 0.594631369405763
Ni 7.541570427821489 5.641771930102853 0.932593452753589 0.34210712998595916 -1.4715366986899365 0.3277089522827582
Ni 9.223468708476808 3.490935452947686 12.811907275183264 1.4296099765491639 0.6984872249511648 -0.15658481050800127
Ni 7.033717130891271 0.9021936055309615 1.6843599697561726 0.6059437090947887 0.9211928383476393 1.1039411946248858
Ni 4.721620822260687 4.323293494948863 6.162039481159775 2.5214006518544445 0.9593156133612898 0.10444283839712336
Ni 5.9983469877277145 8.501797721862399 6.871524685363193 -1.9873575855546997 -1.5504569673359232 -3.1501035090226197
Ni 2.0868269423760504 0.8234064452708028 1.3465055474273744 -0.6323121717859884 -0.0670602839836071 0.49365334962878854
Ni 5.187394123682223 3.019028996862558 11.544466986784764 -2.2653586290893695 -1.5767138441499233 -1.2081302651399903
Ni 6.438239312828379 0.5663991740815382 8.340202673689339 1.955882140654238 2.8965515996692504 2.807689646429519
Ni 0.9498056129102556 6.322280553509392 8.417399895534416 2.1684956599220326 0.7707799609783048 0.6281325864870021
Ni 0.14196239873312902 1.3987618978801677 9.071533144809035 2.0636306463858265 1.0535491153255792 -1.1718350302533818
Ni 6.252034864522713 0.7273574978009743 13.120766389525372 0.014882059318155014 -0.7238403590039727 -0.5045998213379632
Ni 9.290699319903675 1.9242655712086643 5.359458607319961 -0.35841409467609886 -0.8419550384612339 0.5357860171327805
Ni 3.7908045798203047 2.0140811735494033 9.679111536569273 -1.529179803124702 -1.1769476688895988 2.3262161266963743
Ni 8.150110460778599 6.140711084682322 3.485811693814987 0.8211172757802763 -2.554559655104917 -0.17801418402637084
Ni 8.201076507853314 3.1839031759717873 8.563230395323316 -0.7704680861648409 1.3872590223867787 -0.11863892739184728
Ni 1.1381168700698256 1.2138870800511912 11.823259597882908 -0.14094556130884758 0.6774815692337752 0.07435141832838163
P 0.8775233420314678 4.948332182130784 5.089328257869589 -0.3109556440838193 0.8144285509061909 0.9910587101008415
P 3.463827845694096 1.4494751278924114 11.908104067687919 -0.10999487856360411 0.10210879094730803 0.6346976412990294
P 7.194433873862127 3.127815242483357 0.9546915367323362 -0.6089773537147899 0.29193462289662625 -0.48772849950392133
P 2.655562333386697 7.582311429258578 7.076819630963716 -0.2140078285121605 -0.23637128380902514 0.05801848549631298
P 8.18854801786875 1.077244139584302 7.091332266708911 3.5089708891860534 -2.94330736776755 2.0340791579809547
P 0.09533356881899115 4.805443723861427 1.9653174439966403 -0.9840467975593828 0.6083127235475975 -0.27648409266951096
P 3.302362015130741 5.035638341036647 9.221200845790516 -1.745178693924962 -1.6445444306406514 0.4851669094243322
P 5.68388937999116 8.54757633735905 1.101941557509024 -0.5488623907007644 0.8549493938383729 -0.9929700681909414
