# total energy = -340869.13847121334 ev
CRYSTAL
PRIMVEC
9.24075168197770 0.00000000000000 0.00000000000000
0.00000000000000 9.24075168197770 0.00000000000000
0.00000000000000 0.00000000000000 13.52477415606886
PRIMCOORD
 96 1
Ni 5.829380363659419 0.06993216078413933 5.4600459993500445 -0.36267749793814313 -0.12842506024433364 0.7929577826269247
Ni 0.09684492606172693 0.4333718495782774 9.053294744005967 -0.17446554744316406 1.0261640384444068 0.7722321200437992
Ni 5.272976221750991 5.248229488674017 7.925111697495509 -1.879778772631756 0.5895416135876814 0.6361706263001302
Ni 1.9487266834221884 5.0687833312349735 8.078793715094408 0.7502314474029919 -0.584567814522174 0.1933654696714605
Ni 0.5551169051953496 6.591862509432522 6.374631842330132 0.45535239716606096 -1.0120875057466827 1.8819652387601138
Ni 4.183630206523546 2.4297078098809286 4.476132340747594 -0.6685665261323325 -2.852205469453707 -0.13883571405469639
Ni 6.973902907341911 1.5402022911145143 7.508697551378604 0.17894312359854342 -0.5659707682462769 0.9957867117041302
Ni 4.369295389862816 1.6257716519407956 1.8730329139474244 0.08317981525328899 0.03381720565976112 0.346773425113377
Ni 1.9233423384772863 0.9167851418868529 1.8323089211654136 0.01218137255754031 -0.19390257312185316 -0.8248561739974182
Ni 8.402624769837823 8.263348160078245 7.2630746746499995 -0.6338509770280181 0.5852411864401146 -0.2393013129716266
Ni 5.928921741069861 3.0607587440954793 9.176302086306503 -0.6082309624670686 -0.0814090965061114 -0.8728506995988258
Ni 2.2762466462478774 3.1624532166541424 6.195887982020979 1.6545200537961247 0.9668769706483155 -0.3719388686354111
Ni 0.235130927238091 8.933986474614585 2.8711071004689024 -0.5597813516061133 0.3131138280774027 0.9091307649767827
Ni 8.042438749720459 7.772673485076656 4.924911295650457 1.024198944298236 0.022226158388052045 -0.19908051777836683
Ni 5.548406067192475 2.6807697930655108 11.345149019890519 0.7964534544850089 0.4945730332295805 2.709389173484708
Ni 6.194380815417224 7.852106986768093 3.544316192130717 -0.05436314813191282 -0.16512781498200593 -1.826606559484151
Ni 5.48797155101495 3.5983856785310118 0.6659070496612818 -1.4087632150071414 0.19890079766739294 -0.5630821338445722
Ni 1.9014972014369702 3.2291899254972747 1.3235685765725322 1.8627562699318305 -0.19097794327589043 0.04457624394847807
Ni 3.830005120119644 8.482742087155733 1.666603761517803 0.2495697847771702 0.615941700847765 0.5086806762755562
Ni 5.3439082318700555 7.716794659491718 13.275688055798852 0.3879516991238996 0.5542583649053551 1.6216310163775878
Ni 8.999734423024842 6.717185584111358 2.4168502279528847 -0.13098999275803247 -0.023714570008120446 0.36513238723653885
Ni 7.950715048255916 4.1212458917354 9.603063102112088 2.0854130323682405 -0.9504643336182469 -0.3957668242929442
Ni 8.762053048315039 6.684205341261574 0.1155916390539814 -0.7439330159887898 0.8647149578655688 -0.5738031198065021
Ni 6.743706541516479 2.656614468097919 2.5032059767496104 -0.01503786816972894 -0.019812663850552976 0.2630927589642694
P 6.25634929637846 5.21147901912692 10.30952965917496 -2.1225886129772733 0.03733627455661312 1.361130957841159
P 7.1003256314741305 1.00506111888873 10.244800041603044 0.16156426600046367 2.3477293181778016 -0.16813754834260722
P 1.7770612389222076 7.786710186922781 1.7619803321329537 -0.2588260132681155 -0.162242780124727 -0.45840018285344925
P 6.126147104797218 2.3368659774595844 5.208187463368138 2.692247114487783 -0.022905186732947648 0.7906936691830962
P 5.343316823760674 1.4405777469386898 13.411977130530879 -0.26453771894091216 0.16663859519957752 -0.07807720391940103
P 6.989824722536693 7.382935540993586 1.338497935033757 0.16688567821337708 -0.11870037675740204 0.0678994920554508
P 3.538561051966288 0.3309066983270749 8.432791203792185 -1.5371327394231915 -1.0433109825373388 -0.5271275701268341
P 8.70115649455206 1.344935966749488 1.6750839993612456 0.08321863891102442 0.5330948434538625 -0.0011562250916302668
Ni 5.521312183181389 0.21284038596539606 11.458675350937515 -0.4929990038742413 0.5976197626101257 0.838044647663234
Ni 2.990298012313579 0.9325951439859549 13.002622918719728 2.194305421896286 0.42269733013520105 -0.11060037335808694
Ni 7.157784625601324 8.393975426238104 9.333014146390815 0.8838493647021747 0.5380254479862606 0.730691063377219
Ni 1.544074166080628 8.435974642755971 12.608633304775301 0.6281912076390793 0.09284716313972396 0.636240303195801
Ni 2.4735274544854886 5.712614225063211 2.3987272657009946 -1.0011832001293532 0.03257407728127939 -0.8368465135900749
Ni 4.967754192799364 6.249021380273143 1.7883811597658572 0.8112578664876933 -0.4478170080209642 -0.8057289662496638
Ni 7.45704636970058 4.929469758468556 1.2340986944498393 -1.9303554571380432 0.9311424933611835 0.810429714159443
Ni 8.490689133625562 2.5006305792482832 11.275752822705506 -0.11940897278865241 -0.4240677281201664 -0.728665548306758
Ni 4.638922043230983 5.508079426733955 12.128354475446452 -0.40359326231589854 0.06862042938187536 -0.13502482494903842
Ni 4.559885893863036 1.718826021651449 6.907967371671958 -0.3183185122067937 1.1319685330757474 0.25452378634833583
Ni 8.454871980001084 -0.01837800699906133 13.402740075122463 -0.6108033511799351 -1.0374869196563938 -0.46935488209274007
Ni 7.4466505240278416 2.4260669537075423 13.457474895645811 0.31206096133285616 -1.222326097024398 0.7948051202483086
Ni 0.1542152089725135 4.344373082503369 2.270850047249762 0.37437293199820043 -0.0933223030039296 0.764865909486715
Ni 2.518622322825905 3.240121734769142 11.77657569123403 -0.23476820098796342 -0.5171815146577158 -0.007100872710839383
Ni 1.4028385169587188 5.254152810519551 0.059873602548782205 -0.0019980042666352684 -1.0870241071545732 -0.5354988249096648
Ni 2.4119748073511627 0.5084852998457101 4.301324116591347 1.0172248269732482 1.0472442561534738 -1.137906495826737
Ni 0.1800126155188125 4.264828691791421 6.371575001664761 0.21589090446748624 -1.584569078528284 -0.0033835717602522376
Ni 4.343347359063658 3.980287465164764 2.7930144318504557 -0.37055767201716827 0.7433583744322424 -1.4619961061893532
Ni 3.470844823441991 8.927129836846431 6.293713351839041 0.6859682665485476 -0.6795451366310232 -0.7952843738775723
Ni 2.5376675120983627 6.261847543645375 10.945829340360278 -0.7511308192888095 0.11280843675299926 0.9682489112951776
Ni 3.680970276555253 4.410943457815736 10.045377227119264 0.7384935901407733 -0.5365961717389016 -1.0708374700923815
Ni 3.111157803916919 6.801590610222292 0.09335561821637015 -0.03132220715204928 1.0743192579933951 -0.23367548214441689
Ni 2.6332815700324375 4.939800918879333 4.726448595269252 -0.2338469747252747 2.3135130773074093 0.7728892940118238
Ni 3.569101736364869 6.653064008001902 8.755438518241666 -0.8529735010589246 0.5742039547893465 -0.9907872016070098
P 8.947551898123546 2.5588380742639147 7.932104174313786 -0.20991874604445138 -0.1738191721084168 -0.20415099032273873
P 3.748880560865441 3.487718436062811 7.978007608428749 0.03026805485592206 0.34724496543315686 0.08274966969440588
P 9.32428810455191 5.611520401365638 4.265226968190084 -0.5576082552141945 -0.8499838223029814 0.8751340963163637
P 0.6238071089497856 0.33964937351905594 5.287821489371663 -2.2979000533605007 -0.844230721869288 0.13145664798180587
P 9.193790208915978 7.6204875451794605 11.666240191752186 -2.034400802986432 -0.7569266000349802 -1.0680591360162959
P 6.184604100108994 7.234335012759522 6.4908906636575106 0.552406656408597 1.7944124912501096 1.5929195073755085
P 2.968369708507881 6.743761986026735 6.126925176091124 -0.36913379508644817 0.2049958548215373 0.17018543201057143
P 3.7969232290010604 8.0526312988556 11.795442533998502 -1.1143911863136162 -0.4740985674253126 0.2681462622277769
Ni 1.8629909890651437 2.3694581087375854 9.186824530277658 -0.22587732625623677 1.5930688884691788 -0.28048781451226534
Ni 5.768298994862257 5.940019883872493 4.920015545394975 -2.132513071179837 -0.47497891314773677 -1.187087328426762
Ni 5.501148862952129 8.991112801680252 7.911343901524119 -0.14490865972165365 -1.5628766811565147 -0.3616801670218803
Ni 2.328382967390629 8.506962097385289 10.145068304707394 -0.10388259501827915 1.3554153955136206 -0.1600568282170018
Ni 6.808428766487028 7.34256269677652 11.639163865169346 2.7270932756326904 -1.0723202252854953 -0.24740183059157392
Ni 0.7510356266310387 1.6803382907830409 12.987542936005646 0.045276869559928476 1.0123970665673017 0.8437059597140696
Ni 1.2581560674493144 7.409548905915798 4.529825728553329 1.9600470706652051 1.1942069701906786 -2.2284949232938005
Ni 1.8762329862642861 8.112834796240396 7.760109759052962 -0.9478135262589613 0.06060038729087627 0.5397802258938381
Ni 8.380530132501361 1.9868170619671055 5.721114792560413 0.7312104262157987 0.33868833411239735 1.3375845379797868
Ni 8.832966576930687 5.360079547360984 11.63172506004352 0.6441299903565229 0.9434997293749557 -1.3181732233327106
Ni 7.560459622077137 0.6783173792066053 4.041378074713635 0.3023398773903503 0.7329410357536602 -1.5267724792347899
Ni 6.764655325641013 4.611624862682297 12.35106768053785 0.41444383187715716 -0.23973274408209036 -0.13695135254778995
Ni 8.033752443113904 3.689776712934027 4.1658870391669 -1.35705781621305 2.1237620644600845 0.8417802034462664
Ni 0.43580216727777116 2.22726142143793 3.732526278490673 1.7577704145470439 -1.2350049780436474 -1.4530178139501426
Ni 7.2064649056048715 6.120972283840121 8.659426183908929 -1.2951603073773048 1.6322751263549953 -1.2005588805506355
Ni 6.6871993448153235 0.3394340640042339 1.5559845709584892 -0.7984961959466507 -0.08445019732528036 -0.27730093214385143
Ni 3.8461302318520265 6.975529279642713 3.809590451443897 -0.3825415838519218 0.8994567322221284 1.32491079916686
Ni 5.136850708324215 7.527590268247862 10.103547759128059 -0.612918340640409 -1.0921233760543514 -0.24578512092375732
Ni -0.09505499245567395 7.151491673687426 9.338761893953878 2.1627248188765265 2.9338922451012373 3.043055371792166
Ni 4.140420451531786 1.703717392607068 9.885000284907122 -1.2259842626022757 -0.268794180224421 -0.2442910528767341
Ni 4.723456439865845 4.042329872139672 5.988485778436389 0.2585182522197096 0.25785207939062044 0.18090204709712715
Ni 1.4482106078504078 1.4154891060484789 7.076810690599979 -0.8324486416326953 -2.8169528168990006 0.21480178516836554
Ni 7.576788030347119 5.64546168239317 6.045884707677474 1.9434747681288207 1.2209865522773682 -0.5485255761866359
Ni 6.947603727977807 3.9839560435932775 7.219510998867781 1.1290300192727136 -2.7911245429819864 -0.17310774786368896
P 9.152012770439129 5.560021692090816 8.21864047923444 0.11637172862422537 -2.798399736487161 -2.330742039591186
P 6.1729330307004 4.975137553414936 3.071963155542765 1.5702459770373924 -0.827698785652536 0.26592431487579365
P 1.3238947751078636 1.3014767114615828 10.906215161858533 -0.08501018359380844 -0.6276757014552415 1.5839751536980269
P 1.19545756710306 4.535859939419373 10.507261416095973 1.1980780231103108 -0.6420160293373137 -0.6624267317831817
P 4.469252601100168 -0.08593344644361971 3.730145860850408 -0.33073025560758523 0.5536958075336658 -0.39358884280501893
P 2.4911495679947455 3.227960905519964 3.572393292123651 -2.8057096398850128 -1.3553865991582141 -0.9461590213746739
P 3.6310609765743953 4.768837771509243 0.5513439062725234 -0.46312767023610557 -0.8049182974229105 -0.14144795486656284
P 8.805891174423019 4.099761144011739 13.367346147926261 1.054604553173287 -0.6912290007268547 -0.23037958500196457
