# total energy = -340860.05535168794 ev
CRYSTAL
PRIMVEC
9.37627735837376 0.00000000000000 0.00000000000000

0.00000000000000 9.37627735837376 0.00000000000000

0.00000000000000 0.00000000000000 13.72312968262278

PRIMCOORD
 96 1
Ni 4.397820913683348 7.447942628735722 11.256039777103354 1.111887446055156 -1.1031937749359 0.012409686518262499
Ni 2.570759544878036 1.6913866381955778 7.830445042889485 0.22678595411343522 0.735383583756882 -0.3292274458098136
Ni 1.388054695558707 0.6003864677102851 2.48915592943625 -0.9673868204051983 -2.6089040341837517 -1.0340946061453933
Ni 0.04142720540794679 7.161647381711698 3.6715954301117466 -0.5316110598194845 0.4504369621423146 -0.3150483260959542
Ni 0.17527074908692242 2.612709008924197 3.038506382897617 -0.43014504466249787 0.8515545092242109 -0.31976655750722993
Ni 6.297248389665297 5.853797361041427 9.233964032380094 0.04207147524875335 0.07593316099320471 -0.41785568577218357
Ni 6.456382565747426 5.552050009245818 12.042526594028704 -1.3962239448895502 0.6706637749809934 0.25501692393467046
Ni 4.167014474934957 4.957978464207658 13.169538232230154 2.4577532502071286 0.007496308377045155 -0.17406291268810667
Ni 6.728519634248943 3.8165854920871185 0.48552050901777133 -1.5283205404482003 1.9126737235875644 -2.8656191717564514
Ni 4.568497286958331 1.4224562564852525 0.6498228890744748 0.022827539417476814 0.1991846474563989 -1.1273690866305228
Ni 2.026860458961693 1.4959287643676216 4.36051083157953 1.3972068776281097 0.6061357705009367 1.0406038680188208
Ni 2.6579776750875554 2.391691403538388 10.60372467355783 2.894036032336248 -0.8270233568520661 2.1520840513332296
Ni 7.877948075901792 8.45057607505851 12.93885274745722 1.2808035244350007 -1.044539198517485 -0.10912558858477335
Ni 4.167089485152295 8.517775853516007 6.657254302011738 0.9943816038264875 -2.765594774141998 1.911812146918217
Ni 4.563124680141511 3.7614342297895056 1.696425449545244 0.03216887142306073 1.44028339710261 -2.2158633505727194
Ni 2.0399684944414727 4.8434284860556795 13.071348920107267 -1.4372613224468342 -1.300084741262116 0.931761357892105
Ni 5.369212604484945 3.7315614107347295 8.067196978989614 -0.9808156922165946 -1.1818636181339777 1.1016547125835543
Ni 7.7649826885910755 2.6280579746469432 8.323558461157274 -0.36266978462865923 -1.335921291344751 0.8310175656131236
Ni 2.215014212876382 6.882881285252955 11.37215184303139 -0.8095403695759542 0.637434066393586 -1.5651672769629044
Ni 9.279392095255295 3.5191699803427663 0.488531231616167 -0.7109591321659303 1.249876238728525 1.2579201920789238
Ni 9.112494361678705 1.9801665986689165 10.430237292388114 -0.9450223366670693 -1.379354165717405 1.1535069213681552
Ni 3.4554394244371434 8.502370630130258 1.3387598559797422 0.5951967549909297 1.3329892052996204 -0.3151892225491926
Ni 3.4503199771038386 3.3908368747549686 3.6170742536397715 -0.600411723532966 -0.3944761305059787 0.8007983617172659
Ni 2.936228076302102 6.30510570993143 6.1221623532385685 -1.3183334030596587 0.7723791871446246 0.4749562874399175
P 9.227091221216519 8.888504476430885 11.118918286926716 -0.2867484507099965 -0.6244844482114535 -0.323197694675966
P 0.30218428631160266 1.6107412782802821 8.478752725573736 2.920294708922461 0.6952278374736026 2.2598556969932693
P 8.717621825058224 4.459469936057848 8.381126927708598 -0.28471985031574193 2.181754324704152 2.263895928500914
P 2.852854219731144 3.7544957846857594 8.148396476885491 1.881714041981256 0.45761033996230216 -0.7954262987720753
P 7.325994767898805 7.012077008340137 4.2777323686086905 -2.720770675848772 4.301057839172251 -0.6046643281617328
P 2.8005064643065314 8.189981203749849 12.864994874583278 1.296158409624516 0.5548366060063283 1.1488779072365762
P 4.6125939184757865 5.046387381617415 10.306673898995282 2.089409555122144 0.7786092272147365 0.31376817383194994
P 2.6662569278262147 4.8384871879885525 1.5760743687099041 -0.6642499010348496 0.06732047962352922 -0.16135086443807697
Ni 0.7674623505530535 7.65120156516681 9.309757168861351 -0.355731148527297 0.2980528199792221 0.3951294478192614
Ni 4.22912293489065 5.817061107100243 7.8177926944800324 0.5525272411468614 -0.2307174279573575 1.3393274888128224
Ni 6.631222006084657 7.772614978205196 1.4645051090693861 1.0485609180823683 -1.6860088684330254 -0.08896916824155646
Ni 4.332937075686156 6.263024978004929 1.904756951923799 -0.13247634749557186 0.24142401574158423 0.37823395761550344
Ni 5.50221509610202 0.22225339871644956 5.214199302217811 -0.2651936073573562 1.3351584450367973 -1.2789811265142812
Ni 6.243691094486112 8.922934166188933 10.931007378590659 0.2848306648619933 -0.5209021580424126 0.0677933054948897
Ni 6.945636708333186 1.7591114881744383 10.929319648700558 1.253339257576461 -1.710419436066906 -0.9083285807904615
Ni 7.299244249140713 8.69223086648938 6.037161712579098 2.208484541610145 -0.6333904924518317 0.3233938698471721
Ni 2.006270154302469 3.3876020591322757 5.930574068997526 3.330261221754555 1.9616835778273634 0.6150775530752568
Ni 6.05507790299023 6.971065172010698 6.43385605985317 -0.9862929132810822 -2.5185210163138048 0.13590825599525627
Ni 7.9935388208193325 5.2697209274635295 4.694065328409515 0.9816176192925997 -3.0299792553344975 0.22586061408568844
Ni 0.2240086378021539 2.4039180689644484 5.482211746393465 -3.0743958337766597 -0.1306765752826717 0.06522143100265543
Ni 0.4097273725365143 5.505299891290037 10.43468352302081 -1.0918243567566939 -0.8874707635048457 0.10944209138392764
Ni 5.376432337903708 8.592373514658442 13.305479249111439 -0.33091974591057205 -0.1887544532620104 -0.2251571602607606
Ni 2.6170502252526218 5.6483349994760434 4.056501921731185 0.12706031868632311 0.04527841222182525 -2.570068035153161
Ni 8.31715165096891 6.81655350057201 7.793928193834013 -0.04209564361846944 0.021868775048633302 0.16939867444321793
Ni 6.147002924337697 1.0449204563469692 7.69280223170235 -1.2943344690419 -0.937329853118818 0.6223643165446572
Ni 1.1813452891300815 3.3047063926968465 9.430232954183017 -1.4924688208569132 2.6998748062363696 -1.921352996529117
Ni 5.421776014284404 2.6250200608447627 12.187387263379168 -1.7680985359459291 0.9656089025691693 1.9547156311499625
Ni 6.924708857695943 3.9000062300439122 10.395092192682206 0.48700833350844513 0.6972230135267604 -0.26696869697990794
Ni 5.478427480928772 2.1791874578204182 2.8732523107084402 1.7476531236073836 -0.965418383824918 1.6653505687527255
Ni 7.38387452685208 2.8919345429641345 4.3867353411885395 -0.37285803801557077 -0.43788432228828456 -0.47827172496639564
Ni 4.432250603441395 9.277160541289497 9.241690084765887 0.154234822218586 -0.7150451293098461 -0.353219694959353
Ni 1.7822990216089838 6.969771245761622 1.617970387976212 -0.4720056894520258 -1.7029002448717254 1.180081329422574
P 8.874711972717899 8.722234953424499 1.8632303579778795 -0.6021888700380468 -0.09838249113565636 0.7126465471706822
P 3.765831703780934 7.575075570846116 4.573054157661602 0.05240885261901941 0.07606325881316578 -0.5445074561661785
P 4.91973262964255 1.8809280811310154 10.20420337871784 -0.7522410216338528 -0.28398708591477545 -1.409064034077012
P 2.7662361712603265 2.0447597720739243 12.904228968761812 1.228746398728445 1.09236454553088 0.20564043038407165
P 7.536229654542306 2.978308808228604 2.0277708954746307 1.7250274157880678 -1.8092395289606131 3.0649118055456244
P 0.7434431413337752 4.678171600983353 4.437731037445638 -0.2827552703902034 -1.0151859421663483 -0.2556923527351403
P 5.16726634685727 4.689535648910028 5.9849039694152895 -0.14088565460518962 0.5976873826232674 0.3530985960004564
P 6.970155673125478 0.9514014678810748 12.984029526104342 -1.166053133464282 0.9647858924472416 0.5967155056283013
Ni 0.1935863689053782 4.982375537396775 6.61770422729267 0.9544896527275561 0.9032725064237926 -1.790357861564762
Ni 1.144271489210877 1.0105657768062597 12.055838094723013 0.2934582586300043 -1.7656372188896303 -0.19626413137549426
Ni 8.25847490845642 5.984127613665844 0.3491566220362458 -1.4939988843481946 -0.005765955949499747 0.03783455434927032
Ni 0.6119971117264589 3.2966709231645352 12.06556785753944 0.4299488694912918 0.9415649742460882 -1.0998058323002735
Ni 9.27434765813933 1.2504672044068588 0.29577841375095504 -1.904908220709532 0.6564913401353532 0.70631957651139
Ni 5.372044240189447 5.06889982309592 3.837028589194818 0.2784533005807398 -0.15926441422269344 0.742036056076393
Ni 2.1184479343311393 2.3619029709781167 1.2598547331066834 0.2563981205529133 1.6111090338003415 -0.60253931139893
Ni 2.6164876486225888 4.83917165622176 10.64654144324196 0.36156883825499664 -1.522675426347281 0.40731827657596953
Ni 8.775839129989519 0.3500914368698181 4.515334733047887 0.7990070741447981 -0.00973033991388647 -1.192340349295585
Ni 5.537113599718429 8.231011792633621 3.4004128666258544 -0.3312812430150488 -0.685735067491819 0.09943355810799004
Ni 8.136330145798992 0.05629423048429752 9.325909681537329 -0.7133165766545134 -1.02693356962058 -0.6056058661393957
Ni 3.838422841609584 0.3985499125254663 11.74467977353466 -0.11094824361580892 0.621624095944523 0.06401044141368976
Ni 1.9456337698620298 9.005642307081017 6.880721928621343 -1.13035850827615 0.0826671372829286 0.7843880386800427
Ni 7.192382818265859 4.144126982369762 6.65017333749505 0.3482433247906841 0.08186341043471061 -0.7489330403065424
Ni 0.8488259332993585 6.674418514994058 13.133007318758933 -1.4074930900454663 -0.2660338438704644 -0.3704733398334781
Ni 1.831946409209436 5.556175571199397 8.390911072932596 -0.7746651549653238 0.3995347759758087 -0.013463581704073586
Ni 9.110656611353928 0.47988442881255283 7.0631027086841724 -0.2524031404609072 -2.342628763726443 -1.9763234392277254
Ni 5.190125710590962 2.474324534213135 5.723313337471469 -0.16846510688535501 0.9477248231998968 0.0919760733886803
Ni 6.9472775568374505 0.585571012158354 1.5788600606562864 0.3658106442504861 1.5970098753947979 -0.2310241605644989
Ni 1.6565537685193397 8.539885115076322 4.577651346356692 1.23727809034854 -0.73948269352692 -0.33996128728755
Ni 0.9927133450798646 8.711395977019187 0.3016151462875521 0.6471957737660402 0.28819161091442624 -0.17585420026057455
Ni 2.106980747355624 0.32146847556143265 9.698958933051095 -0.8465323734192711 -1.1313632953915804 0.18907944070159693
Ni -0.012558585637780124 5.227565185319689 2.3470528232006664 0.48735671798679936 -1.0453195283269352 0.36828070305753347
Ni 7.988466254871865 6.978369291923966 10.62374677582072 -0.17786454582238398 1.0686805716503789 0.22070786624015537
P 8.460730583230614 4.922620523010056 12.179812169055767 1.3082577639912112 -0.40713727091341495 -0.14373160869441695
P 0.24624541673194292 7.862749130613722 6.168615243208149 -1.2633562754928305 -0.7398125660625129 -0.33933290967493174
P 6.279302195167229 7.868562422457401 8.581456715152642 0.23795816868017086 1.466588867766358 -0.16962236041824982
P 5.744760633863777 6.180926295128714 0.3279868634480869 1.0356064148042292 -0.13834437624057466 -0.548547430563507
P 7.551269203118534 1.5552243411731475 6.227144778169111 -1.4898267552483762 1.7752665144492783 -2.391264522456275
P 2.7391293539698816 7.5668525757704606 8.276144502778054 0.829474646606036 0.142685941038722 0.8170469623656444
P 3.481758634445541 0.8950584807555076 5.934073295636335 -0.3921783356107375 2.9722937276975716 -1.1012664760062
P 3.6496971347876945 1.1613081848237234 2.576435005447357 -1.2393563130338074 -0.4789664370405751 0.3916389181674997
