# total energy = -340863.1816708456 ev
CRYSTAL
PRIMVEC
9.32648755361780 0.00000000000000 0.00000000000000
0.00000000000000 9.32648755361780 0.00000000000000
0.00000000000000 0.00000000000000 13.65025727052939
PRIMCOORD
 96 1
Ni 3.9784836740935834 0.4366633427242301 7.749688030733671 -1.2895321625572502 -1.4126481518838445 1.1453812069372273
Ni 4.230354793165482 9.410239269834998 10.436822527046662 -0.3735990299466534 0.2239435995686337 -0.9083244670254034
Ni 7.533181086633882 2.6690821472766455 8.804579975189611 0.8972779794032547 -1.403641320399544 1.3727148060240166
Ni 7.631603508301873 9.417420665142906 9.55878316750848 0.07975973382814651 0.20872678261887923 -1.3820324838805167
Ni 0.6816571099778799 4.819238534901346 11.999667618713307 -1.1707042590830483 0.8710666111152096 0.26433537312211897
Ni 4.861133116359945 1.903358877705402 11.874112579863803 0.7000417139224783 0.3661757408993887 0.2933631278130367
Ni 5.041190282352765 4.628717050031289 3.4180513148594134 0.10557695200156657 -0.409004920249773 1.1435912049163401
Ni 2.894092982599485 5.798575672176904 6.649927287983166 -1.0529479914064706 -0.3718493942453983 -2.162309071495347
Ni 4.184580392943128 7.897622908779091 5.720631418921348 0.20710698762726915 1.1329103281637263 2.148326898283642
Ni 6.057441656808453 6.887788157663456 11.221289238371545 -2.389571965245201 -0.7314533954645402 -2.7815919209012034
Ni 0.3126434437028839 8.427852371175431 12.245727403478249 -0.8012529327561813 -0.9260506806605728 -2.0024723297089513
Ni 4.222539196713499 4.197926596430942 10.362920373435841 2.5088220438584856 -2.1220247700540034 -1.1398643908840562
Ni 8.813092260251334 6.545720578821716 1.1312824049085133 -0.1579464667422183 -0.08239897122320648 -0.26473260856053765
Ni 2.7909793377628227 7.574357528561693 11.201892009850264 -0.05124157178379562 3.738487097746458 0.3122921035070557
Ni 6.048376311043146 3.5069644499612442 0.7137933876563973 -0.17978953075923876 0.22514584740685098 0.01280460796383601
Ni 0.8380772262715277 6.1348981347723175 9.979825576464897 -0.6172228815530338 0.6348598779085066 -0.9232255525069518
Ni 5.386177051754731 4.939895302561611 12.527100067534528 -0.9123950375503512 -0.3270674620440174 -0.11573589481243939
Ni 4.988243813309916 1.9848817041812763 6.739964264818247 1.0779118604406597 1.5233889074745377 -1.1747730298357832
Ni 7.497143539270563 4.772298323752383 7.630616765933591 0.312214713301901 1.0562557156234649 -0.5571660254704534
Ni 3.743521476701214 2.2913407540806876 4.810337335314505 0.9555432908030511 1.371165973479658 1.7137518428742486
Ni 6.713522740354027 7.3079464156131335 2.369043451312252 -0.4684179721007675 -0.6570420704325007 -1.706670767657751
Ni 1.0176503475676189 7.67745252042353 5.355637468721297 0.0734366198235961 -0.6616818831973573 -0.8709239148897582
Ni 2.543668871035816 1.2369626990811968 11.967781290897454 -0.19013256455645963 -0.8616864554518902 -1.7136924503912228
Ni 3.4113213215422884 1.8138619044915256 0.5133531834227566 1.5426827227071434 -0.5713929677031128 0.36844165411543
P 6.8935146209349565 7.1005439885257875 7.019945416952528 -0.8384755645530657 0.23441081764854466 -0.5873723738505046
P 8.614372792945368 6.822353521974778 3.4468403162054524 -2.603093598149562 2.150884631708489 -0.6321900443858274
P 8.563991107941057 1.6432711232227672 13.009827864239652 0.4739463581181645 -0.3654679161990867 1.4982257779453487
P 5.173216038169316 4.337516133539329 5.835539339740322 -1.3174759401553697 -1.0816001079255244 -0.24760880439605745
P 7.476252207465739 5.33943269684144 12.449648252814372 1.2635074563587143 -0.5235637640349756 0.1823385224333376
P 9.1834470754163 1.0071114167910786 8.277420792449586 -0.06804501649437958 1.3272253062326498 -0.48466914385230725
P 3.4083554985449966 2.712524925645782 8.64891250643018 -0.39928100809378975 0.6642735551839334 -0.27404797242419254
P 5.135956720954911 1.585167106640603 2.031867615118561 0.6626270207194459 1.065673666503255 -0.038980237917939316
Ni 5.975527117861239 6.809007318486965 4.501841380564123 0.12190782795110619 -1.3482952395290717 1.1449194368094604
Ni 5.536277540177421 8.149960352221633 8.834910644904998 0.7118214801662257 -0.03715372623216182 -0.8751443807290088
Ni 7.913552549280269 7.1571557671218935 8.923432067535487 -0.006549371082743559 -1.3047469226244754 0.8082838714610336
Ni 7.41705699185627 2.4995172796233023 2.3256211912154234 -0.6449020926358571 -0.07715597765671228 0.6106228597380129
Ni 3.8747544810876717 4.434007972312855 1.0972938868298003 0.29942913150145856 -0.07984072357772701 -0.6528465442939144
Ni 8.454451513276931 6.204902749293301 5.649800477615585 -0.879311367622505 0.9834562151632353 0.009597413880447988
Ni 6.851265632954666 7.474200380234909 13.134932433747116 0.8813849623220821 -0.6053932359079573 3.760602184477943
Ni 6.392299860880047 1.4263276995120577 4.589202588160452 -1.8499789156615043 -0.5762654653040656 -1.5535502615492665
Ni 1.6105444788910155 3.0365364248562097 13.091988622454567 -0.5664639058326115 0.35156596140601387 -0.76082902041318
Ni 6.654252912845254 -0.057151782217310446 11.698407152897827 -2.4633055474839254 2.8088515279481046 0.42419859727107595
Ni 2.7240617905754987 5.181078267058363 8.798832993645801 0.07921723106111518 -1.182046937789377 0.635562560402486
Ni 0.19283725169467125 0.5024794317480944 6.115383392509633 -1.0660418484759513 1.0159379898410246 -0.6559454949342122
Ni 1.927327950356471 3.425199134812635 10.37358148119749 -0.7578390845469207 -0.5097026897821674 0.07419072438080127
Ni 3.6264460802074887 6.969031189516944 13.52385535270236 -0.725782313221692 0.2830542896878609 -0.6249608736272398
Ni 0.2201330824059104 0.30585562616379897 3.074952226509811 -0.20350590053957207 -0.004320738862540945 0.4512813124204808
Ni 7.495436792074009 2.21289566845106 6.387118997122198 0.7534260430808896 -0.6756087776910944 2.679331177757063
Ni 3.0271912844685165 5.5891867032706175 11.413799130358026 -1.282929569639068 -2.8206366935084906 2.109003160983355
Ni 8.559728903193378 3.7553101567910785 0.24949659537658228 -0.2589522544333347 0.05127808144868588 -0.34612782110957807
Ni 7.268569985756008 2.4004886362734754 11.485558057161368 -2.320592866972326 1.7795558858532514 -0.036733865085923835
Ni 2.0721589733908896 1.8293811795465371 6.565199880432231 1.2770121757133686 1.0814977780197053 0.8837917719913618
Ni 1.1840815154502384 2.011415560870884 1.3404288851420658 -3.079010706840852 0.5886864646762379 -0.489313327492538
Ni 3.0340835586666257 6.627849626979426 4.3825929125032 -1.194789067946394 -1.649425927102669 -0.6087930056181258
Ni 7.871518070510475 8.575929011829528 4.762683647878458 0.26831158416104756 -0.4416026516801363 -0.6990166150920736
Ni 0.44758839007966306 8.22088828899649 7.813912088356158 0.7633458732977627 -0.6993084353008795 0.7775509611535512
P 5.884519253686479 1.3392089805884626 9.578385578752844 -0.5763510830393364 0.24140704646071975 0.6084613333103198
P 3.655619332834938 3.4987478145505078 12.72931510232284 -0.06039469903797341 0.4293791130307508 -1.3017652142883323
P 1.4101928762877969 8.520604288496399 9.946505767533687 -0.4119444624940712 -0.6513177663542138 0.132020748015392
P 8.987040576988726 4.000960508758594 10.043380924939882 0.8357975035002702 -0.436199478386694 0.17890250016859513
P 7.928894621074436 7.812574670061153 11.148219940086694 1.856306657651745 -1.099577004118919 -1.7694589066285653
P 0.5398198894029919 5.9713301985254486 7.513975051104564 0.5399776866166248 -0.35643485946254094 0.19122811161348358
P 5.410202083330279 8.81695342604026 4.012520689906843 0.7082062520111416 -0.06265315605484695 0.2518837776223275
P 4.319646583656275 8.883255425058335 12.550674629768034 0.3918664607972735 0.653313456628004 0.42271712762954294
Ni 7.107128488639272 4.08278178283168 5.104718584014253 -1.1584943472804177 3.0998975775921904 -0.9557420370774186
Ni 0.9968989130739887 2.472265283402903 4.429576958143002 0.10966346336611436 -0.0982109985547986 0.7842641115076686
Ni 1.5507896740367737 5.031994365763677 0.9429638363653763 -0.5213837256645214 -1.0774796579992476 0.12702663723491026
Ni 6.43940794880244 1.1236458770148574 0.2730991370723259 -0.06451746295709535 -0.12005740500592874 -0.8032802475988553
Ni 5.565553384166412 3.5878810547552815 8.248919046915864 -1.7719821872710515 -0.022752206094851138 0.7786614206089105
Ni 6.123566452565684 9.187886483424826 6.340544384279822 0.1949922066416061 -0.7581031368415847 0.7503553745753657
Ni 8.409954841830139 9.114384436124016 0.8056042623974058 1.4454168616744332 -0.18314764859819424 -1.6286164465564854
Ni 1.5243957146583589 9.325265643016364 0.08524502760234977 1.465203043162425 -0.24887070182761659 0.9449315767254757
Ni 1.955839022377607 1.127758857963932 9.336530174513625 -0.11208621387499405 0.7231965547723868 -0.4002104618865946
Ni 9.060906357298636 1.3627024023814758 10.920560382338598 3.496847623559958 -0.44828469168600216 -0.6015530362262608
Ni 0.42696566111233053 3.221014345882728 7.92183073950793 0.8297919207361387 -1.2644631354037643 3.0159073506224643
Ni 1.7579309594765595 7.1150653294276225 1.940233943638397 -0.11446679829202867 1.764881314560212 0.47161462466119425
Ni 6.982638534652318 0.13714786270369841 2.399524277474985 -1.396657689992859 1.5903882563132223 1.8931050574270172
Ni 4.079442900337874 6.817904787478839 2.359938001651069 0.8860270890797838 -0.8839923180379422 0.34470111596538056
Ni 9.413317010681244 3.587601260132896 2.5029111883928445 0.1869163716120071 0.9982146044193324 0.691063421683268
Ni 5.041572668336692 5.7557670949518425 7.4973897585382625 1.0949611026134627 1.2955526577197172 -0.3359575654447956
Ni 0.7893425989443301 5.626362082098307 3.7425048895732114 2.843195809755929 -2.1568809585012403 0.6441109641931294
Ni 3.2814220048558704 9.04345649934916 3.7717704744260483 -0.7976647011842909 -0.29619982593088345 0.00378954894941928
Ni 9.238743819287192 4.094561136434132 6.081257775065952 1.1446034482309384 0.16288144214999045 -2.5696237485268902
Ni 2.892339602965866 7.442247834358426 8.229904204378508 0.43595702335858466 1.7791244547427876 0.862750120829714
Ni 7.010729914739874 4.883703215899086 10.092740426923744 -0.20568465335844577 0.04889004083248354 0.6855674315657031
Ni 2.7155094016178993 2.05954023592128 2.982990262672714 1.5647178481303117 1.4220856431476605 -1.2157309603053836
Ni 4.498519285747659 8.796015461798374 1.3304915128036554 0.10208205147443064 1.7307350076958061 -0.6072002072097091
Ni 7.244470342281158 5.086358460893282 2.6503069954658014 0.8157619250056338 -1.0432374489869258 -0.24252419078429846
P 2.0906907038802576 4.148570825042047 5.511687323464654 -0.41376068976720354 -0.8850624111736692 0.05278500501151555
P 2.139962536882436 9.654499975177997 2.0338336386651936 0.4856099104990217 -2.846144607971608 0.6906438176473461
P 2.2912754686687977 8.975335835285577 6.432519405199296 0.9802557059480665 -0.20398952504421 0.26943721312505853
P 1.3805346463148782 6.859612839189182 13.364803301660801 -0.2648997302660212 -0.18872694245818464 -0.3776703718025496
P 5.348628613430527 6.096463680143891 0.7635912345486617 1.9306539622150685 -0.25301609145455783 1.1012891017140194
P 8.207504779559025 2.5237381674345185 4.425290504528048 2.0659600658499517 -1.1671026577747192 -1.969922677907704
P 4.676403380173281 6.32137192410519 9.545583389873048 -1.124049792449303 -0.9072911406648826 1.1381353240080916
P 2.9284797416907273 4.775338758648978 2.989993522071036 -1.2516649551978314 0.5008480676050148 0.1910450490684
