# total energy = -381168.2422867346 ev
CRYSTAL
PRIMVEC
9.25118011983887 0.00000000000000 0.00000000000000
0.00000000000000 9.25118011983887 0.00000000000000
0.00000000000000 0.00000000000000 13.54003722900354
PRIMCOORD
 96 1
Ni 8.255013119942607 7.999652792762026 4.1476658067545955 0.4259256072645116 -0.6437600086116139 -1.4535207217284902
Ni 4.894706934317771 1.7342447434672326 10.283333454627591 -1.565706437295826 1.4588495901405716 -3.0356490520257653
Ni 0.3895116913238116 4.047659623627587 3.2499072266562647 0.05711731383828227 -0.5076545490038871 -1.8093644845742516
Ni 3.786767090684808 -0.16855650332319605 8.589393327956635 1.6079342356167854 2.8470835748461094 -0.737467205758788
Ni 4.846258503587609 2.4577795472491846 1.0641493821356893 0.5929822638381143 -0.13458953718383274 0.6216390083428585
Ni 6.94462044871772 7.264711283788115 6.29132430551925 1.1043787963829366 1.4434322271442366 -1.062474185729351
Ni 1.8467853506531096 1.821168832667274 3.361977873887761 0.5130569509663809 0.030172666928638358 0.282048731241482
Ni 2.1467178640582327 2.394177683344301 5.855687154814587 -0.5081116911459637 -1.298901519587292 0.9609886301883385
Ni 0.6371056527228433 2.402744276213526 1.3626692403236085 0.35450293254715076 0.39108124589181675 0.14433761770953207
Ni 7.232322901892698 3.691951744770459 8.392250677802009 1.55326975419437 2.0097025289088037 1.4215909628994292
Ni 0.48355086321901575 5.686247163781875 9.257648629545534 -0.502281971838064 -1.5683652150749117 -2.163638074719416
Ni 4.709313283022665 7.460854806480673 12.780115977618301 0.866802693632533 1.1720659153172652 -0.2444664021123338
Ni 7.410759665674136 6.162803209648385 8.790503809300906 -0.04828068938325879 -0.21761765735060584 -0.5065101509867986
Ni 3.924535666287938 8.425466115207694 2.812997113555483 0.2249923525481222 -5.020527065691722 -0.023554390281172337
Ni -0.11757694968912337 2.4108113053517166 4.935939444488545 -0.38050115638312537 -1.1346710196085747 0.6652408041932092
Ni 1.6531581489761342 7.01508668833423 5.152471643233461 -0.46323925611330546 1.6173807257416664 0.05130019293587294
Ni 0.5724602556909097 0.3553452325931185 0.091103772416365 0.17769768122721655 -1.2979401841152873 2.6233387215518436
Ni 5.752587377027245 5.418555013388901 6.541083968204119 -0.5846032957457996 -0.49266347491169343 -0.29145742614989156
Ni 6.350731684319483 7.578650084022619 2.0725872319627823 -0.38800980605534463 0.4654874287175338 0.954607409252343
Ni 1.5733482173532356 8.779360762744771 2.5169843252029422 0.46214088084280414 -0.730910892697509 -0.4150565257604916
Ni 7.796903927403565 5.996346724231576 0.6911380958243504 -1.0529580187087995 2.6885863778067436 0.5099279184190959
Ni 2.2662246099379826 6.386283969844786 7.442538394794087 -0.44189190078578094 1.1488449971161119 -1.0947114484965017
Ni 9.126594560534718 7.312937686193375 12.850050274373059 1.4078587009150012 -0.28869349025150925 0.16522320290928966
Ni 9.014812550125598 7.459420873548999 10.427494595751925 -1.3263477887237027 0.6811237939720528 0.020982258678621926
P 0.32902655002977266 6.179381324574575 2.977793012125612 -0.35396171533170007 1.1314594546498127 0.21619352330956962
Ni 1.2430440793372428 3.7534535907689555 7.689563408610551 -0.17611850966555473 0.473989552651274 -0.31587776397578504
P 2.2487491305319716 1.7934522967750512 10.741934809953504 0.3311262054944233 -0.24627337341408556 1.315097412620864
Ni 7.546132185604341 4.495296480175309 2.3238492863128375 0.7425027113001663 0.050178934847236165 -0.7344132494238126
P 8.736694319642325 4.851975732953894 7.211396732270465 -0.30076199138026916 0.7427251117236177 0.5131852490141291
P 3.756821020363337 6.900094518394201 1.189855343870372 -0.03235193396814428 -0.49512864862273437 0.2618318899739749
P 7.739833396722951 2.6134584077279297 3.2188325123498642 1.4889983458098097 -0.4666603659797124 0.09744480981273541
Ni 0.44378929070073386 2.117983698343532 12.439570783116096 -0.046940630415596575 1.1331869788638809 -2.1163441747294582
Ni 3.14090519589855 4.889840813530285 8.713163017674548 0.43154809565761154 -0.9363299510993939 1.6542356897864867
Ni 7.934283953438113 0.38739502129305703 11.695112585065973 0.06402355403981233 -0.6017283854618605 0.39060199226255315
Ni 0.29733663223978324 7.366261488891229 7.029702627939077 -1.8651173139648394 0.9534447564028097 1.030629273304612
Ni 4.748020220997651 9.156660896198845 0.9664754215381971 0.20593919257141305 0.9421082483440679 -1.9742763268907095
Ni 2.139094891569851 1.7399249681127014 8.592101148402447 0.7232184091492576 -0.27595984473492474 0.20233784837339994
Ni -0.021796705679461154 1.272065031638278 7.760851153029206 0.2947435531003311 0.41941377428792287 -1.311650077502212
Ni 3.2985545577608217 4.6630481308207266 6.198818979301927 1.4367920961198997 -0.3029217180357493 0.20462947262105402
Ni 8.656329317207165 4.171523675383585 13.543151470636772 1.3878686309463195 -1.0310061970280566 -1.7958373966220942
Ni 1.275876517882469 9.003877655124061 11.631677242404768 -0.2514384625547928 1.1504318819872574 -2.363573227188594
Ni 5.76626062136927 3.3855434052222932 3.270948110913031 -1.2562978259841526 -1.1282761718258245 0.05782231032510687
Ni 3.3996884597547394 3.9383476783330273 10.875574583831433 -1.3862691476696836 -0.090923720864766 -0.044652091491736
Ni 1.1997115512600829 5.521409634900826 0.9726986904616612 -0.07038163504735621 0.4805767189504885 0.11902896374141436
Ni 2.337042394402256 3.2754913655113853 13.339888239658949 -0.37850083812364493 1.1274855576037293 -0.5801424317609686
Ni 0.09881740647074923 0.9396886292565114 10.086460938934929 0.7501016066933469 1.2306790969747836 -0.7754555120771032
Ni 6.4749195273826325 1.5163887008350734 4.590695575560552 1.005136014129514 0.2003814959779775 -0.5725677047375042
Ni 6.750613948652367 2.0237234232414436 7.021930711449405 1.097543261518342 0.9071026788031604 0.2056702551807426
Ni 2.606936325683866 5.951108453032321 3.4513822045005873 0.14145798216889185 -0.4093625606995078 -1.7302151306365945
Ni 8.189005949184594 0.13654834493417706 5.947176701445473 0.3966818799080459 0.728947598323551 0.3006840869544822
Ni 6.869880163846804 8.765280466473756 13.501339836585206 -0.10154443380340576 -0.5661574303357862 0.8162267804571942
Ni 3.2884430177974706 1.2714359513843825 12.826897345675642 -0.4647122411144061 -1.9581542245178665 -2.0347700134003923
Ni 2.3586161466387927 8.935844475901295 6.906976471348214 -1.4085349010464194 -0.12425036004135374 -1.6037258539623929
Ni 5.764169854643088 0.3556680987822502 6.285921616279912 -3.0764221201780697 -3.8940848617508426 0.47705353628857844
Ni 6.928375376278888 6.001148086757632 4.0287298586934535 -0.7632512567014275 -0.023321962555392095 -0.5838314505767817
Ni 6.14291317220904 5.618167728658089 12.548500654668217 0.026911479678863332 0.011433695758238374 -0.9435190126486654
P 7.631631593052912 1.7389165894704277 9.142679587556016 -1.147215946153121 -0.7947413568899088 0.27605728954473746
Ni 2.3307423406830963 7.826507704057474 13.009362998436073 1.2397502060381165 -1.3465777426173324 2.010483887159518
P 0.835643380852286 0.06532350854091216 4.724173453784906 0.8345371487306079 0.12830473261638548 0.43421304408428446
Ni 5.037295374807366 3.874014971192001 8.003962917619232 -0.9925887735921228 -1.4619287432865273 0.2634614551575979
P 5.660954437103192 7.763636683388734 4.347909452513719 -0.17767839795350693 0.15556151144980954 0.23381123639133283
P 4.083193406792483 1.8788869459621926 7.5648186444991 0.5010146750898662 0.10090037246150364 -1.055848195772401
P 3.4688687853228433 7.125749305938624 9.032085428685134 -0.09066609632800514 -1.0446325295622394 -0.23127638578462104
Ni 7.776236790827054 2.1145607616679234 0.2939849296517484 -1.4916774353038698 -1.812098595675963 0.8820673331010872
Ni 5.72143865327921 4.210017836213871 10.506621790275743 0.14018348633184244 0.20782509674021626 -0.9935544799395019
Ni 8.132148195648679 4.59539424998634 10.915355583828145 -0.07553026912783121 1.4727934539151732 0.12370888571558694
Ni 7.458125708320391 4.0809638723632355 5.52586500328724 -0.7390834012059723 -1.0829463375407737 0.030108132239290084
Ni 3.272419973683542 4.203902806098798 1.6598597039161629 -0.10816553866434919 0.2807037871778133 1.5648494886121695
Ni 0.771037763895231 3.41439783627965 10.388945852958432 0.9888799572819679 0.3129942717804029 -0.4940580412663749
Ni 3.4810433384717636 8.60110902256742 10.744940518401897 0.02990167265543883 0.22486559716227075 1.9018432086309633
Ni 4.6977770613078444 6.381029299488718 10.55475660599698 0.5378308154769511 -0.4589707106449386 0.2968066062769469
Ni 2.0234551390155175 6.3928893125106905 10.647371096140713 1.1363941729472686 0.9688929726370796 1.514697807458443
Ni 3.2098819955021587 -0.04078382793086223 4.65281725063274 -1.382583214177664 0.7464984627231208 2.4095257826593084
Ni 7.620844716934644 8.690974987072442 8.25957210154731 0.39944530158579594 0.4892601056570993 0.3825968625698895
Ni 4.348221217286606 2.358699407260632 5.291026569153962 1.772159079168548 -0.26899318360910446 0.7175311289564933
Ni 1.3516806884768853 4.479125417178111 5.129548143805112 0.04097438552983266 0.38229527216907067 1.4130700699126115
Ni 4.781657512220656 2.9589344812790515 12.430539781000613 0.482535385338756 1.8247720773785732 -0.9311928869831447
Ni 6.6663541993511775 0.8962358358366953 2.265153323270319 -0.5089251881861945 -0.24036369279786993 -0.7708478381017628
Ni 8.750506331687415 5.9848845119583896 5.35500310585712 1.1282604880965408 -0.2330414481048438 -0.24285174932704626
Ni 4.779918290342238 5.1716965208161145 4.1736357198242375 -1.2549996759980193 0.15040542117016678 1.3515356008432402
Ni 5.6007292539728954 0.8441748192367344 11.995918409882387 0.31795470110947177 -2.114398620967313 3.1420798673871952
Ni 5.556536366136731 7.524160632619017 8.027888319863713 -1.4272903272770516 -0.4543833483845723 0.7708509234255564
Ni 3.2790438187098543 5.562225841962404 13.041466443981196 -0.18093881387233354 -0.7622770657136163 -0.5786619905607002
Ni 8.586186868897808 8.190430630936063 1.4513973096634971 0.2979072955402934 -0.900154015399469 1.419057397844298
Ni 5.404937276128102 5.350882630194105 1.8926129220313817 -0.4955032583533337 0.5284272627748641 -1.5978765942704676
Ni 8.896647225375478 0.7437523330005311 2.9670958724553262 -0.35314101920261765 0.9981325862284873 -0.020925180188441382
Ni 7.105359704768244 2.6547279226195206 11.652339753391177 0.5009467979664083 0.07581051937241137 -0.5631641520354173
Ni 1.2798082694693163 8.50326854072625 9.04169833003547 0.9846888020187557 -0.5525575801641646 -0.4712520991154529
P 2.817853983162765 1.2070847418829473 1.2920919865446479 -1.399502358530506 -0.09612017746404092 1.42958297996597
Ni 3.997342454496146 6.990497051351076 5.662416123575479 0.5680327929816281 0.6241751445011509 -0.05520261331407266
P 1.1261184127345052 5.049229397270974 12.097711921024874 -0.27731070233586436 -0.8427343398294196 0.6638606360162309
Ni 5.9664839145319455 8.743937993742326 10.139172313503257 0.4914614841837923 -0.8517118607376816 -0.06814940328272778
P 7.328350152413815 7.414460137755874 11.790867850889082 -2.13456969659855 0.010682933635142892 -0.7117518032705549
P 6.323699735762382 3.859296343486885 0.18158771575903876 0.7860757107951107 -0.30626055260099516 0.7829803596992386
P 3.2361460961022988 3.438811700838921 3.8326566449704487 -0.23059787166035772 1.4159882720006711 -0.037832754577057426
Ni 4.310143359565515 1.2397506591844951 2.985442813036586 0.6103174126824521 2.7750790594833497 0.8444898890679456
