# total energy = -340865.54387720115 ev
CRYSTAL
PRIMVEC
9.27960100250852 0.00000000000000 0.00000000000000

0.00000000000000 9.27960100250852 0.00000000000000

0.00000000000000 0.00000000000000 13.58163406361477

PRIMCOORD
 96 1
Ni 3.0077784236876846 2.0561368101707425 9.366057836667428 -1.0272688414728115 -0.22910483205459897 0.8716487088709247
Ni 0.7192637080897583 0.9326462708335309 2.9315140251319374 -0.24235604063755037 -1.126937398409743 0.5380110498085573
Ni 2.185132539844459 0.5244932405194676 11.964169727162854 -1.4007567997628971 2.3499240118362756 0.654043392815493
Ni 2.8141131565637028 3.958120893103172 6.303969621778507 -0.2240670125203754 1.8418490874655182 1.2925377821527932
Ni 2.9152700840633927 7.9033245819975955 12.833801941315404 -0.17381505834335872 -0.6074202936403151 0.34282318221637736
Ni 7.807299273698651 4.549194340862115 1.7961706517890976 -0.5854633297532498 1.48012495457958 2.1141643934693204
Ni 5.387801137951783 5.623595792365792 3.373134863419616 -0.2989300803778529 -1.1826115520435956 -1.0653887882729844
Ni 2.289296057978944 8.786278590950488 5.920424236666139 -1.0053964668797524 0.7433028386039585 0.810561868861933
Ni 8.810646822453487 5.827422222283294 5.531799198117082 -0.6603145705361855 1.2453706375486875 0.7465866515615529
Ni 2.246034559400506 1.480950038852444 1.1497351061067391 -0.2990812612437365 -0.037046254120020064 -0.5890641597306306
Ni 6.530611805997769 5.412336402267825 11.45299735348366 -0.9453506665407655 -0.3488413633859992 -0.23741360903061046
Ni 7.573351259828852 1.8951450171983435 9.283236472239626 -0.2552298112764249 -0.10586440133499832 0.4155203527707876
Ni 7.232455847607166 4.427696528573936 4.2844890903903785 1.2905464627543775 -0.824159919261342 0.1258729832464413
Ni 0.8907136110788664 6.407044642747987 3.25490625446674 -0.8346939860234464 -0.6147780195569671 0.1955766183901664
Ni 3.05998545736471 4.9228281844404576 3.5126722195165647 -0.98089436797333 -1.0799535734610368 -0.8749075821278545
Ni 5.489366367883358 1.1149625862712345 8.227034173677183 -0.21665992142302687 -1.4106941134812674 -0.8431727129184189
Ni 0.9207730217063084 4.265748936726896 2.0428001680092382 1.4264171806434789 -0.1604887735480978 -0.4493293309004326
Ni 5.511386860403014 3.3612291356898574 5.703593374293076 -0.7676743254697875 -0.00011030032561916486 -0.8981920065770918
Ni 7.388612968602009 4.990411516518271 7.358175878225072 0.3176981050139754 -0.7352342026632112 -1.4618554668464305
Ni 3.3126318666947308 6.085088895605364 0.8538782360022663 -0.44729918784428124 -1.6024374741682725 -0.21585645168512502
Ni 1.4139977196239089 9.093080750109715 9.120772934592294 0.3465551384549838 -0.7180450924784343 -0.18679141599836863
Ni 3.517673924307165 3.1454969780425968 0.21465943580348812 -0.2577456357197432 0.9473741247286974 -0.9443877884068639
Ni 4.935114375799928 5.099604578245529 7.260687176891846 0.41845475280876315 2.062281845667416 0.17486098310936982
Ni 0.7779915171960132 4.2606358767276 4.625306553965978 1.9859187962256444 -1.2782882142123144 -0.653795281360429
P 6.3173665813447215 9.369056075661572 9.932968132099388 1.6370638059928901 0.4748058779049823 0.8842178037851869
P 4.094911487385616 0.2977248537303502 13.635281055905642 -1.890435481014654 0.945435512945088 -0.8814623525272367
P 4.100265817003754 5.353531572475556 5.319219320835994 0.7973348286486978 -0.43743489345569175 0.41134848078128516
P 7.147649576584355 7.121295510526276 7.051787589258165 0.6215911858240586 1.5441055711965987 2.7632121328424346
P 4.408701185890525 7.191189463184533 2.238497667691924 -1.6038518380172957 1.8854863645394946 1.0552190468288343
P 3.3436721311187707 1.172087808332338 7.3968699573268255 1.2271841964476478 -0.8693282882678641 -0.5888157911652505
P 7.973339169465274 1.4341808512000784 1.8764252786564553 -0.03670455450988517 -2.5160859245097504 0.894263360946647
P 7.472945979987862 6.408315948047268 3.019401123595341 1.3379691750127152 -0.08957903391141346 1.127768893172103
Ni 7.696983380283706 1.0119126202237108 4.148537372013445 -1.661434521527771 -0.7881014829758878 -0.07255293166706214
Ni 8.612462389776589 5.141511255118164 10.282464806232777 0.19242496013506216 0.7132718394595071 0.4286790016399327
Ni 8.225651513169206 2.9257931512851747 0.4105063370578412 0.09907180389319713 -0.4110646309922792 -2.455006283589611
Ni 7.759713481182514 7.564164455111423 11.079652105487854 -3.0523252271298658 -2.029930168809588 1.2842022657039045
Ni 2.4946165036131185 6.60126668591545 10.081211609596227 -0.2860889627491266 0.3784980099101675 -1.314817162376284
Ni 3.541392583759436 8.764777756071416 10.528712930863135 -0.16170927621876022 -0.07003299345868584 -1.4438777993220875
Ni 8.74258095113799 8.211843467290889 2.3802083062785915 -1.064317666695993 0.2105934035139728 0.1153941952023045
Ni 5.385221408950323 3.1699208871499427 12.290523077088901 0.06842399710035313 0.6032893021910771 -0.14831614274130586
Ni 0.9714442814634001 4.275557474692878 13.00278439847182 1.2154923619320162 -0.08370329185692682 0.33004119996036063
Ni 0.39075377895529645 1.333784850959812 5.501145893043262 -0.06337615026380053 1.5416861631218288 -0.7316372293405723
Ni 8.780590195706262 2.9016012321959455 3.2111733521714885 0.09005263111372232 0.14736714856447525 0.6231292197351397
Ni 5.182248702299491 6.9463471980639655 12.939779621391562 -0.3254173280351041 -1.1179678479212811 -1.1524190876206153
Ni 6.117159195709844 8.024349134648816 3.845666979681262 0.37149612467103765 1.4418913650196783 -0.9916554631445761
Ni 5.349838291387135 8.987376818254935 11.891955874323429 0.038765036583339685 -0.507400524011552 0.8215240243003916
Ni 4.933406929266588 1.704226511888866 10.69686764763491 -0.1606417541861943 -0.026281816514664415 -1.0918199858813198
Ni 6.4114802918943825 6.375178493859451 5.370544792444176 -1.2982386891923128 -0.773873512301964 -0.1283227303385145
Ni 1.4706125636451552 2.244364231270064 7.362481612961322 -0.6082098794211461 -0.06359289426029693 0.5420623370597956
Ni 6.404938173383486 2.7576375065533263 2.510646085904923 1.9113496054595016 0.30926205843148025 0.25401753613587863
Ni 4.31999748256335 2.5027175950457603 2.885594848905952 -4.172253798321943 0.853564340565388 -1.2203990552050146
Ni 6.249681173658937 7.100370010892132 1.357665903424765 1.385545896350414 0.3537328871503456 0.8918889471771995
Ni 7.134825168382853 2.1221797285282595 6.905690483408943 0.6598682270273861 0.8773087353701794 -0.8129974748866192
Ni 1.882348447799016 6.428480520421988 5.461704806083173 -0.4855960265419508 -0.34493405791179305 0.9969568207528315
Ni 6.136238054799776 4.785165307689894 0.13147802286756763 0.5662355918718893 0.4263585810368722 0.09389128813352217
Ni 3.84973515663896 7.1992812750164505 4.4204138979252106 -0.48495839295795196 1.1071098221608546 -1.4434872487518882
P 0.5180485578161803 7.32407334556189 10.55215505821381 1.7679031321056713 0.22015302217794988 2.4074025656687184
P 2.8959406757538932 4.8339574483002385 8.501083982078667 -1.016162961367637 0.3246056307670861 -2.0755711065771543
P 5.244551941564963 1.5647726721984394 4.395641075830617 2.088098292509888 -1.8731736086104125 2.0895409384936854
P 1.7220526248809678 8.224593638686592 3.8586918272584168 -0.3801887673490291 0.9647712371592223 0.12056211255648913
P 4.8171706505893 4.126759077072704 1.6265905883460114 -0.050850506992964034 0.701634769441211 0.10925697195631506
P 1.1675315243765223 6.313942408677316 1.116277505693921 1.073879342242499 0.0522386455897423 -0.6903170304355466
P 3.1816131840630346 3.2449650182103955 11.44104615571035 0.9809295920866397 -0.40132374955543143 1.4608478515175227
P 8.72956167132127 3.4661535810837654 6.069957578663708 -0.3584467476862472 -0.42963673756751164 0.5947480974892854
Ni 8.409164897100393 6.4044741933472515 0.689114285335287 0.20617342006940623 0.7168423304195848 -1.9742830117589287
Ni 3.636183705161998 7.019099267745422 7.268714031518691 -1.5068597994712631 -0.15238388505277628 0.06585469371128012
Ni 5.04649742329821 8.230179958322848 8.708393974108212 -0.46417333789180054 -1.625720098845297 -0.7501998228341079
Ni 4.258937709794984 4.708701397718566 10.028039497443835 1.734045303015962 -0.5079396843444736 0.5725407081543107
Ni 4.916722207163621 0.07328935856341619 1.920823528323666 1.2558656235427403 -1.0872189967741983 0.8098926107090504
Ni 9.042488366958784 3.6899218729585948 8.497946549073655 -0.1156155671844912 -2.3576782018603977 -0.1860519667291828
Ni 8.64942303946297 7.460010216577664 8.909443019528819 -1.5403736149579923 0.19171199322843757 -2.3126486724245847
Ni 9.291849797632269 2.4660074945789434 11.399703678561774 -0.2773083883430192 1.0412106483648842 -0.1237065717227418
Ni 6.45360967918441 6.279515089988769 9.20011723262856 -0.650592458152415 -0.17304475583623746 -0.23124887498079527
Ni 6.662660524309905 9.037087639337022 6.145105641252277 2.369155863482694 0.34153454531194083 0.14871080707656323
Ni 0.13607328114642703 8.287017512761487 12.60491038188048 0.4633176747597246 0.6364470198899684 1.0566609214816833
Ni 0.8126805206249961 5.5318019819973 7.8967963828877865 1.5292091137007406 0.9453887188675525 -0.41273919048122465
Ni 2.9211069529192137 1.995884362665423 5.318228259478599 0.5289774788513792 -1.231968762320485 -0.4709111708362664
Ni 8.625342475582437 0.42642456414094987 7.501136479029354 0.8815716244115914 -0.8990846935946902 0.5776446050397793
Ni 4.877636528911287 3.1474828125976773 8.148328312170774 -0.2684499095111248 0.22471004542101303 0.8872751025542719
Ni 6.015705320986964 1.462149567784251 0.39863215997054613 0.16955371196384347 0.1441689533421517 -0.1130532057739537
Ni 1.9767591055718663 8.452574869290427 1.5461605770249573 0.03998811035716339 -1.5606663037687574 0.12031374399110892
Ni 1.6711540149061217 4.35963065725844 10.364185610014633 -0.3325577957346273 -0.7104616237042216 -0.5445884459157588
Ni 3.340461389268033 0.4436771978082669 3.3902612945170776 -1.6478590968361815 -0.9932207507491668 1.8070520343909908
Ni 9.033691305471791 8.352726365492915 5.289095880963552 0.4008416677126903 -0.510977699839849 0.11204867576883927
Ni 7.080066244506541 1.117087614837185 11.886102302186304 -0.19679814950209332 2.000130826059968 1.6363714079115559
Ni -0.7618867701383387 0.24784236003485594 10.639606943403225 3.5459739487729642 0.39630598462586586 -2.509863854859439
Ni 4.601336417334068 8.71955826174007 5.844828897322641 -0.9375273138416046 1.7169333259260238 0.8167517997227288
Ni 3.1738554378572057 5.577541133969227 12.048457268505157 0.3896632824983676 -1.1886582724583077 0.8416519053985182
P 4.641823315295828 6.844262310491807 10.687224286561825 0.7127979851468821 0.010931559310839238 0.6186531862416571
P 0.8027819705319845 7.637872323667522 7.347663946524159 1.083486783425276 1.006515410975544 -2.046654937763437
P 6.999185244590269 8.351566415402331 13.39062159891935 1.0390419228483394 0.6127879857101317 -1.1723068276834778
P 8.322604781540617 4.815611677667555 12.539311028437604 -1.5352483779162849 0.23280927748937968 -0.2145637010156305
P 6.8356044430156855 3.9173648867203967 9.105765964300348 -0.8645910306931949 0.6980874184095848 0.8662216243180824
P 2.1326656773471426 2.4782380083340656 3.3125743331702378 -0.8107742419830553 1.473932452615623 -0.5793680154887894
P 0.38744096149658724 1.4875849533705872 13.283843089300653 1.563929033680429 -1.2543489297878978 -0.2757287025607251
P 0.7509349853630765 1.864921357638075 9.441137230210634 -0.8969280522630035 0.010986580918490757 0.06152032800198437
