# total energy = -340863.46519877133 ev
CRYSTAL
PRIMVEC
9.23782372507841 0.00000000000000 0.00000000000000

0.00000000000000 9.23782372507841 0.00000000000000

0.00000000000000 0.00000000000000 13.52048879518731

PRIMCOORD
 96 1
Ni 6.920183116844213 2.1793689085501713 7.089021898135512 -0.308675589800391 -0.23735447365790088 -0.7077444818833746
Ni 6.638762053465953 8.846010714158838 5.00546030748544 -0.2075301912076168 0.5553755092289339 0.27972779641778917
Ni 2.287506873620613 5.893750041933326 6.135502966253926 1.1602941194933178 -2.437347432857267 -1.4416915903040461
Ni 4.47662168624983 2.8443074636305017 3.3185366896402515 -0.18587404639042182 -0.1913327555121479 -0.24082829113911428
Ni 1.9637673395446167 2.246611027783705 3.317522376590129 1.2373716785036109 0.7720261746805801 2.1416147763707896
Ni 8.877927395289742 6.642983738929579 8.058589701255514 0.49512402063704397 -0.5692183286492971 2.4490397815935303
Ni 9.068420559284068 7.297123278020899 13.058169210127947 -3.678188557966717 0.4788273403595496 -0.5203586268341167
Ni 4.221436042382936 5.948890612026053 7.595175195535185 1.4986135003020706 -2.9385546835739134 -0.103138517763403
Ni 1.6131365004694709 4.920683874951018 8.32991936594567 1.234784891613041 -0.08576120282722004 -1.9912913733914674
Ni 2.4065362329177793 7.174075465383083 7.891706567256664 -1.5363436678629927 2.8670579610855076 1.6111766538134833
Ni 2.8862194700822865 2.3455019312587666 5.5315432858899785 1.0765054670114365 1.367075605460368 0.3218028712109684
Ni 6.463631390403813 0.9023182936274503 2.8535536014435037 -4.324666479730126 0.6125378173725387 -2.762444915659107
Ni 8.243279664356514 3.2782911865968654 0.18515185428958103 -0.3028880365843364 0.3516343527501041 -1.564222910771764
Ni 0.3100573932878674 4.001649739208843 2.897656819693914 0.04575432341697926 -0.4129466785063405 2.1282995473191217
Ni 8.69003929759901 0.611761946321447 13.392896211797895 0.6732755015722276 0.0984393125155208 1.9812656137243494
Ni 5.125347860610989 7.715116328038609 6.4191900678033615 1.1666272608001973 -2.882135938464552 0.36500846006416493
Ni 4.690237123144489 6.948949700069001 0.31376176062028216 0.8711190616196998 -0.6244528236425697 -0.13999939534549438
Ni 8.483158234233853 1.6449515655388882 8.78643876000287 0.5676460990661708 -0.6258224502965867 -0.42256980341840134
Ni 0.3252545371745394 7.021383476262177 5.976096926815816 -0.09489376125610753 1.7975191551998915 -1.025066434504854
Ni 4.262027040035381 0.32807392098963417 5.885577339242586 -1.0944954758309535 2.598342456617822 -0.3082814396857658
Ni 2.0279147878146615 0.9967427093089396 7.327834423149609 -0.48206075969518264 -0.05191520081205253 0.17080969585813163
Ni 5.380034661994216 8.90383025314533 12.880212696774073 -1.6158882003565396 1.416804340144063 0.25412783646149784
Ni 6.252547117222575 4.7174609897994175 6.275562231367157 0.06457274167506298 0.8823614673027385 1.12074926732116
Ni 0.5875662382988519 4.871409322953262 0.8267658281289788 0.31163698642156007 0.6054809105257573 -1.5497789674322924
P 3.156120967217352 3.285247267896886 1.7075295075501367 -0.47399418063696436 -0.10442509778531048 0.683523404552481
P 0.7196892890098954 3.2819124135153355 12.002178794277425 -2.0777202917096735 -0.23976488287160638 0.3288556642926917
P 8.092647709936678 1.9347420972542253 1.7218749240850664 0.309301396309848 -1.6934732951308704 0.5996797304629479
P 3.0583663160661976 7.795078930605646 5.450987615036804 0.6020777983814792 0.40981430352494586 1.2291976273332508
P 3.5388624817226066 0.44653238277771545 11.861416530775173 2.355711307942014 -1.3167262064735388 -0.21840904290364968
P 6.6039262200232205 6.671620992621563 5.04929378128172 -1.51805052598076 0.47349770061652 0.17640107390298004
P 0.5228894627266941 5.1450983278346865 5.046319202027261 1.397904932136399 -0.9310198517403901 -2.595713503635407
P 1.7226047121630235 7.323515740536383 13.11407651959372 4.153435637174176 0.02870868078860217 0.8359021473989345
Ni 4.69455118684583 3.2852565057206573 7.9910824564797345 0.3656995725939186 -0.01845049339570371 -0.7712605001591492
Ni 8.58264959625407 1.4522136103680627 11.32683013558887 1.2673183454643722 0.7207100409051072 -1.4246402912487142
Ni 8.44251180963878 7.217881225708047 3.763117120255026 -0.4467841958810757 2.5480948733161792 0.8043701382289242
Ni 1.9584740665234857 1.6202958138924668 11.570104529484652 -0.760457238896058 1.455623627004106 -0.1806688480403985
Ni 6.244741156135565 6.468167161875672 2.5233420480331197 -0.027968717298784092 0.695408328915525 -1.1068010326711843
Ni 6.227290907030999 7.102999649284333 11.620955054217845 0.5647327820741177 -1.1109762470947964 -0.9834688135687257
Ni 8.251307333214042 0.6719648438410152 3.7328983511333433 5.885105497979426 -0.018946202085199627 1.3122090353294757
Ni 6.796775029079305 2.9485470670693243 10.83334558970958 0.7566337513849097 1.6829723955995468 -0.34572081547914657
Ni 5.469419844808294 4.541425020007659 9.78350664070857 -0.7324553543664933 0.8987414513226586 0.9673986474797402
Ni 1.7143553355349774 0.2905738991711694 4.951689706658042 0.01337539286564148 -0.41180253759956825 4.749320676481382
Ni 6.555095083566502 6.723879361697548 8.783287738314375 -2.961076518825513 1.1228593716856274 -2.301823556784623
Ni 7.312559681543256 4.122692944088221 8.525966309591485 0.4611697751787864 0.00787271787985741 0.5142291168976111
Ni 1.1862381883359305 8.695027722435679 11.505990337380187 -0.5551734205204568 -0.4596883055372535 0.3118742992433468
Ni 5.069957869276429 4.517822380271202 1.0897361860882069 -0.906222333080736 0.33716032750364516 -0.4869785087117742
Ni 2.716335890922419 7.983853859378453 1.6019476483172994 0.2365576887882184 -0.3513463891960401 0.2836487287387502
Ni 2.648049897602694 3.153996267749882 13.241750634376356 -0.19088615489303257 0.36993495083150485 -0.20301944782145684
Ni 3.7003950681929405 0.28397255030397844 3.230653576971438 -0.7071050485271629 3.1335324920378165 -0.39860789328616514
Ni 0.3140850844522884 4.444658816000067 9.936693777183635 -1.6083404699162689 -1.5714384546835967 1.2121776957364867
Ni 8.59414144902595 4.702070775395919 6.675768775495014 0.47943437781592907 -0.6973824219227602 0.970998706126173
Ni 4.375938644963077 2.6196990164476297 11.723670416734352 0.16099939463592916 0.05682832184295374 -0.7555461747476859
Ni 2.9089907056792996 5.561982838999803 0.4243495965549536 -0.47704710853067517 -0.18039014045771512 1.3392855798312935
Ni 8.367408302375608 8.113275770418678 10.526254461634776 -0.2789667498820486 0.017556777936840733 -1.5958266537199743
Ni 4.686606658402248 1.5993813808735469 1.2304725836838974 -0.2992275570136137 -0.19607515529313974 -1.2963314448672707
Ni 5.46417276090602 4.790689218836953 4.017640412157497 -2.1075790269423185 0.5189298648073901 0.4577144696403343
P 7.2508233052776 9.104143223808874 12.044038145133712 0.24727687497793543 -0.42651824654318804 -0.3406783679592326
P 0.7909369286307978 2.9846484823687676 7.779879015371844 -0.7425942425727081 0.42533862441279 -1.4347388131352967
P 3.2816075653308725 3.52181869686399 9.791821605885394 -0.021683141400388465 -1.485578007274351 -0.4763269425351991
P 8.116305776615764 5.420902794359809 2.05566890555408 0.02229249284961322 0.7489255841073748 -1.7795769688991738
P 7.816935621649271 5.996677874396582 10.06211016783649 2.195466532083922 -1.9847124346223688 2.0519876628302596
P 5.455692438683685 1.5467719744942403 4.568356971431404 0.14689278003121797 -0.5023169388410574 2.1080590519025306
P 0.7364328445959346 8.548783734307356 8.724500999178995 -2.0927285921930476 -0.3710127572767159 -0.34483095667502545
P 4.397204115285318 7.8499146525139105 8.624301096075495 0.44560843040541964 0.8030151668629267 1.0521879733119943
Ni 7.861591261761222 8.469901957121596 7.073973483211564 2.8185785254278812 -0.4612939594614765 -1.0738842273385054
Ni 0.1809717390329285 2.865693025661774 5.168314826537491 1.1891321267709327 -0.8705832437208879 0.5621745344286383
Ni 3.474437898739414 7.50523297194768 11.184689588779895 0.2462579467951178 0.10961744061952734 1.0094492967928872
Ni 5.415858942580511 9.090277250327691 10.3314112064264 0.020059746864352548 -0.5002639129667706 0.3848802592874275
Ni 4.628408368641119 7.712372694378441 3.7542340289162484 0.883728522853594 -2.7076390235628205 0.8661012966901341
Ni 6.470476617818574 1.8692459267135257 12.722252376756218 -0.08010734697555236 -0.49070455141310976 2.029058307727596
Ni 6.621662841664707 3.551582965056111 2.2766071653524924 1.899825406869986 -0.744297341306744 0.6545501572485823
Ni 2.4874688069808353 9.112152417018859 9.59150216874521 1.7093673406533079 -1.6859116807335288 0.12653272831762724
Ni 7.6969178152085425 5.1808025167119505 4.094125897856901 1.4041604261278076 -2.7027243598700226 1.3449281228290515
Ni 3.3630851709964533 5.575183689169431 9.821093498070487 -0.6342800941456366 0.980342352124602 0.7937599668132458
Ni 1.6449977546577461 5.114234758613745 12.11849500473287 0.545028618776971 1.6843119403465765 -1.3685462764686238
Ni 2.029152656200057 7.0208753959547385 3.7876703320575826 -0.09535604560450674 -0.22656046836619045 0.9767952582032918
Ni 8.394493601673963 4.948074022433835 11.96021136088301 -0.8575760328279424 0.31760580241048525 -0.27761332117794774
Ni 1.3521125519789206 1.8934490249951383 9.488246393538063 0.6313917168542481 1.2946833677408864 0.11200882366983936
Ni 1.0722434429942902 2.26410746600713 1.3751821692837567 -1.5476025286062636 -0.4963067280912355 -2.102828913851843
Ni 0.612916674292898 6.998094922533954 2.06732334402434 -0.6713813698733082 0.2512217185582964 -2.5567232384151386
Ni 1.1508665611144444 6.622346440623806 10.274895124374082 -0.045224419055438246 0.6776864861557296 -0.7644349925968835
Ni 7.745176206591421 8.506973343917059 1.7257418771158612 -0.21786114081997962 -0.6928179424805294 -0.506524806274818
Ni 4.015109248444076 1.4849894091097273 9.438897015167758 0.7000260301931944 1.3409385420536841 -0.21315139404913616
Ni 2.020228918436684 0.3674482972513581 0.05146114488449563 0.46343157462976964 0.45891826014044834 0.6109082521889155
Ni 2.804446254056014 4.440963686491425 4.017991449460817 -0.2506403921335296 0.7303719894749034 0.12660960430214968
Ni 7.149687610626039 2.9926576755787515 4.907328753124404 -0.8396644426548442 -0.8477945279611463 -1.214720259652682
Ni 7.186204727995204 6.185332711460355 0.08822768349549473 -1.2738947131303093 -1.34149801410158 1.859232058828656
Ni 6.160242782096669 9.180678593756644 7.970625295737509 -2.8464318001947237 1.4462933507421156 1.6405039420226908
P 6.4566937847513355 1.6911129709256123 9.240293965684339 -2.0161305439223343 -0.16560475461842447 -0.6946123153767909
P 8.889262205057506 0.6922815896619122 5.830534690081837 -0.6476441741573684 0.3158355978839399 0.4959663140326813
P 3.5578831608683474 6.048317309279869 2.5150538725452334 1.0685620437946435 -0.2249512148975416 0.2837312611502275
P 6.1508294396734 4.256308827120756 12.650513284910668 0.6014460783347514 -0.2524337365885265 0.00819487710596653
P 5.312857207527084 8.621152845734132 1.5046816780436636 0.37202680036352703 0.5398866695647153 1.5448830727925718
P 1.3793733699289352 0.27632270843871 3.095447864467809 -0.8128743190451936 -2.151699671410617 -6.527560671736687
P 4.039238444135516 5.368644425283824 11.998879967408584 0.32518310053711097 0.3404369413723879 -0.08444994021496424
P 4.217731675050521 4.179754981525442 6.0527440744312235 -1.6942911630464756 0.3448127018425804 -1.0394774677238614
