# total energy = -340890.6069839443 ev
CRYSTAL
PRIMVEC
9.09736811112920 0.00000000000000 0.00000000000000

0.00000000000000 9.09736811112920 0.00000000000000

0.00000000000000 0.00000000000000 13.31491780670079

PRIMCOORD
 96 1
Ni 6.363426947260386 1.9974454034730547 11.656584942388625 0.716528912944224 0.18591569826163465 -1.248900762189133
Ni 4.689019983013999 0.36610083050998754 5.969037851049441 0.1337546999873632 -0.2025337664342899 0.35103862814763415
Ni 2.7131535363644437 1.5487723125884905 5.1392523627685245 0.13915298818479904 -0.05619814445812257 -1.1965770130847522
Ni 3.4662973384500586 4.395784521255201 4.887600060261216 -0.10622101334346867 -0.8519782270251909 -0.26114129166485345
Ni 4.8614787876105785 4.643951622093418 2.5991116607099976 1.86301466579954 0.725850447455466 0.8028961247865591
Ni 7.294124080005464 6.136438519055014 2.3741828766129056 -0.3981741481828562 -0.07094959173568426 0.7431655416951459
Ni 5.106634659650912 4.565432239149224 11.675797673803272 -0.6386064894351324 -1.1884782952370176 -0.8263870088196477
Ni 5.3719684938474535 8.238076077882008 12.559229431263152 1.7166412486069016 -1.330681125991734 1.2938541869713718
Ni 2.0313240017912304 6.494092443405381 0.4438478469135759 -0.29770777793497766 -0.8040438652377572 -0.2716882139427643
Ni 2.578758119351981 1.4013676593797353 0.3683879088175035 0.10375429697053097 -0.10841262167814877 1.1344041391004334
Ni 0.5026696087303487 9.064908560520045 4.702855260221916 0.30205705604260885 0.43471338075947075 0.39747146568887676
Ni 8.75374218649349 2.2023181301447305 1.5382857765301226 -0.3423423859252169 1.1294689065823451 -0.38106757040955663
Ni 7.012606028191298 0.8977974112204125 4.846443567567492 -0.5195721263770793 -1.2010846711471186 1.2736607427426323
Ni 0.6526533657584386 7.60445349617883 2.7265221185955286 1.129318754157726 -1.039328600850823 -1.0805410705333907
Ni 7.68077131607442 3.909803124327984 3.735380197986804 0.384551415193099 -0.07695028940380941 -0.47896515148899443
Ni 7.462671016375186 3.9672711977909043 12.72373531678085 1.174806711287196 -0.8706125542969264 0.18117998334886218
Ni 8.239349709397729 8.709592659737822 7.077171868143972 -1.6765135273480802 0.36519743614651945 -0.08094166995138964
Ni 6.858760438460183 0.8691270560647381 0.5620608657820081 0.5881599027488064 -0.3345126054681529 -1.3702195504059886
Ni 2.0197339549981703 6.256168978900748 9.135431357019105 -0.7137680623696352 0.7029938545722667 -0.03504567875022351
Ni 0.07496504127853515 4.972766889980676 1.253559992769934 0.26220829947678714 -1.4235213471529227 0.7755174756632902
Ni 6.38785338025832 2.270566584651432 7.224434602412404 0.02516904306645988 -2.3222892808381426 -1.3097592882374023
Ni 3.67720162008547 4.4417171321328786 0.524079354509617 -1.2057085430723753 1.207203639560663 -0.46445615923954203
Ni 6.159109160034846 5.817612161198196 4.691444431577853 -0.8416063968725633 -0.5809086205030318 0.33175304044514475
Ni 5.35753097087996 2.8410989194865777 9.33389043927233 -0.9601954448630818 0.21441586258385653 0.39363692243413495
P 0.4435621895593357 5.659063232226883 12.5177536209537 -0.5818295896554044 -0.8840450256527483 -1.2244446860292977
P 4.031016455152736 6.312508978735459 12.525822076605792 0.6193021326795657 -0.2431075740915942 0.8328186233776045
P 2.479023674303065 8.2826349861963 1.478448748447961 -1.244540171227592 2.039498272113997 0.7263327864085233
P 6.411078960684287 7.961197683732254 5.831613920239953 0.20325136132660476 0.2878367986781688 -1.1236129620222004
P 4.615531444556903 1.2148807133742874 12.577577002983908 -0.6392605780793637 -1.17659362798429 1.4451818628454918
P 4.276718169271236 6.073566609018249 7.99064131516533 -0.6487042399907667 -0.31214143686180434 1.2900913774948297
P 4.554005944979614 1.2796084864768174 3.670110221753295 -0.532068201961561 -1.047886260612847 1.0916855171859845
P 0.22598498851834375 5.582818191275048 3.5724991023884454 0.35532002913180744 -0.1812658581944491 -0.6380914974719268
Ni 1.6091970306414773 1.1191036233920757 2.75705379523775 -0.5130402387958326 0.522848483135506 -0.64943057663383
Ni 1.8143426783522365 6.750874751710653 4.802384104754722 0.5240630722688975 -0.8123037912537042 -0.9897561892393341
Ni 6.165768433388473 5.367892872997147 9.049443944708804 -0.16970540705035936 0.7519600000583243 -0.180907703524082
Ni 8.781188945657277 2.581778445517833 10.261407132175293 -0.05083867991842212 -0.7316009767859981 0.0677285136952253
Ni 2.598836010460524 5.199327741891485 6.93781747585137 -1.1540987893158832 -0.49650341748307397 0.30750188120726396
Ni 0.7813656570003957 0.23693367086955874 9.22663883907027 0.2731357450225683 -0.37200931686203026 0.2117840813879643
Ni 1.4017861383063293 1.0861529566067822 11.608624528190559 0.2789045291855455 -0.5242811018169745 -0.9224997300845209
Ni 4.170952169258585 6.874835487662175 1.6065915444550314 0.8200510392992908 -0.44817207736753784 -0.21098575385638502
Ni 5.719233223976726 7.691369749758812 7.9212038346650235 -0.39779156803245685 0.9673500536299919 0.5362501012533926
Ni 5.463861007706716 2.9599924214791233 4.83194327276101 -0.566628970655566 -0.12549528819204836 -0.01782160156245318
Ni 1.0153572390686392 7.308970984531582 6.826145464552962 -0.9805197582427306 -0.1788744751441371 1.4997946650943654
Ni 5.076385911152541 4.261361812138829 7.069621962466138 0.5429136293164972 0.9297093604590827 -0.76948258232312
Ni 8.311719271594583 7.334170693806916 9.289618098049074 0.18876216657149425 -0.07487695181454847 -0.16179412262308265
Ni 4.558600115804179 0.12716755816074699 10.677924666235093 -0.15079648596099837 0.09911371287472608 -1.505220464095627
Ni 8.184974741044416 7.132609409076115 4.6254557632747595 0.045821686319804954 0.8013025550471942 0.17147381180469176
Ni 7.44344827785577 6.341820698332978 6.892813706243372 -0.02171270908674325 -1.6440821462922524 0.009767620909725114
Ni 2.40600819898038 5.290246837378018 2.70776152636896 -1.2824199769925009 -0.47162593751510395 -0.6845317912123372
Ni 2.4686981616577564 5.09395292870152 11.500613297763053 -0.13250411540971374 1.410289936064313 -0.05087390403173174
Ni 1.128273770305266 3.3640520198415786 3.923600192590429 0.11092150414293155 0.21713274729438736 -0.6580216607369507
Ni 3.6989625242683584 2.723670093737111 2.2774105345748374 -0.7505502641949913 -0.886399641927854 0.6839319528448092
Ni 1.1516812980906226 3.493307423951311 8.414907987261495 -0.020008067690810705 -0.02728300408566914 -1.6577573297865
Ni 3.4960548290780804 2.553603896916493 7.228722191936399 -0.22465785202683888 0.1428684893631733 0.1450323297837115
Ni 4.078704858048513 6.8205969798284025 5.928267086757621 0.7996228533519262 1.6053402496373643 0.6298670526796055
Ni 0.8183073391138803 7.582183139389652 11.470282672952957 0.15561601883682877 -0.4240355893306504 -0.20898029339058202
P 9.22036438438175 5.7119735243371155 7.975795320376009 0.6154051116180047 -0.6428940610668927 1.2531551665901128
P 8.29438878561281 1.4331265709610328 8.320918530085276 0.018245576473749223 0.9284621183155429 -1.0261630100031423
P 1.8854113169294626 3.3529714256548067 10.374877693121258 0.10344525037054443 -0.5871366036906146 0.7890939287961443
P 3.909284574353726 6.27288994122857 3.902136772340141 0.74609274264427 0.10498482694352243 -1.5832367328701056
P 6.963698577987615 3.7617889474652766 10.27996849204333 0.5720799664678082 1.4611448139326515 1.0764054510984622
P 6.366847557616894 7.713066972365914 10.124942973686581 -0.7547599314009648 -1.3478987754216012 1.0541913768952682
P 2.5369193240605497 8.569502290376494 6.187801348873648 0.4663626322336356 1.2283648470193103 -1.6625244121578402
P 6.872561145669816 3.9288075260161337 1.6365364408632235 0.5357767611613999 0.8429297436696773 -0.13338574668371866
Ni 5.396122005806303 2.886722219853294 0.524594265536687 -0.24731261331187732 -0.24757666560654132 -0.5025012869377217
Ni 1.0106084129885942 0.962838133781091 6.876728649936614 1.0193925240485282 0.8941335202370021 0.8574140533287814
Ni 6.5118414083137495 0.649957815629095 9.4299177068737 1.6349609007172745 0.15773666472425737 -0.5063471430463732
Ni 3.0660859267386744 1.697923660447377 9.566861296654404 -0.5202267292419428 -0.46784127366169104 -0.351524309534801
Ni 6.387871574994258 1.7866139007813988 2.6908786308912824 -0.03942915252989984 1.29227501540971 -0.3110728863879739
Ni 4.1790215346474735 6.599931222361788 10.229092371411062 0.7045833105465736 1.067179304514504 0.2596436240734044
Ni 8.249766195722732 7.009703967809048 0.2930462365050338 0.31080523454888404 1.0662261965726154 -0.4110162942528469
Ni 7.848499489326893 3.802672519119917 7.903574955013852 1.0890807325732856 1.3197655075204948 1.1918217577879537
Ni 3.0349911230191458 8.351429282781167 12.540495221403694 -0.4581808677537915 0.27787968746545694 -0.39695801638756795
Ni 0.14754475267548445 5.105424709710977 10.206963023825413 -0.39318106584363893 -0.5128011262018329 0.6725224254562869
Ni 8.685466439882882 2.608169909997164 5.810176882356776 -0.13468338244921965 -0.5723818139789433 0.10372781460796975
Ni 3.4086837070996268 2.8411171142225164 12.025461379866087 0.1994718396795145 0.2880455722548652 -1.234484843874119
Ni 1.074581104549661 3.353808383507995 12.463934501783319 -1.4461066886526062 0.23143656551156913 1.032484838456112
Ni 3.1767736028227898 8.281215796793068 8.306165328449245 0.9732173110440465 0.3928056847820912 -0.5407909265465396
Ni 5.496575142924804 7.9454501397771615 3.527707301454136 0.4696644429133588 0.3967698116361618 0.6275936832643966
Ni 2.947110548434404 8.570639461372673 3.749786789903201 1.3284560933159573 -0.2593633738288243 0.14164515847903347
Ni 3.5279774932828274 4.304355973162379 9.204483109117508 0.15841080797314655 0.050571285189648395 0.19544394946704405
Ni 6.997322450002647 5.854638448833796 11.296415595794707 1.6966889738546906 1.5744325043149143 -1.4846166718023464
Ni 0.4059991572135386 0.02911794565977057 0.5597228422138633 0.37764646054314965 -0.12277197572361437 -0.5145952419877782
Ni 4.506108302620539 0.1896582884795929 1.6637657729325395 0.0495065913705599 0.891995905068709 -0.5550116981316119
Ni 6.207534449736148 5.855648256678403 0.03764399892072504 -1.8524260916504163 0.4454688195037619 2.61095628872709
Ni 7.724693408630852 8.637641576467562 11.640792821330482 -0.32991341613324476 -0.7756208340103738 -0.19565529414690175
Ni 9.37765787657328 5.007755367191123 5.736279872077852 -0.3197236200844365 -0.16150487351743797 0.6030075092846002
Ni 7.9940118899980055 9.05519257152869 2.623824660798968 -0.6102222818654846 -0.8337203092562674 -0.3427607044095581
P 8.600515217784297 1.7294733325653775 3.692772675101955 0.7773573570855064 0.27872840861899734 0.2538568421882983
P 1.6790830113826771 3.151910496162324 1.5336652233384465 0.44651757248325036 0.4647832035616576 -0.25278494928035816
P 4.785870562416604 1.066193331281842 8.209738686394015 -0.7383493512534253 -0.9819217807965798 -0.2745688779246691
P 8.466665642850002 1.4172698585903076 12.190286582999514 0.24663564184951073 0.8796615518730723 1.75039289113605
P 6.432039296485866 7.967920638661666 1.3152647104962207 -0.5478645455638693 -0.8795941889702464 0.37082198142214845
P 1.7465672869799458 3.241901660115975 6.114875937493859 0.06388085781436095 0.098033849546986 -0.11256341062172871
P 7.069291728008848 4.082398389444104 5.862091922411154 -0.9782718427488185 0.8804501092126384 0.5350015735582722
P 2.512320041071197 8.527417866149888 10.344879122242046 -0.9277455518644926 -0.33718089632893544 0.345465762045547
