# total energy = -340864.88498701085 ev
CRYSTAL
PRIMVEC
9.43674245983297 0.00000000000000 0.00000000000000
0.00000000000000 9.43674245983297 0.00000000000000
0.00000000000000 0.00000000000000 13.81162647051254
PRIMCOORD
 96 1
Ni 7.2817963257858525 2.0094127733047675 5.418232183173712 0.31691931786642197 0.5940636698277512 -0.3386865343401845
Ni 8.61614228456445 3.538787890210914 7.268188543039449 -0.7628221395838088 -0.321068307037789 -1.3858775686582196
Ni 3.866016374617499 2.0677884626731817 0.1488702756547617 -0.7984339752501475 0.8918678641312768 -0.3032837293608583
Ni 1.9085811792372753 7.778367155119077 2.9455914229614266 0.483483093964006 -0.057847764246403595 -0.3837626007432165
Ni 1.2196706634011376 2.8397423128840438 10.95698478005576 0.2901721316795648 0.9372786881659084 -0.1892041392049193
Ni 0.33605938807793323 6.593716243293462 1.2518999702068192 0.035456541035397 0.4828302908713556 0.8922018504319279
Ni 1.7545546674572465 5.784581627464826 10.77301359683961 0.3737563814601241 1.3899843917377415 0.9320662907270334
Ni 1.4569575546343703 0.936831672240606 3.101552466962685 -0.14824158074962857 -0.10515786218627696 0.37620381455935203
Ni 7.341634710248368 5.1298132461477515 12.701558204925716 2.058157024865765 -1.0320418373814226 0.046647010434577724
Ni 6.661132332017671 4.90415242172698 8.54844403723822 0.5524549931480293 -0.6729718542888797 0.4790289148473944
Ni 0.6168392820156734 6.082905369463481 4.299738498617125 1.5254884703160438 -0.613886103870317 -0.29693053344932085
Ni 2.537285277651737 4.115269055394726 4.643855921152169 0.375397773718289 0.0575492591693783 -2.9499377285998745
Ni 1.8750052492707674 7.057673690399523 8.738699147313476 0.5120920159499504 1.400651898753917 2.0556702538881693
Ni 6.083207345224844 2.2843239570552756 9.377321262140192 -0.2871917088950021 0.5968234919610753 -0.1903127988880658
Ni 0.8467211613757416 2.242906094035882 1.107573486086311 3.01943079039469 1.3160062975883786 -1.9382001499934427
Ni 6.27044175401222 8.761477556462761 12.031252227012281 -0.3116758100792955 -0.5049919145700593 -0.7566805454624451
Ni 3.8944964636110124 7.2615922600021845 1.3425162904719659 0.466033531028991 0.5106907647270494 0.13763500887837588
Ni 6.551968094285079 7.289694879293995 4.370702802537345 1.7407072884171697 1.5186724758354748 1.3089830721930102
Ni 4.206031645169283 9.126585125435271 7.984141931979865 -0.03464870042212097 -0.07715186389165422 0.36669973172365883
Ni 4.477573911832089 3.7649394252438997 2.196145147388878 0.13156360587331534 -0.4361233737331198 -0.008293350357043781
Ni 8.467419222093353 1.5979236147354652 1.7140229145626011 -3.3786928348933816 -0.7639436547827617 1.8625526385614568
Ni 6.489940385552685 5.148365881986469 1.0171534500660497 -0.8435825467623279 -0.22004657850707265 1.200861756503035
Ni 8.157384482599353 6.957162945578478 11.140444491826102 0.8689359379254518 1.1817330060933842 -1.0600982292980066
Ni 6.259174283416376 0.8122091065490096 7.019082131771632 -0.19912242675989578 0.22167537235974727 1.2590314228652317
P 8.672970348155882 3.994101281147969 0.34704658742026184 0.16564254983489538 0.3956773499029314 0.9204590455054082
P 6.934939416890696 3.647904944230794 10.967135884008815 0.26400678613810663 0.4881092798821077 -0.776247154740463
P 3.9400664933491427 6.617581765183654 9.764972265372677 -0.0643966211085149 0.3557805137079937 1.118687756806441
P 2.7509991860135994 1.5973951571530804 11.57976449150199 1.3745058364861682 -0.9712594159867274 1.8937169799794031
P 0.7296753562715845 8.040897332653717 10.505523467424588 0.30789911664568265 -0.23234905002350953 -0.29034131026757737
P 0.4646708648422792 0.8077587387659277 13.282696402554294 0.592585799730644 -1.4515689973187582 0.32722301378527513
P 7.903507797976261 7.766278687922029 2.2264616264811776 2.3909315645968885 -0.9904611857261587 1.4870160252724585
P 6.1292775223177305 6.933807007785586 13.125326452891427 0.028987388371285564 -0.8079550273667052 0.748240385114892
Ni 6.251190799225352 1.7573951269625638 11.99847747648764 -0.2893560635361726 -0.2140415099635733 -0.36050877242159846
Ni 7.379693092922602 5.566545691018462 6.276942725949805 -0.18480755279912045 -1.1635311383733768 -0.29059302126706726
Ni 4.119874185755506 1.1994099771622133 2.687507838512851 -0.4610803007887736 0.7931398167307437 0.015784002307134105
Ni 4.505072579601174 3.2209584013767416 11.48793083144885 0.011256546750425776 0.057401677847920496 0.26944569776549077
Ni 3.1304977873635473 5.34859468525498 7.805889414744518 0.6645710318196941 0.6141195600373617 -0.7938777233380327
Ni 3.538976625061766 7.356025742625805 6.140952660191414 0.3910732754720168 0.3630665058464457 0.2866124393527645
Ni 8.351677574808582 7.755360376800261 13.258222210770107 -2.1714650269630025 -0.6146193824919157 1.9574546273476807
Ni 6.549486230996379 9.566875222244535 3.665646963885103 0.6918884886877246 0.7575680902737212 -0.2608229890934863
Ni 3.0383291229501457 4.664006197503346 12.583110099879733 -0.45650939358863957 0.5259433200107458 0.5144240065172366
Ni 8.534618265739082 3.23341490153295 3.6536170044918186 -0.40159320116673414 -0.36034473603990846 0.5637850734488677
Ni 0.9648597412663298 8.031649324961986 12.605940411113002 2.4969240068693193 0.8952627487454388 0.2570216130695251
Ni 4.273730836169769 2.9159723191430236 7.7157958900162305 0.3062721225652209 0.854598181146541 -0.8702988797112496
Ni 9.084233024904162 8.462162956497135 8.629434880109931 0.7421450708504316 -1.381109457845615 0.6870697271428425
Ni 3.2455222422150833 8.854854123921614 10.531241421875887 -0.26048334636588044 -0.6467820832673893 -0.567008722592488
Ni 8.812813435894409 2.6821864593930886 9.426642397038998 -0.45450213335062367 0.05367872047037852 1.129420826953229
Ni 1.2265689221997655 0.6064484848020361 9.4402605602022 -0.0016290509629907429 0.5840047429298523 -0.13728148219369907
Ni 3.386101395871932 4.467665332162378 9.77092496256854 0.36639865554347223 -1.4206260278829985 1.3183506294508391
Ni 9.130510810332986 4.89950954439603 10.802722349712166 -2.010398526534563 -1.6120413158066236 0.8915202509838711
Ni 4.939898802478282 2.895598391993588 4.636852914511319 0.27376849351056076 0.10305855645508703 0.46036604833056843
Ni 1.9812063498449886 8.861186178167685 5.135770661714884 0.36798811151777916 1.2220494463242437 -1.2997836650819292
Ni 1.0904722212506432 6.306395743099459 6.789477692642316 -1.141671362185808 -0.2867613062258029 -1.728189358455817
Ni 2.4238367588048124 1.439905360859924 7.025146182529496 0.33864359691739093 -1.1582786317251859 -0.0733700282517188
Ni 9.127132456502741 8.144861925245348 4.190945124866456 -1.0172978463030287 1.162325805211366 -0.939063805090789
Ni 8.143937124476173 7.6954370616548635 6.563713064053576 -1.232867105765038 0.007808440300825262 -0.6979490930595077
P 8.662712609012095 0.9998700560993101 4.076308520133421 0.5667778375286044 -0.571195506980326 -0.776646704171727
P 6.484334960482391 4.003198300959018 3.29213975037544 -0.5386139734998788 0.7351061617257793 -0.4280879050231531
P 8.462568736426466 0.9323124162369633 8.217117175545392 -1.054890716955138 1.68106746526735 -0.7460318074993475
P 6.197203195139238 3.4228952550454608 6.771205328057114 -0.007726936330612499 0.5427758181870523 0.2394684346771102
P 0.0034897073922469436 4.4046373287204705 5.41488968896513 0.0675477651429869 -0.8557076121606361 0.31656759095395803
P 2.3504849590213204 2.928334451873806 2.5013822469742286 0.9146781771575732 0.640491365162671 0.6230939956218301
P 2.4470511454595654 6.622847467522414 -0.06528527225809304 -0.5071048471480041 -0.5049700601931885 -0.2229421548873128
P 1.7358982274505612 8.441666351694646 7.147336899667868 0.04216866294824996 1.5271738284382668 0.5742900867452497
Ni 4.35336750648662 8.522907268243738 3.6422504480992783 -0.6576467938960351 -0.8564884561907183 0.7979968877127289
Ni 0.35661450068418604 8.94364443450477 1.3538111276211826 -1.817821614202669 -0.06392970877442539 0.06960207656885432
Ni 3.4578772596508136 1.7286319356927728 9.6104474935864 0.8564758577852282 -0.13164202451973459 -0.5652878832466394
Ni 9.309837228869677 0.17421642244988358 6.221736838401443 -0.0729599372974937 0.8569098599988533 0.8063786840185209
Ni 6.567312237659317 7.877330274163138 9.377141020357628 0.5555333749630368 0.5333252142971138 0.507802387435661
Ni 5.150734504364657 6.762935910567048 7.989501058069797 -0.34224596955666864 -0.8119538641134533 -1.1574535647207294
Ni 0.8583745947415765 2.089464660293493 5.257313074640582 -0.13749719774893096 1.0380762165009605 -0.7720652554486317
Ni 2.5338031196535247 5.346178879164079 2.2207297490608133 1.527942331173175 0.8932722006779712 0.1376470930632339
Ni 6.067410238208561 5.8706164092255495 11.026153271870125 -1.8712339683855386 -0.1874817571971739 -1.8330813685752172
Ni 6.316983768232236 2.447862705318227 0.4902972828909158 0.1908496452281423 0.12459283098243704 0.402800591211274
Ni 6.151916267677386 8.354593528254238 1.3640131899839685 0.3667179865561039 -1.8168080853364903 0.0011762796962882967
Ni 3.8957704238542608 -0.0964586075732595 12.729443779139048 -0.24751675890288338 0.7498943757785472 -0.16317814745480283
Ni 1.9255201321012105 3.795438977141526 6.666402752727702 -1.4666202352249258 -0.09644310802109843 1.7405141985697572
Ni 4.110333639044955 7.055116333170483 12.1474364575223 -0.4034053146748085 -0.5878757958494844 -0.16107138552444517
Ni 0.6033051058611019 4.778143598555879 8.735439696439267 0.5671280217791717 0.43844919365281904 -0.535183093441459
Ni 8.078663176309131 5.594629436825187 2.9747896480624303 -1.6165785415553449 1.002044262578068 0.29272600844967
Ni 4.43518406433081 5.217933548010386 5.826461890868807 0.7825514996919362 -1.3011273235940173 0.6226440525686051
Ni 7.757370402961831 0.5404111041632992 13.476777168056312 -1.4258682501185445 -1.1806158617698053 2.1724690427474846
Ni 7.622226813009511 0.6171346520572563 10.292188916112938 0.7178422324390088 -0.9493492461771972 -0.5811346204709089
Ni 5.097813252185856 5.9145066987911 3.689858814226606 -1.2967232809890505 -1.664825292376875 -1.7237716890040957
Ni 0.49490430060020446 4.5303441761302095 2.2661148186451086 -0.35424402245880926 -2.2023195504500137 -1.104031440345847
Ni 0.5796132200336948 5.653533583775985 12.999696043096284 -0.5118284778759186 -1.1801078117851354 -0.7777959872848217
Ni 8.589983634236413 1.909354992125767 12.054318456809115 1.3028152528194015 2.9502511460752348 -1.732927901582067
Ni 2.5089750500239907 -0.01106269328266926 0.9053506991185514 0.6062522414741429 0.40639139388632595 0.0073258442374519
P 1.8431279329619241 2.9797552619883376 8.741005487190883 0.23838625735652494 -0.866694707299759 -0.473253702926514
P 2.9736213793356585 6.314171618954546 4.29868913284639 0.11671651355815382 0.2618709707420264 -0.36566871935598316
P 5.40878222919157 0.2857115355904938 10.164874047773944 -0.41686298284161116 -0.22708188808729926 -0.34951396397299167
P 3.8087070371563967 0.9994737129125216 5.105067276178338 -0.1810059196648431 -0.4849121131010488 -0.6780898922417354
P 8.562041439567826 6.377548781870529 8.27002899098165 -1.0984768290762048 -1.3976113121553801 -0.16718135507692497
P 5.006852490817904 0.3787483803178129 0.7090740036268731 -1.368576872596243 2.1559317072140933 -0.2726179248458853
P 5.853668019619072 8.215222277642841 6.489282644597467 -0.021505735282259738 -0.6409474788634832 -0.5827107067087771
P 4.7539477906766985 4.103425943503785 13.814112403726002 0.38350343354455885 -0.17399632111622937 -0.020352338404106884
