# total energy = -340891.1187640872 ev
CRYSTAL
PRIMVEC
9.08167401981026 0.00000000000000 0.00000000000000

0.00000000000000 9.08167401981026 0.00000000000000

0.00000000000000 0.00000000000000 13.29194791767363

PRIMCOORD
 96 1
Ni 6.489410170134632 2.006904682787098 11.392980214616065 -0.5534677506832597 -0.22000055576048563 0.6339059986356695
Ni 4.7410698323844205 0.4606588401408824 5.886366117995863 -0.7539019542760436 -0.7379282045556065 0.12094572114815298
Ni 2.8904244352109187 1.5906370659450215 4.611056585096019 -0.002689373906705046 0.7136263945854484 2.0769011382424876
Ni 3.5924106028311735 4.209428627001421 4.8097981260997855 -1.1457347336219044 0.39770954984161183 -0.024258358326732413
Ni 4.979772556031274 4.788621478291243 2.430419475609626 -0.747186747039397 0.4180963410280799 0.30804772640840494
Ni 7.56414457201761 6.168300335151167 2.5023018347610946 -0.6465961925088283 -0.7238154193033083 0.5581571857391291
Ni 4.693372879691023 4.758570218492604 11.18968058135091 1.8154268887182476 -0.6925436057732202 1.346258925825333
Ni 5.640854863230534 7.958534435805918 12.35881353713264 -0.7532550647206641 0.20880288727245333 0.8666327437135719
Ni 2.016513094049401 6.375199035886313 0.5623054781875039 0.15314081782345884 0.38646560149667636 -0.2916356035989687
Ni 2.8880813632773896 1.712703848342577 0.152036307128746 -0.5289882774846567 -0.10475471321058734 1.168082505189485
Ni 0.3691001257522629 8.977434704947271 4.999726810497751 0.673210452662247 0.9889810016362064 -0.3783964513352967
Ni 8.455801504489656 2.398079633922423 1.3579854617916212 0.903227255008154 -0.207814555217255 -0.028930309881105013
Ni 6.962002330123025 0.6784827948916723 4.8433467386178135 0.1610814128267742 -0.9076030154783465 -1.088843676861815
Ni 0.9485627027646654 7.499655603800584 2.8345349042569126 0.10625598034646216 -0.07605323151083676 -0.2363525147559478
Ni 7.778281367059048 3.7063038784838587 4.091101678023353 -0.5270650923200149 0.7797109449193476 -0.6450373326621407
Ni 7.460468179796012 3.974985208536063 12.883552670153307 1.7395868016594813 -0.3198673447511523 -1.230303973023552
Ni 7.891484435475499 8.803502481416434 7.21617205303342 -1.0547045690862609 0.41801689394039615 -0.9443255677103607
Ni 6.87346508872776 0.7895044451746599 0.39143468701632866 -0.5821229525261071 -0.6586140429053109 -0.6904982932084173
Ni 1.9237165474726419 6.498001433890907 9.39687545874119 -0.9774321204563425 -0.7735608661575517 -0.6834930655351777
Ni 0.1397642408350315 4.784834420166121 1.377391183138775 -0.01684432525084841 -0.3657499662158798 0.00425980371761847
Ni 6.4473983454659995 1.7896982818792537 6.7934083146640045 0.24490554653228144 1.1000197480832927 2.1350155258867165
Ni 3.120508650079014 4.179713389146738 0.42481892123204285 0.8871169797098528 -0.21385999008038653 -1.4143237398140547
Ni 6.080598607778709 5.537369186166316 4.584126696706505 -0.403782238398253 -0.28221071074064297 1.1568496125881431
Ni 5.196034462826377 2.6549547875653703 9.286632107933798 0.7242260244781656 0.11693222911338572 0.28132059482620586
P 0.2825481383285845 5.723915855106736 12.404059345969994 -0.7299248746351558 -2.039309553141959 0.7040991718213035
P 4.007688317189705 6.106944544519674 12.955089925686659 0.16088935142062613 -0.10514243556730925 -1.5092630095961168
P 2.3908324579419715 8.468234316416021 1.431794952200047 0.2341611635315838 0.1227982009758595 0.923275689018597
P 6.553345156227839 7.530088293913984 5.840628082418986 -0.9803996877250987 1.1421081926129104 -0.9141418450381289
P 4.818091510943582 1.0643268032945097 12.570779812049608 0.015261039924128559 0.36198021476080244 -0.3003094772238828
P 4.060670804244785 6.010869513570806 8.375057247691917 0.038002961606334554 1.341022102906426 0.4371176193255891
P 4.655356991653216 1.0414500660830344 3.556181080100828 1.1023363120316112 0.007528447166561229 0.6118235649143333
P 0.4863372738310162 5.416928023443574 3.5335849666209262 -0.35185495340134243 -0.1031158920555837 0.5600353765984484
Ni 1.5238413524911103 1.0758786928272597 2.819674560827323 -0.7198255814176248 -0.5246402849286063 -1.5743111482457015
Ni 1.7789092529760253 6.757246904489866 5.024954793149501 0.7343685122288062 -0.840979561921842 -0.8900580646160479
Ni 6.231926544322899 5.617069958602961 9.20790398279979 -1.6506222614036152 0.8119338095087952 0.47691135428375925
Ni 8.678093642927642 2.2407033023870286 10.236474418587743 -0.36390674235955395 0.9598105507198373 -0.7150194182782331
Ni 2.5308264651332752 5.422077332692842 6.931511517294995 -0.27033298546645057 -0.6358988606959823 0.8900914889571445
Ni 0.5632254517800098 9.112915120080576 8.942171472347653 -0.5153136082110416 0.5152966389301771 1.2731737758038846
Ni 1.266975280522324 1.0413774126897466 11.343920102631106 1.0112133306718456 0.15001152816585778 0.09598545165838954
Ni 4.275970053578826 7.096066004087217 1.6563493356715295 -0.3680176792041339 -1.1877488732701609 0.3354001502794288
Ni 5.569890661336739 7.8347602986661 7.881022346842065 -0.3685694379425459 0.29703826267177874 0.8639472264616088
Ni 5.294098380416497 2.8181887989345884 5.01453357204979 0.9414600732371077 -0.5163348503867042 -1.0312928750305401
Ni 0.699446023357432 7.597002069131988 7.0824416765109355 0.6985029086804487 -1.3102791652966144 -0.21673705451786543
Ni 5.130818960676475 4.687161014564922 7.023691418196225 -1.0650391182430496 0.987640685558228 0.25378947928547263
Ni 8.043829519525717 7.261479617255068 9.1949843931384 0.7356779750688491 0.4757337890358904 0.2897944366251719
Ni 4.5100502050777465 0.1942588266379131 10.268255737314046 0.2180866265672244 -0.18822352045920487 1.0470827908749452
Ni 8.372086632073865 6.927918806996916 4.747285330180187 -0.7747937101233883 -0.27200754495539603 0.121653545848455
Ni 7.383846094899935 6.074059802382814 7.172640864277658 0.8836974125053427 -0.8617371061841677 -0.6350002601411129
Ni 2.434887659296822 4.877685456787845 2.4941546648712913 -0.5910824757122402 0.8952192971020131 1.907601708381295
Ni 2.305346659064791 5.219401610442545 11.391053083359107 -0.6984170338348616 -0.3289076005765497 0.3805440938059188
Ni 1.0887746701358325 3.0546120223670385 4.123720327107297 0.5909125257932791 1.7104045236685705 -1.3408950904102586
Ni 3.7144773852287285 2.6995003993249127 2.355891624775068 0.02494124332636995 -0.633742990695244 0.5007606500975311
Ni 0.9867693059598529 3.4061545474639043 8.092948662392724 -0.38931824045412305 1.0949973551680368 0.5223525173356939
Ni 3.8450900230117537 2.794285832542924 7.136207912046107 -0.5211016756477282 -1.2544517739143493 -0.08123631837367298
Ni 4.194362129568378 7.13910405793604 5.966502810792235 0.17447171809075113 -0.6298125452925862 -0.2597629232600881
Ni 0.7782413528802287 7.58875590899383 11.721557910262094 1.6906687358025398 0.20106386675698276 -0.613722324598943
P 0.44439628622083904 5.678870751268341 8.062882871915427 -0.9462022159077834 -0.491840979010398 -0.3447998463267739
P 8.416804795642465 1.762544076137963 7.88076987630039 0.4079764789852587 -0.9573638889515577 1.267949808400784
P 1.6807636003184565 3.1509595035407356 10.217481005247496 -1.1972056478076865 0.9504892733189114 1.4376379890599629
P 3.8671040011779376 6.125952488538578 3.9751695665215308 0.5715017253668351 0.9809010528415494 -1.0598082088614136
P 6.71999387708158 4.004064729199478 10.550390659468306 0.2465538807689818 -0.17285912218799263 0.5400864442803472
P 6.2366217698641195 7.7703258204940395 10.260905030248159 -0.019102525157405813 0.03517834767334587 -0.28586373411219795
P 2.407506411701507 8.618717657263241 5.922945285181405 -0.05386975343526206 1.080515616612094 0.19910777147187644
P 6.823543125864925 3.952925821999074 1.9009215453286148 1.5490174066759193 2.0044975876690962 -1.2657278610488008
Ni 5.420542529759639 3.211388963407809 0.31485074515172745 -1.2721003402340478 -1.1175387308036624 0.02575782569039435
Ni 1.5293539287068172 1.3139729443053276 7.12973449470417 0.5479866729640304 -0.7419064724770643 -1.2768121438874203
Ni 6.787952044828096 0.7931734415356904 9.19980948662012 0.14918131895507858 -0.8118227378522276 0.043102230506112865
Ni 2.7352186237999954 1.5846340793246225 9.244536731862883 -0.18128616990942326 -0.7147931612000399 -0.0684363383955273
Ni 6.348344525392334 2.0535572429519844 2.5267061095664447 -0.4232426611157098 -1.38802598245979 1.1447597713031445
Ni 3.8814621280264263 6.83129887559839 10.556611606268568 1.4793461674320265 1.2659291784263293 0.2908961543297829
Ni 8.845496142736744 7.201994651500735 0.7206762530435242 -1.5396249097174257 -0.01069244671683965 -0.7480159278089118
Ni 7.485488192109476 3.7339030862590366 8.422310106518843 -0.011201525142774256 -0.715641111022632 -1.0339015162979805
Ni 3.031789775200529 8.510019099230629 12.608409728935575 0.62597697359658 -0.4171278064672235 -0.5441400455244306
Ni 8.746278852528182 4.990606993305308 10.084614295937719 1.4546836316883398 -0.552860456116564 0.11564436353989763
Ni 8.780407784025096 2.2740966182769036 5.800672348780396 -0.6274831258284613 0.26599656287462575 0.7106467431318342
Ni 3.4106772211960656 2.67148343453833 11.409436208195737 0.7947107607622894 0.08949598727930393 0.06698083689592335
Ni 0.9961688387164536 3.6180027606167777 12.60342479798862 -0.49411614819782 -1.2346761339493189 -0.31255255625729395
Ni 2.7688571448922166 8.379233909638545 8.181951793672447 1.9609654687144165 0.09721238208695517 -1.1513579933459526
Ni 5.8302531778574975 7.7861097701858 3.621949656207134 -0.6031736025488192 0.5294212512570172 0.10489098167813549
Ni 3.1627565982758314 8.451959956319568 3.8349530583132827 0.866078670982315 -1.1108934575730032 -1.0408818042705559
Ni 3.423100951448268 4.091784619920258 9.280132353736793 -0.8704873415729718 1.304710155849269 -0.7235701360617216
Ni 7.333424639958247 6.176864353884958 11.523347647196745 -0.31446725678150356 0.15757082857035443 0.3926017963014013
Ni 0.7150247272131546 9.327696713987441 0.31594962772520446 -0.15483414636548173 0.3031765143590327 0.5118858134764152
Ni 4.6317809655313456 0.2808389672514905 1.42468400133201 -0.2247527257334903 0.7816642119909764 0.26568443095084565
Ni 6.104265450642189 5.732007626784158 0.28798079581167485 -0.6229749535454625 0.8427759917006324 0.9394029335977627
Ni 7.957798820198879 8.694077389450944 11.4418414379369 -1.1051300727266644 1.175484196970195 -0.42651670388129126
Ni 9.448755430553128 4.920950552490692 5.853667550179302 -0.5985834120749756 -0.7270568090587414 0.1701674342884424
Ni 8.074198637919991 8.999866440124858 2.3813321186021845 0.20728259397318494 -0.6105344137892647 0.25573323327540476
P 8.510164406017203 1.626664067341577 3.572689747390634 0.020213755943713572 -0.12910460280986152 1.0291822564454405
P 1.5905462492034117 2.977481363717947 1.6389234192914663 0.276948176790123 0.08289879367776046 -0.7360163322448743
P 4.537803801313661 0.8722639254687184 8.185074981416403 1.171401542260389 0.14630733984139319 -1.3687679055611266
P 8.479005181970928 1.5790488497156279 12.406957308194759 -0.26572299749826495 1.0178308359883632 0.0461970673813527
P 6.4802013525354125 7.7877263081864525 1.4304263439039893 -0.04079955051486522 0.10338225834309292 -0.6808152615926985
P 2.0215625048828985 3.302142133298351 6.115864564880575 -0.45187626569200245 -0.21215200625034433 -0.5596700228392297
P 6.841524840703639 3.9786178782004495 6.235173242835446 2.1908100071485177 -0.4863953825147946 -1.8451534692484028
P 2.311721994325789 8.46832513315763 10.30523449816267 -0.11293622058011517 0.5016062859272781 0.8008251011901434
