# total energy = -381161.1187797798 ev
CRYSTAL
PRIMVEC
9.32822492221767 0.00000000000000 0.00000000000000

0.00000000000000 9.32822492221767 0.00000000000000

0.00000000000000 0.00000000000000 13.65280008509425

PRIMCOORD
 96 1
Ni 5.289178031628895 0.4772086551742748 3.5444306147235674 0.7990291856319852 0.2662385036821028 -0.9017236738794341
Ni 3.795654631098322 1.9035268608418645 4.581879385963908 0.20215812826242605 1.0292599037609111 2.0548043063434482
Ni 8.792262223184903 4.991756915241727 7.0546471668864505 0.04377714508595041 0.2484773230439398 -0.42930403681844126
Ni 4.160807987044117 4.671248442717993 4.757153929640359 -0.08041922178901634 -0.852152547819526 -0.11954344148398768
Ni 8.819043556303319 4.103374107556104 0.04614859324396564 0.5016157990089748 -0.6259366072769479 -0.1315947162215669
Ni 0.8394553363030376 1.3940192276381527 2.5199107629197046 2.964799476203055 -1.044129621783892 2.738215867908413
Ni 2.526288470148218 0.2560121941141075 0.3961622404989945 -1.202436814299639 1.1322989198319726 -0.17430305372337077
Ni 4.510224627918241 8.933995269301658 12.386570855388152 0.34129337583541225 0.4778099548386287 1.6650561774407584
Ni 4.730146853484163 6.2439031733925985 7.09070448664818 0.2752003408610809 0.3824647078673994 0.07882488071870296
Ni 5.050310181693937 6.467957802501349 9.561096368739216 0.16058467569601376 1.5204568214294072 2.05992594384073
Ni 8.667833033889693 3.4882150013815894 4.878090631607273 -0.5020611140765096 0.020927237070970408 -0.9222133091923538
Ni 2.7564717428859473 4.69235821521781 13.078658897854643 -1.0593402680860593 0.22226775452810754 -0.23133346427480161
Ni 7.027231514488324 1.4411547470555521 8.572388504387428 1.6060760993621244 0.1332296807218286 -1.8477384563667594
Ni 6.773149330064986 2.880574444316599 10.249034284035945 0.20131506353584042 2.3090334442695006 0.6149227726649474
Ni 2.097535278186625 6.552788677938087 2.6833897664609294 -2.5195384018347253 -1.906241337698659 1.0825303330492775
Ni 0.8684866372194893 6.713868462086048 0.12503925519069636 -0.5017520674765229 -2.2976159464611783 -0.1820410457975768
Ni 3.0806555359421286 8.289825384305036 10.643190023401617 0.8367698947158685 0.5651300175125363 -2.0129531746356175
Ni 1.7788737941538164 2.6199718308268127 0.7189663891218024 -0.6383486077880555 0.9198216690317256 -0.13678525928357088
Ni 8.927614763605735 2.2322255146536407 6.875782189522337 -0.806484613468766 1.045807009486315 0.09548820030699684
Ni 8.281999003780358 7.001457629637685 2.945864554648335 1.5779490021086051 2.3731300176390935 0.7396325888412228
Ni 0.8062468563651904 7.729385644230356 5.0989792612522855 1.5556529097145662 -0.16744283626842774 0.9061817096507878
Ni 7.802005873532643 6.166227046302022 12.964070985619667 -0.8937918206268671 -0.6529085078801014 0.40885296805294097
Ni 3.8706628859242294 7.6922872945919245 3.1134526411706327 1.9111570298327214 0.7548658608512097 0.8902187585636282
Ni 8.792542069925952 7.347003057260628 11.051190713869467 -0.11576983337416837 -1.2888004265975481 0.502605930836386
P 2.90114317978372 2.5696833714602585 6.748893147373305 2.5218143423530957 0.052973981093870054 -3.2710613143556313
Ni 1.6126075170717409 4.451176965556844 5.3306401247827555 -1.1469850610892376 1.4194582328271426 1.2278611679100144
P 7.920726189310447 5.313412759403762 9.984497025367006 -0.5930102888625723 0.06833375137939199 0.17238886741979342
Ni 5.982703553521908 7.2332546852487996 11.734021426142046 2.2570431672451385 0.8699461243575212 -1.4216112746144034
P 6.690585213230749 3.3345418276467313 7.230795765217446 0.6681646627082235 0.8338442364286415 -0.2518801780779017
P 1.1777629943799754 4.950339597566434 1.3564040943512496 0.6193209017326431 -1.3600444096451998 -1.2736352888213356
P 7.688611974059477 2.347951470302217 12.838587706933172 0.38231609810467704 1.2301311948911138 -0.34603346162355886
Ni 5.706420194308661 4.727693530387632 11.371212253063774 0.6118726729847139 2.159149185710127 -0.5359145722908447
Ni 2.9632225151731513 0.6118074750392143 8.969424799540967 0.40606177846104907 -0.20308012585606317 -1.423835793069548
Ni 4.021276401956949 2.4078200164373587 2.4304437598062516 -0.20068437193037694 -0.3910578488530491 -0.10403223322226599
Ni 3.2955311919444625 6.710659552788683 5.496275813875 -2.2796246520900807 0.5101927420447084 -1.3211801284798341
Ni 7.22422496373761 1.0098922626492173 6.066457951828075 -0.5861955799335841 -1.3427033472635908 -1.2349371009201893
Ni 0.9818609474207818 5.094311417611584 8.950570591774007 0.870281653320069 1.1558507390099835 0.6572112490205133
Ni 3.3472561979150703 4.692591420835351 1.864836183246862 0.21491079994240406 0.3113551935150831 -1.3534194481295143
Ni 8.772374448121 3.550798060904909 8.818192822210529 -2.3261659901847294 -1.4782169389235897 1.4150896714458017
Ni 1.4430856895687922 0.9702659641166401 10.607461057149385 -2.971291511685302 -1.4568127622162008 -1.2616264372859176
Ni 6.023365284996368 1.7382213909040585 1.3063889519684533 0.399511378937041 0.7786341669154009 0.1141847482752356
Ni 6.193829263194182 0.7357142837511313 10.537654220417114 -3.2964429876535295 -1.4879663050008698 1.637569027764083
Ni 1.3364360965549138 0.7965986735562816 6.914201415778522 1.197244471465422 -2.162688309211637 -0.893929631756312
Ni 3.0351990969710245 7.22922489217769 0.6736955818222613 1.7669533665978923 -0.12474246918642388 -0.5570151017148859
Ni 7.21576426393322 8.180759781093432 9.58123414022512 0.013657957103066798 -0.119962017078645 -1.048478899891523
Ni 3.2460076470034425 1.327481000841337 11.635188885428143 1.8824946289010223 0.7219256584797631 1.671684224280237
Ni 0.22775327020295177 0.7602764322130261 12.94767383223912 -0.44173943436831664 0.7801084374680823 0.356902800237895
Ni 0.2975153314566552 5.070440490600081 3.2402465354277084 0.6405494720941163 -1.2982422887367382 -0.1837801399758706
Ni 5.457860318908696 4.388724501179348 2.6551550959339982 0.6547586737149627 -0.08471939182626699 1.2177461909631997
Ni 1.3999426503236956 2.1643533517244897 4.808530060007125 -0.17473268506162165 -1.2814303593857221 2.2310279741283
Ni 7.689572781203746 1.0961223717912003 3.3433663282144854 -0.37759015338391744 -0.39351273815144483 0.6508277140916727
Ni 5.359550158778085 2.740063395635758 12.164685971345005 0.9098972108291621 -2.331761481994636 -0.4299426988437047
Ni 6.7356871796631905 5.97022238887111 8.107674073378533 2.265367113729802 -0.3649354407343844 0.3485801393048126
Ni 7.020739070095981 8.878408378304572 1.3123384936831608 0.21160847504204847 -1.3458313513696112 1.03501197575334
Ni 8.03529544509602 7.705393450297732 7.033334971910609 0.9719495000752164 0.520081204803014 -0.4054603974316243
Ni 4.394535985168471 9.244727762338071 1.4503094667777443 1.5652636933314525 -0.20305107239034065 -0.45404807653234064
P 9.060905766367505 0.35926071640176704 8.318432250997562 -1.089885744973084 -0.009716713067131654 0.6522253657701477
Ni 4.066107849873042 2.8933261274837436 0.24068685375177906 -0.8207773759423541 -0.5136583319958057 -0.04438109721853647
P 2.4734907183369215 2.894744017638394 10.273486359446359 -0.8178954264088688 -0.2654774571463621 -0.1407910380088543
Ni 9.284727189858714 0.45781900730944075 5.032217157062631 -1.1446260739387577 -0.25139089714630897 -0.4701552665068484
P 1.9353640917485704 8.614960656280784 2.5942912282231916 0.6993750268727569 1.7259928650251306 -0.4653488462571405
P 7.345930311419939 8.286821695951108 4.40095287094073 -0.37304649987729305 0.6867424257104109 0.6898508894324055
P 1.9072021813743116 6.335319775468695 11.216279768994193 -0.8711218898331772 -0.0347973101848433 -0.5015255532880137
Ni 5.134114952413492 1.8764656809823999 6.869760820477427 -1.4579957267807082 0.031210364164533346 0.3137380919249629
Ni 5.027017604613936 8.725761309286893 5.468861094299343 0.7549216537898096 0.3684743071255783 -0.5422819092697693
Ni 8.347902911297462 1.1002174624352214 10.71944079775778 1.581020184834761 -0.23488647173338256 -0.14459807045977033
Ni 4.420673670782473 2.291543695531385 9.580565306514012 0.9661516624465167 0.2991239415562139 0.19979117069214625
Ni 1.5282896939935946 8.33329491141469 12.27740264170483 0.29831430117072494 -0.1146956264733831 -0.5012033940619046
Ni 8.891085435674103 5.99981151762472 5.001539424486339 -1.5240805342249235 -0.20724325609481728 1.4103806960059064
Ni 2.689271212135315 4.7729540766400005 7.283100053942027 1.0220263621269494 -0.34111494127601893 0.12138460845778448
Ni 1.5676081611110175 2.641165557348945 8.165015603442 -1.1528749442111115 1.2076404699877654 3.8306382632604223
Ni 2.7875254029177152 6.644195951789481 8.724439499846671 -0.917759130075742 0.1317816354213924 -0.2273945342317116
Ni 5.034442871476442 4.4682756014349545 8.714745608736724 0.32839775081966666 -2.4297786193710733 -1.072397358380334
Ni 6.677889499411813 5.203367692598486 5.531555159696612 0.8696013394235927 -1.9936624447268052 1.5617425675520715
Ni 2.557556679348123 9.27402771612593 4.505274139069079 0.008540690481159486 0.14217043485488418 0.34667289497977066
Ni 0.24559723123472366 8.582815593958925 1.3902235730070545 -1.0890005141546535 0.7887126341973255 0.06438145159986332
Ni 6.157281278813147 6.728159302328965 2.3629447258651672 -2.18221069551528 0.6988921736990674 -1.2129819368053367
Ni 7.743275370811102 5.151698655976089 1.9517901626256926 -0.4218038717866542 -1.736284476759126 -1.4719971832661232
Ni 6.303725078404232 2.7358656945200193 4.787230924545865 -0.6670806856154253 0.7260988160208462 -0.588539140465096
Ni 5.46725384118325 6.684391272028858 4.617158731785518 0.16109349701163223 0.5778505504029984 -0.911476896611456
Ni 6.002143573800131 9.00175549353439 7.538365990080002 -0.5264290013979127 -1.2150167078471783 0.8554890683919267
Ni 0.938932457343823 2.7343918350171594 11.906374369841942 0.4718933322438776 0.0881520716568998 1.1038638044197313
Ni 3.3781326216775067 4.786284109738648 10.443039902913293 -0.3655393928669704 0.29616228782472864 0.2745778767857336
Ni 3.303161679750406 8.690398009442967 6.835888170940823 -1.631202976336739 0.34982275346266206 -0.28265216915343583
Ni 0.8833147832052202 8.197774462949228 9.487781186696656 0.23584832142601964 0.177910568568971 -1.4189000463308274
Ni 2.1679353900099203 3.5882228984078983 3.491103019749218 1.2686224089877765 0.3331900300019875 -3.192874581441559
Ni 3.8534709677991024 6.693365024191839 12.018573323730827 0.07967077365876601 -1.7008446478942771 1.5411092075724362
Ni 0.3519240676739252 4.720053714356987 11.290851462904063 -0.5365653185009662 2.1223605561268672 -0.1413674793376146
P 0.9811053612199487 6.706676400841082 7.236147367728779 -0.13629649257261042 -0.3257875668903292 -0.3057298769085058
Ni 6.060827435398164 4.219864977630215 0.31569137728780555 0.5130353536998261 0.5844896529860709 -0.4265005059313751
P 8.675090392707572 8.118969620669752 13.068923962556008 -0.9797782520910157 0.6909711190797777 0.17051324766363538
Ni 6.768914316050441 0.4848447399150393 12.926006231902145 -0.023879891941391132 -0.7540783319529079 -1.0930271188155434
P 4.285572992428585 8.115639444451267 8.509353025966078 1.0061688262694026 1.0767342951927907 1.4404749442881257
P 5.67455497872785 6.873660951225184 0.12351035916209717 -0.4011967370592639 -0.19307082124917718 0.9957291189933173
P 7.26568892253641 3.1951501659300883 2.7209479975771527 0.3014037387293261 -0.7467257482425785 0.36823210920778515
Ni 8.555427926234902 1.617355583444877 1.2690835157416445 -2.7290527133519067 1.4165287178851735 -2.4966607259056035
