# total energy = -381167.2384858591 ev
CRYSTAL
PRIMVEC
9.23770856683894 0.00000000000000 0.00000000000000

0.00000000000000 9.23770856683894 0.00000000000000

0.00000000000000 0.00000000000000 13.52032024945940

PRIMCOORD
 96 1
Ni 2.900760531255929 6.573747297127429 7.162267843428119 -2.4927549630932937 1.186641756248911 -0.43190059390102387
Ni 5.37643867227237 3.8060005292811496 3.0573230609468394 -0.7393415399633654 1.1373562797502217 0.14868663870684715
Ni 7.250446389065094 3.0876393724099818 0.6829705721778764 0.8574325652715428 -1.4879084551797408 1.1619586516799343
Ni 0.30678522009936704 6.353908312363013 0.5751905330636504 -2.032419253780029 -0.49713282353695676 -0.5268568329639507
Ni 7.410933097288987 4.852873072663461 9.615462325943083 -0.7567911028983806 -0.413101716026966 0.6172465357021176
Ni 8.815314193884495 1.0030580923890493 13.327817433749642 -0.5582613154171611 -0.4237717941463024 -0.867064689044668
Ni 8.709487006328349 3.1234909187529807 5.06045269459567 0.3606334709249208 -0.32796426282667385 -0.22542146966574078
Ni 2.5549007283489735 7.353021903260576 2.2601513185382673 -0.37333189232819575 0.21931175722357713 -0.1559230085542863
Ni 4.832873433953696 5.866046455762529 11.50480556246887 0.4451973110099301 -0.04384656487130513 -0.7278883038211013
Ni 7.729643275176083 5.197827580146141 1.7582361361321637 0.5504996691938713 0.19418668002117526 0.4254481534074609
Ni 7.374619665525439 0.7820403760313926 1.9904887534592501 1.3390171566612552 -1.5405757036664693 -0.17074901782352528
Ni 8.772580554775319 0.7516520104426447 8.576344838771789 -0.22037310860855594 -0.31468580055021284 -0.11371937860304286
Ni 5.463707303630863 3.4578312992714495 7.5089969146965485 2.0103424764856475 0.9152075672984818 2.062369777395532
Ni 7.146309702148158 6.514967758508387 6.131072614990076 -0.17143061727158218 -0.6579715242253056 0.6045810244193072
Ni 0.45110131974984563 3.389592347239567 7.112540335280992 1.6311793221876554 0.6447871643245476 1.3267409103970633
Ni 2.4588747494168737 3.0029203485729172 1.9491167525698512 1.1822554542557575 0.08514722339230496 -0.034666698144249976
Ni 5.936908916983128 6.1590203780166455 8.384261472698991 -1.5367468168386824 -0.01576497614374059 -0.37502753486306384
Ni 3.280356445279771 4.045968480673083 12.39832290852056 -0.7396873533385584 3.211513279588669 0.6697561755650594
Ni 4.205974828059605 4.811257196272011 6.402317599519894 -0.23284218760984418 0.522036528757172 -2.266909261405941
Ni 7.0562328074327265 7.542173220683729 13.137383922399046 -0.07916040968125077 0.06559835472609993 0.7141203035027314
Ni 7.146041808604239 6.995032989210007 10.725155905374239 -0.2349479210989373 -0.056090929456296956 1.351131680536602
Ni 5.477462251454806 1.9392906021330956 1.8342338394584254 -1.4360166514064558 0.6379122915815852 -1.1779020623830683
Ni 6.184193133436556 1.0929132821026166 8.436679925306235 -0.9337886727347788 -1.1772405175396694 1.7448236245783886
Ni 5.373926015584583 0.35201488802118963 3.3877327965364374 -1.259409889250573 -0.6826610565521856 -1.7494014737570582
P 4.328799399091947 2.736975961129318 4.727921057384069 1.110065562355069 -0.088292453889506 0.9017370436158727
Ni 0.16861958670891644 1.6419010552585327 10.685514127270217 1.285219137004193 -1.4059565987962819 0.13030710775839494
P 8.21562063926073 7.862518472959568 1.5560402506618713 -0.6262405116706118 0.021878031020013934 -0.13240795615148165
Ni 1.889425452130645 1.862063359817333 13.523429604435432 -1.728256721358643 -0.7532136699597674 -0.9754228033357975
P 7.773005078457207 4.41227133229353 6.999564085185592 -0.590692439362673 0.8586934342618373 -0.12572900146940927
P 5.011900222958419 8.499125910393595 8.550129146072278 0.07394184159478878 -0.29067375390633166 -0.7402370551944412
P 5.895902729346805 8.815849980972331 11.839149638070703 1.120295467613193 -2.2196233318357836 0.48677590578266494
Ni 4.500325168866957 5.978340039206358 2.327266041456534 0.07925939715296026 -0.6700521095389235 -0.844223008559804
Ni 9.108251165304967 8.12148839055288 11.999743503712164 -0.8342065048640664 -0.1585200798575012 -0.11789639279886792
Ni 3.512472344522375 0.3845731913156759 1.0568335643618663 0.4384533074178772 -0.9061215458368137 -0.47188793292723896
Ni 4.826785784110863 7.359479061439848 6.433468076052548 0.8633787555526486 0.0804917268981646 0.45065447746975934
Ni 2.833981137152981 2.0348085071025914 6.58931745465413 -0.16684582611437715 0.7513113107307319 -0.20875763585681467
Ni 5.456280186068438 2.5727849318326235 10.588560682413654 1.0351251042924365 0.08379019514377828 0.006263207300892439
Ni 3.2071383684143724 2.401499342476299 10.880463954262938 -1.999110869435886 -0.37659205113670624 -0.008951295656016841
Ni 5.8538711560768615 5.509720329225937 0.3518366002488578 -0.49886548995734736 0.7383742909540897 0.1268338044978138
Ni 3.5514554740166955 7.211490972696007 9.389848849650965 -0.12922981553381616 0.11549781065970433 0.4759155660293932
Ni 6.6037606117546925 7.118781331083448 3.0738585590024874 -0.3995535450288861 0.9629976901985672 -1.6293831495191808
Ni 3.8785627288493694 7.200220968434615 13.373881266740977 -0.45399305492468905 -0.08909926606151752 -0.9527011933685657
Ni 8.48404073255847 6.405731856548591 8.237958341969312 1.307697520612367 -1.633790020337625 -0.7291715414088991
Ni 2.2483473747307214 0.1622603482388003 10.308946334063492 -1.3927046188823822 1.764987501120773 -2.245735455541803
Ni 1.763820330866599 4.646641232388412 5.736766574092596 0.5410212973897909 0.0705839808661494 -0.5261495224842809
Ni 2.199285905360026 7.536140997091361 11.481672493066103 -0.5911912333759625 -3.626807889501896 -0.6776072961783621
Ni 0.21739653466055398 2.030679251442885 1.754396944516562 0.058637607137550625 0.444959226857195 1.4110671805499697
Ni 7.443218888185349 3.006292112142923 3.080861665748848 1.1384528552485103 -0.07470263102021328 -0.43365665736018216
Ni 2.3818507366861525 2.66802570554979 4.27059629347775 -2.7862430465199695 -0.7722429186770765 0.4498936880443348
Ni 7.796810653032293 2.1903622790350226 7.2579649599407885 -2.2466129730507505 1.2729935414722784 -1.9075014353580055
Ni 7.08663410581325 1.246989020689292 4.661373529762238 1.419323249911175 -0.3223821407532061 0.3037424141648317
Ni 6.281336875086383 3.455180076957499 5.322774052800484 0.7233168824003349 1.2583706493527813 -0.3288520647482659
Ni 0.6904946856786167 8.870943673935395 2.4057108137408636 -0.7245129595909652 -0.3158672224528238 0.05577185555398137
Ni 7.5180535640226696 2.6177725717940783 9.51627705073443 0.6822615071209218 -0.28084442652073566 0.2308434120122605
Ni 7.772977365331974 2.7197014464007916 11.879534127930969 0.27533506666673224 0.5297246414300489 0.17668029570629573
Ni 9.163289432017566 5.645607019951399 11.08678447653873 0.4358374670615848 0.4700917602587646 1.1156302009270398
P 1.3035145584560566 6.481878286980269 9.185110746825973 1.283063781224087 -1.5352370650623754 -0.5775574446426117
Ni 2.9901723109657694 6.746547870663154 4.525183842200895 -0.11203839135619413 0.8607181780013498 1.3378640168934186
P 2.6288301087620174 0.06510921642224379 12.3197829878396 1.064183969331606 2.666529912227337 2.597764986847797
Ni 2.912085961767786 0.12381392960315765 7.933385553034373 0.7232819153973414 -0.7842702821552558 -0.3867278540191275
P 0.9348745666076327 6.231739618627851 3.6025972753215427 0.7092866295595139 0.9181077716644123 0.8736497984613535
P 4.330840932650774 3.842868223549356 0.9838630580818816 0.5322373805495736 1.4643535506779362 1.3555647766072911
P 2.158233529181647 5.828504408780321 12.79563120465161 -0.8621011743918057 -0.2687116478129437 0.4657843911326624
Ni 0.2416492143227314 1.075943611751653 6.208842110789564 1.0994859870670097 -0.42600916811725337 -0.7802225944484433
Ni 2.752495311259758 0.5810740295506013 3.262183101522857 0.21604285666431824 0.08205032963453611 -0.3080490119599856
Ni 4.052046892807506 2.297196376807965 13.179607640003939 0.3088303702107004 -3.797471032479834 0.5502232756040331
Ni 2.780836600664634 4.6119166864715515 8.179564015791007 -0.7381045822324708 -1.731850095136856 0.7988116703045404
Ni 0.4227507926365591 6.632924057208144 5.880771362969624 0.22123442816758673 -1.0898204389527877 -1.645654632985695
Ni 0.8091992387596633 4.216099356478035 0.7664683709630097 0.04025499086530486 -1.3990274757766163 -0.7839051855063531
Ni 3.22490248168868 4.704663278917755 3.682327012845839 -0.7309792840415991 -1.0890660772852665 0.003319808401852347
Ni 4.439790465649828 0.38858974693276843 10.711594949426926 0.2614853052678335 -0.2142754803512503 -1.0072569171272587
Ni 1.4900700798157247 1.9392721267162736 8.827079339316715 1.516355140556208 0.3552868619010268 -1.0247378475208417
Ni 3.9546444953221704 9.235833156168962 5.278062620320517 -1.1203854562238382 0.06659774252489176 0.3169838525557702
Ni 7.784524500845695 5.262971899860346 4.172830854051863 0.5096594952490577 0.05233557617892277 0.26991646675432224
Ni 1.1016798673846333 3.3430897230987116 11.665873322551812 -0.07952730610236626 1.2969096859682439 1.4576956790417863
Ni 1.3778688734560056 8.153774181449242 0.2011123022736848 1.9552517061590906 2.6171117668055253 0.3216815151417557
Ni 1.6962926823823616 8.768044839945528 5.061155684205745 -1.1064017403502364 -0.5233390496186793 0.5677993368145834
Ni 0.3811164408282885 3.8737036942251954 9.521901891385875 0.24346624298259362 0.7111658488600978 -0.6953000854724348
Ni 5.73871388302563 3.689577690177614 12.544680541729868 -0.2525936592051585 0.799854766857074 -0.9103967761733998
Ni 3.9857386218335176 2.319865713248501 8.757597915503556 -1.0427782499623204 -0.760049204824362 -0.6602220108223791
Ni 0.6512676806822464 8.167168858645159 7.399671406965166 0.9526919373971852 1.1106576874131129 0.1916405165605538
Ni 7.542321024018304 0.4068065079192139 10.772680220065348 -0.9135911147409815 -0.2531958115655317 -0.0661709394001183
Ni 5.9494075364631795 1.2304258095084113 13.121822078809915 2.3476321304783054 -0.5222023649110749 -0.24425737142532125
Ni 5.348374514119823 1.473109647173172 6.371802677325916 -0.37809126139005206 -0.32388109389623576 -0.9206235961077307
Ni 5.374692745382695 5.7570230210961855 4.43785608950857 -0.21589244712938305 -0.03200560637231908 1.4141134235754613
Ni 8.172785385359031 8.000049475782184 4.510107902074181 1.245543672791442 0.5527768952638221 -0.615535980768914
Ni 0.5424705698719721 4.189818076048808 3.268348348116343 0.6026956344711363 -0.18525389630791966 -0.9678748157852104
Ni 2.6686261565965035 5.1748256862028095 10.474854653353788 -0.6983545560280424 0.024153971538384212 -0.022201218687387572
P 5.98726366553136 8.475652893321305 5.007479979483766 1.405762994728237 -1.0173132729219965 0.6412814651641342
Ni 7.209227734135318 8.08912869798923 8.834528627379326 -0.8430459575325675 2.155892883556358 -0.8307954222999886
P 9.73820745268309 1.1361180443407533 3.926220066541596 -0.07499547967028375 0.7644594180769156 0.74638893372845
Ni 0.28600499502887566 8.202105871855471 9.691148718495896 -0.5365442354550437 -0.22996897982710715 1.758724036709565
P 4.814832189427059 7.866924859871603 1.5682081601808098 0.5885424828992057 1.597180339534391 1.5568608139797382
P 4.991152329867365 4.484002138104762 9.571886207826827 -0.530170470718216 0.1759632150346131 0.16126858913691583
P 7.856504724784022 4.705171352880359 12.988511784960274 0.7562910233335104 1.157314982260336 -0.477230685296391
Ni 7.493065562770979 8.952392548994974 6.621468375007693 -0.34630111346264875 0.13258099139423618 0.2681046103565641
