# total energy = -340867.77601178124 ev
CRYSTAL
PRIMVEC
9.27049861477602 0.00000000000000 0.00000000000000

0.00000000000000 9.27049861477602 0.00000000000000

0.00000000000000 0.00000000000000 13.56831179908797

PRIMCOORD
 96 1
Ni 1.4857178766677657 0.41728367161833657 3.4099878022627363 -0.2963445790388638 1.9485804647865022 -1.355476073548227
Ni 1.2818410770092201 7.482256298272592 10.916602334943423 0.45778054699157933 -0.5524071706292293 -1.9126523834313254
Ni 5.068366856553296 1.1649400928470581 7.254840776259871 0.4612502507077346 0.2971035686920754 0.6304774325700948
Ni 5.5213697583046075 1.9088234212483415 2.5155784651430206 1.0797584267310951 -0.4589298301046741 0.07011475453921474
Ni 9.30924903060742 2.27574047534463 3.3596629019832522 -1.5053788440503622 -0.40099027747541266 -0.39298874732717476
Ni 7.929752524005479 4.020809813782471 8.595606994865564 1.1715946321078017 -0.1286618588454881 0.0794342321679277
Ni 0.20596729703591027 2.050495176995063 12.619519644444948 -0.6471366383933307 0.3207389487228282 0.9937385709258498
Ni 7.524288737780223 0.4587227992317277 5.250692528703374 0.9387881828318992 0.49723052545708557 -0.09358558396764528
Ni 1.0971078564382926 4.261509032877345 2.5989693789284205 -1.105750737029799 0.5597720956347327 0.15736694008966448
Ni 9.815047420447828 7.284303347058108 6.845755933380076 0.35226015925956106 -0.945473822382191 1.3637190302833095
Ni 9.21248356885606 0.7840579600400734 1.2492042875767941 -0.9130977200443307 1.267959835703113 -0.4020354309104754
Ni 6.621036272286813 3.0683495430604513 0.26285756424510437 1.0395836542844226 -1.3156525137933857 1.2239029545932147
Ni 6.5916209810301485 4.341170425177539 2.532023402161677 -0.6020376891721632 -0.8515858766827785 -0.30926591508622225
Ni 2.713586112297755 6.938828955639621 5.758906810413144 1.1071332191996224 0.6132839515099437 0.3859107574344709
Ni 3.181616491870387 8.035565992144013 12.691011873601312 1.222206026506766 -0.028463654657331625 -0.046640582676674515
Ni 6.537360754202145 3.303801660090632 6.715812285092796 0.6706074678217613 -2.1313573603088387 -0.7011853406086183
Ni 4.351562653825104 2.9271505827294533 0.7154664698166461 -0.19358247077827306 1.1021511926039986 -1.6328726507296785
Ni 8.61918094511346 4.366265664204262 4.349728949251965 1.0364039710048603 -1.2380661334674743 0.8494770578698917
Ni 5.028679853127585 2.5022094794760696 11.738136284553326 -0.7868277584697869 0.4994619858907656 0.5247133042583866
Ni 4.591464610062092 3.4682324892805023 4.460270371547732 1.3446643276447034 0.5666158580294435 2.189403613719294
Ni 3.458136916580059 5.2844158205421286 9.544900463352073 0.9763885096831765 -0.005110838864004101 2.7340905328861296
Ni 8.728480120630659 6.8000032428855866 4.920059278089424 -2.9493376331220302 0.6818560441523869 0.9154533647607008
Ni 4.812510372660235 0.7034667367556229 0.0924009111293496 0.13693772570103513 -0.06118942702512687 0.9573327786033061
Ni 4.013856940021834 1.0915733689248261 9.69881854741586 1.7800821906703668 -0.6092732876886539 0.9476183795290195
P 2.8144398638203683 1.3578962454522314 8.083633526075877 -1.6135263849925825 0.4842479971544886 0.3157800620556561
P 4.797204779888488 5.197820095477992 1.2751672452488443 -0.017001419654002977 -1.3090239527332745 -0.5000515398456485
P 4.704323656944736 4.189384555733679 6.571458574174139 -1.0798892958820048 0.8501825685773486 -0.0467771082545388
P 0.8767045393756321 6.918749056218903 1.6817648134220002 0.2820471885795852 0.22771257969276265 -0.09946826800066741
P 7.180130757127085 2.2489580056186598 4.255619485277168 -0.2382188785407252 1.3851214072184854 -0.71024256571488
P 9.029354144499253 3.469140998118559 10.38252614399359 -0.14921165797238176 0.6860091470888121 1.1185530310007898
P 4.6551065812177805 8.662094081964106 6.007206911103146 -0.17650751757385733 -0.4810300044378232 -0.4672038971880083
P 7.408500213419764 5.9017012235097495 13.213581522002208 -1.7882279597059527 0.7475803829333899 -0.7884727502723776
Ni 7.591119760367458 0.31426155053223925 12.859814669811872 -0.34341350750220856 1.5327186695158959 -0.32326711446132067
Ni 1.8282164381167 3.1414010700388677 4.770767172701045 0.45382181945414746 0.3053722364587709 -0.20420601193039029
Ni 8.347666589511446 7.681516389754075 0.3756192708951007 0.2729249145633429 -0.14309243244852132 0.13897121119129616
Ni 8.985773531767586 2.4846326146091813 6.187855550102158 -1.1563801291508924 1.4539781209808829 -1.5606861012630993
Ni 1.66527815916078 3.506019040544973 11.626563982841313 -0.14257744048531573 1.4277636673690441 -1.0962970478160667
Ni 2.8546460151535396 5.709097349841782 2.119153414806592 -0.786766051993916 3.5228412194102425 -1.1996584802235533
Ni 8.887636036260794 5.489952039404879 11.678679943401539 0.9761892491881768 -0.8287830198556501 -1.4165688270944894
Ni 7.346035595554208 2.1490498449274926 11.148606753638163 1.6710427340414964 -1.0497374548889729 -0.3072964500646772
Ni 8.360719451184748 9.094776051337664 8.999834096611261 -0.6769604066229825 -0.3698837858785952 -0.6156241696073461
Ni 6.707187013430269 5.984125224317504 10.373666328722871 -0.585393909967895 -0.365374585154332 0.11220088507598741
Ni 4.179446581505143 5.724551270587089 12.55277761864185 1.8162239306982462 -0.23870070327315018 0.2870096747911831
Ni 6.222358490851939 6.873101122355742 1.4304666335664122 0.058354785789809176 -1.180538728674967 -1.4653246563419537
Ni 8.247109493935953 6.1455894940361695 2.4111296143612404 0.035676370355686944 -0.6002536006885468 1.4924068572707265
Ni 3.614502412207591 8.54360784258452 8.116088613740692 0.6143635577273677 -0.33136814630190026 -0.8849924771676823
Ni 2.3663595966915874 4.3355803146739875 0.23907410073455515 -0.13796642407586562 0.16714690229456375 -0.5482196149104429
Ni 5.702570919005131 4.822503969878856 8.448689064103984 -0.6951648454461512 0.6545439866009953 -0.14467314667207987
Ni 8.600287669481226 8.438267169861708 2.702698839038433 -0.3162521165960683 0.1045107155205813 1.6270840690723591
Ni 5.824375996793129 8.069356958620705 12.590822816810215 0.777588499259706 -2.240199870435555 0.9639312577564302
Ni 3.060117340527858 8.145347233575285 3.723673654847595 2.0282802919109906 -0.13613065641870747 -0.41357994121496516
Ni 6.994896929645391 8.018508275184585 6.6750665907558 0.9666581697692901 0.5186750684841067 1.1806698549361925
Ni 4.978285424110495 1.1310935033802816 4.874266724452039 1.309006726342094 -0.4626515019306355 -0.7360525847994485
Ni 2.8985603658257175 5.12952433415185 7.289439203142631 0.31419523406703953 -0.731518958595153 -1.56305897237065
Ni 6.891187864631742 4.177527588347208 11.924958148401947 -0.6472070866199499 1.4276934762527411 -0.33749894178998646
Ni 5.034909628017115 6.7681590810618735 6.769746190378967 -0.3228904478481923 -1.8332261216831975 0.5167423702377681
P 3.5283887530575258 1.5264524464067457 3.341888575501562 -1.349168129052328 -0.27419838195912777 -0.33828904179144964
P 5.070183874229408 4.356021763530258 10.524301729321806 1.6245561604441827 -0.9080197913007911 0.5436602776745347
P 2.5589727408579024 6.7607519528822095 8.579745172192967 -2.545069970446926 3.334514340603954 -1.0149527431096197
P 7.540178371947864 1.3468921639137315 7.396099994830128 -0.6960773299580916 -0.49443290810729035 1.0878188351417264
P 7.036994262641455 0.33174941861499113 1.370494852706504 -1.038751131080798 -0.6479154255408841 0.9319161383024143
P 3.715040966786389 7.725986970327103 1.3194422183067402 0.04801663708859472 0.2768849276523554 -0.10911993215781851
P 2.3640605131014034 5.642043835294207 11.566565317536199 -0.6931043633726967 -0.676511492011022 -0.2985261600712149
P 8.70903988559592 3.0089534601479238 1.2197343003798795 0.07187750286659235 -1.8539569264726459 0.997691899146643
Ni 7.377759240899405 5.491351884655353 6.621458079961625 -0.060446892432147514 0.6056973974119375 -0.4630986167703831
Ni 1.3649696356913854 9.043250621522178 9.083333475227327 1.8973046973306615 -1.389932969674516 -0.4660805822168424
Ni 5.942852965674367 2.404980492807334 9.30446916165944 0.16930045830245682 1.1816638434183455 -1.1085815216103747
Ni 2.0445064350625684 9.185237574212714 0.9795412504947791 1.47750628600981 -0.7387226754324439 1.0105314741134725
Ni 2.3234186483458985 0.586749308460742 11.24182068747259 0.899132001892858 1.7089593065816118 -0.39931674642773163
Ni 4.915728101261465 7.5360808116782625 10.475930123044142 -0.9560757662677534 0.08401310978786175 -1.15768727799809
Ni 8.706555392038787 6.587069166341519 9.283560479686455 0.2443879834659146 -0.03636696866480834 -1.0157878374164055
Ni 1.2622803254959638 6.6285268349516056 3.939830156617259 1.1704003546893844 -0.22363969517496968 -2.6329348498807104
Ni 2.7425193376403483 3.1435332846587962 9.583908866298746 0.7236963772269407 -1.9155441031568234 -0.46470118537081256
Ni 0.2561948570827455 0.3807894278235097 6.959430784117303 0.7772838235350936 -0.4269995570549807 -0.48091327635430076
Ni 1.806421496501693 2.2680181502211503 1.4436817289607944 0.08943222392090404 -0.23449052184654454 -0.4028437857443836
Ni 1.6991340191259041 3.04294837758826 7.207378605870099 0.5605819931305378 0.09089106785461766 -0.07826720844302004
Ni 0.9243947640247525 9.021140482963355 12.658935949318911 -2.25620961560025 -0.8815266301062689 1.008828375379437
Ni 9.018146111997106 4.922124745121249 0.5870876816504262 1.169727496992076 0.43605163995491997 -0.6406080932461935
Ni 0.4886655818443658 1.8785923261370956 9.022764674273839 -0.45828551165245585 0.9340133871510753 0.34434244707438116
Ni 1.2189963687114171 6.675834188018973 13.009758491234079 0.06279970893504024 -0.31333391450800874 2.532697307814187
Ni 1.1763984288045868 4.64052408731714 8.919984513194612 -1.8281633624483096 1.2758700916891252 0.413329772877372
Ni 2.742454444151915 1.195440032410382 6.000083460172916 -0.27313780190509734 -1.091934657082313 -1.3399383829239437
Ni 8.085886257174323 7.727182864613933 11.305971608987559 0.033679394530316195 0.6867318841874496 0.3837852264510358
Ni 6.533782341840004 7.766276556145402 4.391044779237334 -0.48549395374644777 -1.0032555092773496 0.19729128708842797
Ni 3.404405108157863 3.631235661724855 2.6451151385528453 -0.15661232131182706 -1.0739405344977375 -0.45449287737924304
Ni 4.73012345384587 5.991717762464119 3.530081546055782 1.226070908778811 0.10377949378151159 0.727757948890824
Ni 6.415259020467027 0.23089566709237758 10.046629104417923 -0.7725969595823855 -1.042438093014082 0.37298273651889313
Ni 5.268164636938935 8.42225701921555 2.6898768127739854 -0.6818974389132837 2.527615522415905 -0.30883525530670686
P 6.936622577032913 5.517160952054835 4.325184377827084 -1.6527544772552698 2.3300758667620967 0.2510705376924128
P 0.1608338758310344 4.766426725374738 6.834426457349578 0.1611145800575548 -0.09624256197451812 0.48215974716689225
P 6.445119295644372 7.263491078267937 8.598483630502798 0.08013048690400393 -0.30578361296457657 1.2493818155906096
P 2.784653752629803 5.096271056579316 4.261684245296112 -0.2011155459305246 -0.10543297022453454 0.989408061871296
P 4.905391495603986 9.61499006610846 11.572589287362414 -1.1220782705452288 -0.7322450381279002 -0.703840261732962
P -0.27763195746153874 0.4933768491045728 11.064103380051062 -0.2231221321086028 0.010785777761594327 -1.6244209204178992
P 2.750918409143196 2.110336243828271 12.905214154319319 -0.02346105923641766 -0.2080798930634997 1.0755204773903477
P 1.2409767202933748 8.766628221330684 5.2030134286522705 -0.4921410267493202 -1.7347793529685092 1.4028833591875967
