# total energy = -340886.57176442875 ev
CRYSTAL
PRIMVEC
9.14970710307692 0.00000000000000 0.00000000000000

0.00000000000000 9.14970710307692 0.00000000000000

0.00000000000000 0.00000000000000 13.39152121192438

PRIMCOORD
 96 1
Ni 6.701300524457372 1.9472041086677607 11.28028160721102 0.6587166299214462 1.623377052534417 0.5367123856017918
Ni 4.928901573748118 0.35817810183234167 5.988996726155673 -0.14706890059776606 0.14018991408974565 -1.2336006414969531
Ni 3.013648242970496 1.6502778073817381 4.407618044681244 -1.1409990187091317 0.9276249671262282 2.066050568681229
Ni 3.653706867405428 4.396919291935843 4.562330445409869 -0.06682682781656234 0.2825840349196617 -0.5026007886300634
Ni 3.9604782537458 2.910357197265519 2.3782669489071098 -0.19137852114841877 -0.25968810415809473 0.30774922133137966
Ni 5.28704856657564 4.9905797506545975 2.555637684792419 0.7013650607195921 -0.042437086118288204 0.43082921521371603
Ni 5.568649108134864 3.0861413739050807 0.4428000847632522 -0.9977492347471395 0.628346502270021 -1.2755530746693386
Ni 6.080437985936961 8.018355141695647 12.33938950620095 -1.6158074677172756 0.9484982110308117 0.6897141067442251
Ni 2.085337239769544 6.734266919857764 0.30724808609068055 0.22924495717688909 0.4775096499893905 -0.6526899641113921
Ni 0.6417787694072535 0.2642673360508959 0.003680012275891725 0.0874856417174945 -0.47979047560376725 0.950544552036879
Ni 8.206445674653146 -0.02560362593641923 6.758513644201655 0.1297939155674023 -0.849219176222815 -0.02260308211149656
Ni 8.894046178216705 2.8851772027770703 1.673592176551802 0.7067528073940667 -2.192736791857585 0.05050006563208077
Ni 7.162583017965779 0.7758164915217445 4.491195131038542 0.034055804033128446 -0.02356647446603038 0.13897532495635423
Ni 0.8613909589825414 7.913728238724931 2.1464334952917707 1.1801360939199095 -0.6397598863132853 1.0240151104222042
Ni 7.6687265263640345 4.312046607024924 3.507426836924097 0.9437879500393358 -0.7816757819552023 0.13760184164759529
Ni 7.969157165545797 3.933129778627351 12.81831080544149 -0.0701054985678341 -0.24089488271099158 -1.8542004099420195
Ni 8.740248748218038 7.367124724647925 9.16008215268861 -1.0096989509098482 -0.015560573442418362 0.05931509282054946
Ni 7.151493572718686 1.1759112324349295 0.2864352468963222 0.9988118716836992 0.32270764241342487 -0.7489410107263423
Ni 2.564461662512136 6.6464388794890805 8.877708460862571 -1.3284092992384218 -0.3783388586244839 0.7890000835307573
Ni 0.11516096098472407 5.15736976501867 1.466451952996574 1.0043364010463542 -0.1304343773648786 -0.9330499947965415
Ni 6.836652144540082 1.9950021796007753 6.598538331834311 -1.939828429625485 1.0249751603426283 -0.590670327875486
Ni 3.7521943167781244 4.84704829224606 0.7078286764614733 -0.634120942859953 -0.834261269361402 -0.2959098054942904
Ni 6.54870170611495 6.093247576156376 4.550197933530624 -1.8076189626380545 -0.5601929852222353 0.7395737105788295
Ni 5.710844709277662 2.6204212723563765 9.093619593835179 -0.07177157341634735 3.848756313017371 1.988089578624718
P 0.31055021545509953 5.668326019456506 12.552703037271206 0.7350773653703727 0.28536828253301816 -1.1600169545725314
P 4.188781750284961 6.431201164973722 12.687221119018925 -0.11592641355669067 0.774107482689641 -0.43461747861155475
P 2.6408251196344437 8.850209930544409 1.1660423581416008 -0.018396500229316704 -0.6681908879604687 -0.5661533165707282
P 6.485879815796022 7.922457059488733 5.628724256322457 1.004838280383437 1.258962260190193 0.4012090783544381
P 4.87768151228506 1.517451506513712 12.456471905718587 0.31388181659167874 -0.2116010188428807 1.415317985406524
P 4.473054006375662 5.955681726907167 8.18582223439989 1.0051367854604625 1.0405812423110015 -0.38485403403518237
P 4.954237113260659 1.3631691420281669 3.872814908108509 1.9238742202890737 -1.1508558568985536 -1.6498218769895068
P 0.17649053404308968 5.807273474507952 3.4986156687945997 1.785353723481951 1.583565319854118 1.5266876328304673
Ni 0.7759079885947403 0.1644797132709289 4.886726912921427 0.8512997129009274 0.7391844455602108 -0.4335988075390532
Ni 1.7766444148962597 6.90734278313665 4.898939942224907 1.4439279358337325 -0.7032609921907244 -1.4454050345998914
Ni 6.546386830168155 5.974850363699789 9.295845509599802 -0.7130044447307333 -0.3620064400130475 -0.19041692856609785
Ni 8.989139086181256 2.5236905667852 10.09585474219237 -0.07757378192042123 0.26102482069164723 0.14599855035172277
Ni 2.8000849248909616 5.080722666970075 6.782457513233931 -0.32445753522499604 0.7362143071882933 0.43890633579489574
Ni 0.7524399043420434 9.372411175253431 9.13099523318324 0.5119045825294927 0.2851286557183864 -0.38988645425276724
Ni 1.647221805143678 1.196873211858271 11.363107502599021 0.22021807108793043 0.5797169141877758 -0.5173470937013025
Ni 4.448422994325188 7.116450193761288 1.5499613315198553 -1.0078775814303933 -0.08128362667184065 -0.25688354482976405
Ni 5.563442924681402 8.079374539676557 8.177693634434942 0.8403185312990754 0.05543709792238194 0.4235758760854125
Ni 5.781160209874947 3.1934399914072746 4.546059520919024 -0.05122794493704081 0.8578143740909936 1.1257539196246031
Ni 1.0866832868494096 7.735437042285284 6.889456020336698 0.15064324821258573 1.5995994904988453 0.7006063281766967
Ni 5.364793629500186 4.850644127214796 6.473863505199482 -0.5407490175650107 -0.13852846722692272 0.5966049481923661
Ni 0.9952960103411884 7.6222094144529615 11.429181198892222 -0.027213070079682166 -0.020428443057680948 -0.14365601826147517
Ni 4.8070000233957915 0.7318393383570354 10.563098270006455 -0.4408187223262601 -1.3276132856996876 -1.794959107782199
Ni 8.507242302126892 7.43001066291795 4.844449775372979 0.07865775901321938 0.6417864298250108 -0.2585133671237032
Ni 7.576570674442649 6.512560362281603 7.028446479012452 -0.7865678199401809 -0.1383034957003102 0.3872837265225975
Ni 2.370579364834001 5.9501644534055185 2.641973407900541 -0.35413809300856425 -0.8150129626547512 -0.14489760397806012
Ni 2.561167767884286 5.459072213515075 11.428056699865103 0.526023795539694 0.29382592638206817 0.510623916044856
Ni 1.1729284278552659 3.9048388836570442 3.7825292563591573 0.6214428331716523 -0.8609526626096591 -0.11735671824531402
Ni 1.7139140216503286 1.3360677090068058 2.4766949251823585 -0.49198650344932693 0.7772360010162936 -1.0156412845362122
Ni 1.0614026455806655 3.7828000876952252 8.166618828719526 1.1456185197590143 0.03551464796684206 -0.1935395333554796
Ni 4.013665502278268 2.880455953810486 6.77831910062233 1.2647014766668156 -1.0720746849335925 0.7061925640152226
Ni 4.570013454629328 7.043865565753707 6.200609326638936 -1.08161167788975 0.19526937156239274 -0.9795373397248033
Ni 8.663345458365054 7.210939221044067 0.38120334025173885 -0.8660922978290697 1.0430978380852682 -0.8899847881759511
P 0.6638872071552326 5.95233293403552 7.818478870765557 0.00130509196466872 -0.6999383555753946 2.597053048382437
P 8.452719196328685 1.8422386665269603 7.844016618809419 4.5701965472202835 0.6889155221023296 0.5669920104219396
P 1.8857638241510704 3.557726437832817 10.206241385908172 0.39698115631601955 -0.34275581931355165 -0.1426283483279092
P 3.9881469686197355 6.53774035677005 3.925469643676141 0.9014426523039056 -0.17346744519595286 -0.3114271844035991
P 6.916840179313616 4.150444476699714 10.592211723662992 0.5009282860236469 0.4002408009038978 -0.6404106325234068
P 6.505066752003245 8.31655325229631 10.29877603571176 0.5069904330573268 -1.8032730269645332 -1.038744960433211
P 2.8822492964412043 8.728537122874572 5.593169408727013 -1.4076301298439629 0.17312651691676634 1.0981675253659022
P 7.193298585370474 4.2245845549482235 1.3477088816040637 -1.3702673729247885 0.45278283666667185 1.6415141284547599
Ni 2.9442568628104686 1.6077957163897807 0.14274000872712297 -0.3959573430371955 0.8314276565673487 0.3861133603635802
Ni 1.6470845595341843 1.5499512668418258 7.175993743954775 -0.6628661333134456 -0.7349503528742052 -0.8719940080254853
Ni 7.171632078485065 0.7749783783331028 8.999825944307167 -0.7206511626427137 -1.356644125714399 0.7985833563438182
Ni 2.960479293852627 1.706264866347878 9.174464577592822 0.20692649618534686 0.7118626178168063 0.30017449430791526
Ni 6.41290175037456 2.317337218057736 2.418883414580683 0.7893163292195955 -0.9377211750199655 0.6802663310677639
Ni 4.41864984677235 7.074599432573002 10.4400841152465 0.460927063040361 0.2033619187625401 0.15928806837177728
Ni 7.492182924018607 6.387099575789739 11.53485391340728 1.2940519048044745 -1.1008808105320071 -0.533789555528042
Ni 7.909830463415309 3.9007123656649334 8.277835350887402 -1.6511997311736402 0.9399459505854263 -0.01068164808356225
Ni 3.377367407543464 8.639958806507323 12.176441453931972 0.2645387473821767 -0.5055675845678712 1.7510919740856035
Ni 0.5355543275420308 5.430891115032363 10.227667255491603 -0.7402617377847897 -0.9028382470998515 -0.5882864010243417
Ni -0.16351807903374285 2.7459827056285353 5.709823601943029 0.46420856200511024 0.24497445209700391 0.6277561769841898
Ni 3.566976791912694 3.0171708802808346 11.456393343371907 -0.6257725708952577 -1.4079690012406205 0.3762768338891326
Ni 1.3447324818195097 3.657723588909944 12.600765534745179 -0.23418276079813863 -0.46696401326306025 0.40724988523187927
Ni 3.210970830593273 8.69601906313186 7.93936480360763 0.06518132179333935 1.1165431996596125 -0.559544553004959
Ni 5.794948818775416 8.450569015113283 2.9396133863559313 0.5300879383067387 0.28564673300538546 1.9582231300825887
Ni 3.18216755201419 8.782666791258897 3.323119707934975 0.9254742393318126 -1.830877418945363 -0.07644583896356512
Ni 4.019878153534684 4.467692277898107 9.586467662556412 -0.4567757598761488 -0.45335490712005794 -0.5318910529537485
Ni 5.090540302902526 4.6027602570545305 11.7526132872544 1.3794094444353728 0.7753855780711162 0.21765879500118646
Ni 8.273082992915999 0.15300964020017335 2.3691474356416165 -0.5382005401115441 1.1906714462335946 0.17683070524123096
Ni 4.987304155441347 0.28648374034501 0.9713420766308838 -1.3783493786019745 1.1170530494164954 -0.7053387006553594
Ni 6.210620021395409 5.894049298537184 0.20167327344372812 0.4897303604252985 0.074646066750665 0.760027093337175
Ni 8.308345964848586 9.301866931973656 11.139951631386607 0.5292975811949595 -1.0402369715977051 0.38812267748412516
Ni 0.17101717913647993 5.350767128209927 5.9236595813000905 -0.03813588763977303 -1.7660902472666486 -1.6142460367674263
Ni 7.704867870197382 6.756674553034439 2.608868851919925 -1.4786044041699955 0.5806386546710968 -1.3223888040759548
P 9.205337519963072 1.9305882402117205 3.747590184064975 -1.4850419322652233 -0.9405735568670963 -0.9934809463890891
P 2.1034719596373153 3.4715544944853574 1.412912440733072 -0.6556948123759869 -0.11542530555055604 -0.12139592131169415
P 5.217318647245529 1.2071666325703 7.890539220544872 -2.3676797931577998 -2.4668924935042353 -0.47792951113562854
P 8.920443083775998 1.9217313235457256 12.327712649745225 -0.5554986650703595 0.2838873271121175 0.39152964628314507
P 6.816513638773704 8.269697601215153 0.9887713540658568 0.2930548525439985 -0.6231235633081849 0.9090867991127248
P 2.19083336493372 3.1972462696439004 5.846363769003955 -1.6100672227993884 0.7783937687698207 -0.26907314491742046
P 7.278948995401858 4.221629199490459 6.094481871671089 0.7754724813579676 0.3144664854505552 -1.2178958291671864
P 2.62166563254912 8.635155210175043 10.20257143831031 -0.15106439491040433 0.2162395460561566 -1.3749380389275805
