# total energy = -381165.22924271744 ev
CRYSTAL
PRIMVEC
9.30425693705115 0.00000000000000 0.00000000000000

0.00000000000000 9.30425693705115 0.00000000000000

0.00000000000000 0.00000000000000 13.61772051608378

PRIMCOORD
 96 1
Ni 0.9095031858418582 1.2778745249738708 5.912418749449725 -0.06047260346376036 -0.37054250250851667 0.8755575570070275
Ni 7.7820988942807094 1.79988984591239 5.693814308366353 0.7112486383818912 0.2344961782734994 -0.1619000520733276
Ni 3.3190423550690906 4.342473372660274 1.2828495110197815 -0.37341262496746014 -0.4719172435032776 -0.19212774060961751
Ni 0.8550751451248785 0.4383384189274954 2.9279053606965046 1.4820939053804927 -2.451878022373274 0.3002464851964313
Ni 4.205086718547839 8.548853382886403 6.992440117009935 -0.30962766930101515 1.4829930201559944 3.02485273274121
Ni 7.427895146792811 7.005016680762053 11.352820462073351 -2.4960194927771786 -0.4541606908508049 -0.5090820254790329
Ni 5.67466614812232 4.851044042698585 1.7550656589387974 -0.15915282834549366 0.8086227428576912 -1.1793387948295948
Ni 1.8493326659011124 4.019252799911263 3.2225655871456684 -0.2581765526095747 1.231565099124163 1.5828225281508224
Ni 4.2417640983738725 4.198545826102962 12.181568282501186 0.5297904616709779 -0.6242769601863377 -0.4826788528951558
Ni 8.01218385767949 3.2113362797605745 8.22563374056306 1.872622621202949 0.43376695768580137 -1.7674336486684206
Ni 4.140794304900479 5.424930594618875 8.97208913237361 0.21319767390603928 1.6880847771254475 0.4220699809638473
Ni 5.635625487099986 2.895819631541234 5.546388361297984 -0.6508889063469113 0.24113193842246214 -2.126659697722854
Ni 9.008800007523686 8.301657891456145 6.48584753194144 0.15997249603331157 0.10456779401076184 -1.7213769635196743
Ni 2.602409897189639 2.561889859355449 11.237724015685226 -0.5169899674721999 0.16518566480313487 2.2245989306735043
Ni 8.383740043872502 2.518280808304048 10.348949783297051 -0.5921006325641093 -0.6696037091475951 0.4622771493103523
Ni 7.103139371691875 2.6078714958598272 1.4344772604040907 0.8846690323899925 0.560008637125571 0.1215797551877261
Ni 4.499668789240904 8.312990476090368 3.2882164222680674 1.1000377458054216 1.6516049370318588 -0.855413735069301
Ni 6.07409788732365 7.476174934696742 1.3223721325380533 -0.7952491497642626 -0.49720995663179535 0.2554663527672632
Ni 4.5084240947752265 3.7723829574647487 7.555737494404601 -0.2622095850283678 -1.66841455239003 0.7526328577556328
Ni 2.9724401852874007 3.474693265041116 9.292800347096469 1.2584986902902133 0.3247431847862149 -0.19854135744544518
Ni 7.989909467191533 5.574180175996199 2.0329354237862205 -0.4405071046231123 -0.13272085940621012 1.1128747496690898
Ni 2.8982852595609945 6.18099449230115 6.8219331003995975 -0.6790658830017596 -0.9465328597743247 1.979229814241243
Ni 6.622788512158983 5.083715589453947 12.785555035201588 -0.5987268796313753 0.25881727151736716 0.32784959162568056
Ni 3.3466387803770603 4.1676370854175016 5.425612596633398 -1.8654644128916131 -1.350201712523165 -1.0729815130185778
P 1.9383464895428344 8.070140072528899 6.412039654989137 0.31523473107514743 -0.13593062459275945 -1.0302004132973097
Ni 6.794666045778041 0.6295790411198564 9.51084746320481 0.15713631213609713 0.45319395606216145 0.9653283952142729
P 4.361407535000705 5.458230529270669 3.8520990374078012 0.5064772408663342 -1.184747624549992 0.4786741026111369
Ni 9.122628283726552 7.500366002060438 2.691705639808715 0.20162333880487857 -0.9818629025341866 1.2931083099442826
P 8.458844003780097 8.606679338142314 4.388187976997984 -0.8618263234638641 0.4177854946558805 0.18854156592025595
P 5.8420497257657376 7.92316072978109 12.517953448024384 -0.5242654180876907 0.7942546470614773 0.4843246160286949
P 2.010501000083396 3.180260062454904 7.0685359106794445 0.6511133636528916 -0.9362556462180326 -0.18416966210480537
Ni 6.126611112016226 1.9523959171271348 7.445611381934048 0.1819322881338544 -1.7345916624377353 1.3143163114804655
Ni -0.03323108315237527 7.874266860936389 11.588488909904807 3.8814887702533856 1.3006696672313083 0.5802568458516458
Ni 5.0833248106734565 5.248996405088059 6.145731359490225 2.599824183369671 2.1694271705973667 -0.8690804339231162
Ni 5.251787682091562 3.016086453365515 0.292225302476441 -1.395077747100249 -0.41023082223707413 0.0662807255051052
Ni 8.096294338051726 7.833328131551674 8.959969407624397 0.4268671452421745 -0.5432653562289611 0.44007053130632595
Ni 6.1224521092810065 6.81018554591752 3.894532030415059 0.8952588920906969 -0.7799667696838954 -0.541675386034022
Ni 8.020660035513462 7.899369745454564 13.736739430111095 -2.1396339984953348 1.8542042665967615 -0.8069954916669133
Ni 1.2291946540327723 2.0859026962047 9.000319177561375 -0.8428608381049549 1.1376694401152663 -1.7867344058795618
Ni 5.046154305243469 8.369690616288201 10.15958210797404 -0.25337527456618947 -0.16527899584788955 -0.08035134466555839
Ni 1.346204986019633 6.181627181755277 5.087294006572438 -0.1406722530428029 0.1340578330500788 -0.7408636330348466
Ni 1.833087433740723 4.508247313898338 12.84611272021826 -0.924958990258291 -0.6972556665369088 0.8587718529082564
Ni 5.027080579052863 1.7281540269223534 11.04011742107354 -0.6097481704425434 -0.05732428764276579 -1.0937855942481227
Ni 3.9012096954331072 0.41807467830772893 12.616912591629589 0.09302688325069786 -0.6293034668666516 0.06743823614831611
Ni 8.472391001503768 0.7340704957460046 7.857492216571003 -0.027924494324409972 1.2111058028285464 -0.03135460305188149
Ni 4.61912614073417 6.360976033487047 13.25337771311709 -0.8311114108785106 -0.19790192408923335 0.4337433035367176
Ni 3.97599731061364 6.407255406205133 1.9869202919578 -0.5149428551351841 -0.16919092930778604 0.5274746690536076
Ni 0.22499181329305573 0.48899358356140654 10.04761654395818 -0.9683008475790357 -1.46571674957405 1.95249162691545
Ni 6.752759673698778 2.7276731048501914 12.196152704844492 1.1188471652024408 -0.0944330195696051 -0.21686201013150394
Ni 9.279228227879768 5.952454035510974 7.194650457826064 -1.3298442319127355 1.3310577926048626 -0.6785622038924637
Ni 4.302502285970106 7.18758480530453 5.389362282188899 0.20752916276635228 -0.0839917696316231 -2.404360693518601
Ni 2.1655564376280076 6.771451925365572 13.203019354271218 0.6532931449130298 1.3318399221865258 -1.0029726879296081
Ni -0.023020591873560002 6.151518607144155 13.712499050187002 0.18469339581875935 -0.898134156755963 -1.3275711196078428
Ni 0.7646414919140412 4.07159854798363 10.765325504335316 -0.2432294443814392 0.9329623201787416 -0.709384845700275
Ni 6.163651357852716 3.2585460781464946 9.36084795873921 -2.410025348003546 -0.8499802227585556 2.03457692355298
Ni 7.3099916061648305 4.530642659723114 6.119694327601546 -0.2234733448004345 -0.29535521854240104 0.2966238008421795
P 2.2805477459156673 7.9251797534802915 11.173584191847391 0.002866265804201515 0.3655831016207123 0.3708965434138258
Ni 1.1716199137071766 8.60557213159759 8.275025387140051 0.3016924736143385 0.6188182510646117 0.6693203735792215
P 4.601094491291538 0.958850171986794 8.85977000660397 0.4313079546223475 0.1982204837709167 -0.11216411830078103
Ni 1.1605850652866598 4.65824123580993 8.459722325610533 0.8809887553249278 -1.2065480082545348 0.3702905343987107
P 5.7529521638139105 7.215906962633411 8.302533422009578 -2.6951239218149454 1.7541965811528564 2.282243834880482
P 2.347249962042719 8.022846535832873 2.8982861899866625 -2.6172971433434538 -1.0120684795832893 2.8823282569810167
P 8.203684068633176 4.339812355250267 0.27682396639677737 -1.3306916675146951 -1.7651937035943086 -1.0270004183027732
Ni 5.293880139304392 5.994099888403244 10.931869838026346 -0.4065808841893127 0.04513905843048355 -0.13277716656544228
Ni 2.281450258813467 2.0320961798338337 4.226409283577601 0.7034047168574402 0.7779129724786603 -0.23080664523705408
Ni 6.440853077070634 1.652249900940419 3.4784559064418383 0.31664523826942886 -1.2153753767381779 0.1336449138823763
Ni 1.9669105575453523 2.1109125381560903 1.7830770540946212 0.09757439341206421 0.04678842110844845 -0.5407058230319011
Ni 4.490625051749554 2.9342741243928314 3.0224803385548733 -0.9660578171811299 0.680794435657092 0.45294610171741345
Ni 3.1817859605501524 8.340549684371625 1.2096622279879237 1.2871911731288992 1.5790944285669577 -4.368156175482644
Ni 9.065537364748229 1.4574280703525633 0.9159649921049685 -0.05477555307898308 -1.0173387268432932 0.10748291077502778
Ni 8.749257767481264 1.9171979141129574 3.355869533427646 -0.8344224775296146 2.2870906214498223 0.7636469494779494
Ni 1.4776276116012492 6.038806841742689 1.8306981006257241 1.4385777272654128 1.0223024986064717 1.119163153780963
Ni 0.0816522957578158 3.633935618090982 6.1619914784612995 1.2246879123883552 0.08134816136118893 -0.7019610424323781
Ni 1.4438531598588584 0.9365013474454106 12.749822037428405 0.42036559667823087 -0.7876032031832306 0.2245807189320003
Ni 2.21078442934144 6.7260657612886074 9.25680869098763 -1.0868826964807023 1.2081487770827515 -0.9238228197713187
Ni 8.199357589277747 6.1492297600012815 4.754872454394213 1.0492394322066316 0.30730930558048364 -0.3373984116563802
Ni -0.011554025943168218 2.7841778556577776 12.581507103691486 -0.49109535909362523 0.41355988661030707 0.12496975470588155
Ni 7.50883287563773 9.091412502570707 2.317627069630206 0.2729215721292332 0.8549794757453597 0.4610221938573286
Ni 4.0693190050974355 1.206175923010548 1.3718624042358358 0.5303021112000739 0.04815367688709126 -0.1515901855068873
Ni 2.7332556588571983 0.6308192985350798 10.082192092200575 0.7936681784303878 -1.8773441950483345 -0.025045630114718154
Ni 2.9344136882430067 9.223272428216204 4.750255682230418 -1.2104234320495413 -1.2118041144471516 1.1849908509090494
Ni 0.5765736212489956 3.966674445421939 1.3609996845638683 0.11772849976243596 -1.1069391009109453 -0.12913828426127436
Ni 6.217895174287465 9.279004925719489 5.881956613084825 0.06777042267675426 -0.06132620971330728 -0.9334775692522632
Ni 6.169941035367277 0.5386866880547767 0.44977241995951306 0.13061204059332343 -0.3419960583293917 -1.0654214412831329
Ni 6.701921215208303 3.9523831071640014 3.4762089284540183 1.1922282491977534 0.6749505752818054 2.013156291785359
Ni 7.111736504862665 7.097649860251652 6.884520043797817 0.17073153432202856 -0.7445814482060661 -2.8085224267434596
Ni 0.7330916879434427 8.376203595963043 0.8801408126163386 1.7329721245564413 1.2651640181255308 -0.9589060366276968
Ni 6.425519662064723 5.266618667236843 8.302806036730253 0.8485185506113646 -0.7066777311817571 -0.1013955669303673
P 8.874139500618005 4.075115557008044 3.9377140160849238 0.47157194434871685 0.6328464470229037 0.23852124027249247
Ni 2.710841704519066 5.595393881222825 11.076013243338595 0.8554314756811139 0.05336761698786293 0.14176882854109135
P 7.966192916918433 0.4535462264682496 11.81903722528617 0.6609892280057068 0.7633299324581627 -0.37886182100748944
Ni 7.374712015619395 4.81678576960892 10.556320264866992 1.2440290359191286 -0.6030291065511549 -0.3744834894341357
P 2.9519336035683295 2.7770600992988443 13.472623217485598 0.34168135530245025 -2.1206556576206186 -0.3279097554396546
P 4.725976224428278 1.0248359603496133 4.413039646585842 -0.8260759053371322 0.30023414390125713 0.6256915811456772
P -0.14558649552306013 5.9118967806500695 9.702843591039452 -0.40410156941088465 0.5659059764466124 0.1362252730150428
Ni 3.7480802390209127 1.8037418081772245 6.563291512403641 -0.6493123058884107 -1.0723981297112821 -0.3249671278715629
