# total energy = -340874.1642165308 ev
CRYSTAL
PRIMVEC
9.16330553137041 0.00000000000000 0.00000000000000

0.00000000000000 9.16330553137041 0.00000000000000

0.00000000000000 0.00000000000000 13.41142388627810

PRIMCOORD
 96 1
Ni 2.3082000189298824 8.676037629510857 1.3103407836843322 0.9471640656004203 0.6959500603516078 0.09961764909433811
Ni 1.7011860049955954 8.874771400632872 5.4401161488010334 -0.9927468964365419 -1.2014286847500988 0.9869184626802228
Ni 2.3782534899842815 6.302988897088236 5.9288282225521005 1.2957837998939168 0.12771980664719293 -1.016808565371436
Ni 4.408393001504648 4.983592018512725 10.643305868879693 -0.804945036895788 -0.6539464622263125 0.17809851621006104
Ni 2.362391808049008 1.5935996343416121 7.456737951949988 -0.38697288015039805 0.06242612764570539 0.7770830203781972
Ni 4.071220009886901 5.236929927504351 7.401000313181826 -2.084495148539662 -0.9624155924428522 -1.658143509481325
Ni 8.903690793000129 7.322067599033677 12.255359484301287 -0.23761672618035207 0.17118636247126 -0.22212917206771424
Ni 5.637036501751478 5.790173664375561 8.707836132487047 2.949845168886068 0.6405507576456968 1.4203848584064698
Ni 7.572757312716641 3.497477958463867 12.05190752714318 0.1788608482973823 -0.2940717238442871 -0.46707739891247296
Ni 4.162459043410597 2.3083924483467744 0.8559920221374644 -0.0010788348864755614 0.4590265035835385 0.2728878906778203
Ni 7.579254096363151 3.7562313810451777 3.111906219506012 -1.8082450262578276 0.8791429603654408 -0.9747538022932308
Ni 2.1720516248257273 6.434482331964708 12.6722000871736 0.27571533282428645 0.8205068958897869 0.4976789258484139
Ni 4.441976516405155 7.008774181721721 0.18301595308413335 0.03231285320009274 2.2125517697009833 -1.2676181360929781
Ni 6.525134913932161 8.115967229992748 6.543165550294979 0.013400589676622082 0.5415496590894351 0.9867035184559395
Ni 5.252003565160922 1.5436779456163843 6.890186346404832 -1.7712810474389686 -0.6725869601456352 -0.3809099617857698
Ni 1.4757045449255362 3.899114804740567 6.580301678763541 1.0982986516271278 0.5046962377065115 -1.0651309066259076
Ni 8.998320249583358 3.4942158216822627 1.00191124896697 0.21120301207351366 0.04443843281903315 -0.967927523400017
Ni 8.098364519999876 6.77035413419204 7.9307383386143515 0.9544629132546789 -0.6235046007966875 -0.36976063003716964
Ni 2.4115437791066663 1.7035134846094366 4.891548446760308 -0.367364104780535 2.1517495508119455 0.126822234533588
Ni 2.311682075045078 7.486109095281663 10.510626702262941 -0.6305993028599397 -0.2261668324721976 -1.2897666471655593
Ni 0.15963669526226362 5.621009880316011 5.0033059541080735 -0.27961338232711197 -0.12197313397140283 2.1563906491283826
Ni 0.1187390298587326 0.5298983832799365 1.1343585839528942 1.766480797836848 0.8005569351304213 -2.3102529184988985
Ni 7.131058494504057 7.751606710759776 0.5973916267591103 -1.6445930244904 1.5850699294241024 0.7645388651645995
Ni 3.490862051844995 1.4921343518059205 2.8913958527056733 1.2678407936267455 -0.3287885585001821 0.10144004701505756
P 7.74026253846869 1.7149492899561847 0.38739157144332287 -1.4238273084291158 1.0679485785803609 0.20955724893997457
P 0.019649792456383743 8.372988787822027 9.795663450774246 -0.4112700621348659 0.6013866858517256 0.76104087931367
P 6.841168159608442 7.9880016677593035 11.882360716910958 0.09127801888039118 -2.2117351873369584 0.8185238040214871
P 1.8770390021185481 2.252688713809208 0.4275818296571352 -0.4606717524964453 -0.3045021751489917 0.7271727658113154
P 2.023587748040459 5.322955040160819 10.655724896913705 0.711907869232445 -0.9946312579434482 -0.26014936006522943
P 7.060519368254644 1.4521090330923017 5.7620972961204036 2.158436475913818 -0.5680646746608281 0.12083464949158544
P 4.98390357090198 3.337312540470428 2.5578405341255035 0.3547003932699375 0.29193436578631016 1.1131593707890441
P 4.157950697071975 0.3606979459981207 5.112220087738614 0.4559095552211116 0.3592191070758975 -0.21757446281749626
Ni 0.24939677126755766 5.171595558816598 2.8364490072078836 0.4914936229733084 -0.4503426026562954 -2.2691898299100015
Ni 0.1713446507843311 7.441071448423276 1.0465521246943363 1.5493935590684154 -2.1340243656180413 1.2167560591357884
Ni 6.089850409615989 8.999319049890085 4.077944959842012 -1.135754996701373 1.1652206102606577 1.1347286123193876
Ni 9.087561682493599 3.9535173498877176 10.117913082946709 -0.9376401852703852 -1.3005593669056892 -2.2118727413560877
Ni 6.720945590578524 7.98748852264759 9.432174361900628 1.7094503872854172 0.19204829352193376 -1.3425490810739136
Ni 0.49603905288188416 2.1968017131603164 12.081292415433207 0.5018037466500648 0.5933332194196298 1.529455939604224
Ni 2.5921067152907 6.369083820137992 1.894940435872881 0.7309042078292896 0.3391279927529773 0.8483830534747647
Ni 3.1404205937672387 8.364888425701414 3.5831035509976443 -0.5412185010022614 -0.49197081972004314 -0.007859862364050979
Ni 0.2703715777088291 1.9171193006655647 6.280730311537126 -1.5657030948617163 -0.6539341209311383 -0.19011970904065323
Ni 1.595643051482898 8.572510603222746 8.365938540519313 0.6944431367887782 -0.6057621892116019 -0.9530228383740426
Ni 1.9592705062705664 3.282781709045348 2.4689628844462446 -0.5946025730503566 0.44939977912705187 -0.40209816582761077
Ni 6.130682099219443 3.8259091565713588 7.173743920823574 -1.2276508516714213 2.1221972910761258 -1.5608467952106797
Ni 0.6990795776200631 7.359169823271645 3.4558151570455493 0.09108312926076571 0.5211813798457282 0.7686431171409601
Ni 3.2915784823890006 1.586049070554977 12.39985381711523 -0.9525268725742305 -1.9813628014238458 -3.108068286328441
Ni 7.000224817628358 5.945372570752063 11.221445390643998 -0.5134230760565481 -0.2993471133106135 -0.8664972465769722
Ni 1.462683487715817 1.159304767026602 10.308141473842081 -0.14401777247626812 -0.07207264959653394 -1.0027515730577374
Ni 8.008307552894236 0.5455658031372043 12.032058890956009 0.9383989178132807 -0.21551655184720306 1.2146891493044305
Ni 8.210972382104195 1.507153009629094 10.038209734800434 -1.058411842734519 -0.6080718111813851 0.6526660528519922
Ni 8.382069623638236 8.883943869504742 5.15474790520239 0.7416835578329808 0.9337202813906886 0.7367557815140602
Ni 2.965603050173278 4.194713879003989 4.64046012928521 0.49857752640328323 -0.43163294206193403 0.10004188111595029
Ni 4.847379481269606 7.348824451287288 10.593402506765598 1.0812136711203832 -3.413767824219643 -1.805040146167285
Ni 2.163630547010293 3.8634970360043406 8.835030144391808 0.5209913753221093 -1.1601352253179504 1.2174417723489035
Ni 4.896595595466229 5.182518219051633 1.3345374083627162 -0.0861818353044064 -1.1042713242707949 1.2601112861929715
Ni 1.4511285593967072 9.006301488731609 12.535631097343952 0.4201866478982053 -0.26942178650609083 -0.5726962598955685
P 0.48297126281377706 3.483623040447614 4.5635854935672535 1.1126356370750903 -0.36540055329626103 -1.099483158853532
P 3.7519154641234485 8.528251837337494 11.648894352370421 -2.553908908894795 3.076487940418998 4.046755681916418
P 3.8245071708197145 7.176288570779337 8.442974450415237 -0.6410999452809475 -0.9002085227864883 1.5110334712329783
P 1.0266109391209441 0.2776655689396076 3.2058667547829 0.883170336357279 0.18307720037157502 0.5022950844641865
P 0.6012961112609126 7.244225318247919 6.414522819780183 -1.4926513691813648 1.2073694757145659 1.1909175008061295
P 5.369147263520561 4.883244659256122 12.602285898363808 -0.39731128596192866 0.2563202161271263 0.4226433369688141
P 6.706183505311207 5.787058140483017 6.421242271751955 -0.26927240541242015 0.49505177263821193 -0.35385012945450023
P 5.850798094002234 0.937855161405717 8.873226467314392 0.9914410331409247 -1.6688323566537389 0.05207126677394258
Ni 7.672005075305287 3.674705451421765 5.439914556078575 0.588088940301555 -0.03089411847569518 0.5425289922835689
Ni 8.729038188906364 4.468476796102908 7.59219360015333 -0.9784340793582955 -0.21975578673953122 0.7762152730612631
Ni 5.672544310820908 4.801233074437695 4.408066787826487 -0.5100011948591926 1.9943689838755265 -0.46832335550443216
Ni 3.497762020936422 0.34104906987229366 9.66670000456463 2.0273618938617792 -0.032740941876446834 -1.1419786090135817
Ni 1.6102127073333223 6.022564256842615 8.233956701456156 0.02905886503916931 0.9512138101897617 0.06598144909713152
Ni 5.163211134223429 2.975792645963009 9.017211320338852 -0.5352134324587622 0.5145715878386944 0.9741670765518253
Ni 0.12497374296604628 6.285642759651221 10.289338370820023 -0.5530064947761251 0.34756095401167886 -1.2782601891878567
Ni 5.179201102436631 2.8140786293288644 11.768457163399564 0.0822292784145616 0.1324400949409977 -0.8065910571396432
Ni 6.230085638002716 1.4769599177881199 2.282167984146567 0.17412359072271302 -0.3567783588448888 -0.5863904695532095
Ni 5.72642454755078 2.575924317660606 4.547290387278695 -1.2576471409231953 -1.8397994040253411 -0.43012576138878833
Ni 3.59130104415726 8.572024948027732 6.944139889579234 0.5617315333539487 0.8764034499470906 -0.10185296618276007
Ni 7.440814875867421 2.2233294827747683 7.957882798693417 -0.3450327882731864 -0.5755491559633313 -1.032850706435963
Ni 4.918440915936299 7.09410288315515 5.26303160340997 -0.8448562712684289 -0.3177783234326076 -0.19447515779587154
Ni 2.9237725602630977 4.02636562913984 12.844630589667537 0.24742162808591583 0.4184794353991116 -0.25680049819765455
Ni 8.838649650090499 1.9511793074555195 2.8578407440524223 0.8395919375456959 0.09976805862927333 1.5689187735855368
Ni 5.773844653856407 0.6559671412611563 13.117311320379075 -0.3907901970139593 0.297818592481229 1.7756902322502581
Ni 5.059849047435512 7.337846811218855 2.6807690272891507 1.2226320583005912 -1.4016206904250894 -0.37370881605164025
Ni 0.5076223874482498 4.625572506731635 12.095374583427503 0.5788231987289129 1.2507352442947104 2.70018693816015
Ni 8.495199794159834 9.143659439170516 7.8684828405968785 -0.3931301580010455 0.3494021209854757 -0.7985159934409926
Ni 7.2117872165432 5.543039313252325 0.19945583960064056 1.062110374632029 -0.5362272184352571 0.7024549513496612
Ni 7.937044525505083 8.900098777218139 2.7484702778046795 -0.26486399193207927 -1.337562940713232 0.40479191060969
Ni 5.816408208211892 0.25382539684775274 10.914846684378782 -1.931036542365468 3.6998837835519636 -0.9392594660413631
Ni 7.318411440112722 6.989439606976818 4.388580102209184 -0.3253373667267881 -1.4320604949721853 -0.016016172922598222
Ni 6.327528229394799 3.3650132131973667 0.6067592740395436 0.004705890116101573 -0.6910986457965775 0.9623798541089104
P 1.3850886161803493 5.143464210728043 0.7884520457999025 -1.5103215327676183 -1.1608628475125942 -0.3863766413272958
P 7.224817437058486 5.999985871927239 2.4881545116243133 -0.12230094962446679 -0.007002913680394392 -1.0582411214846097
P 3.4471072677658903 6.164155654453154 3.9101410103285015 0.32352242500523637 -0.26985604583003203 0.08840198288417678
P 6.7833385381794935 4.064979798796248 10.09048730938676 -0.04290579822459062 -0.17199883107022634 -0.7075681042065104
P 3.4168133795636866 2.5049911692718414 10.147016657755849 -0.8025955628270048 -0.23463553206484103 1.5442994323749597
P 3.5886070323207666 3.2146800220765717 6.7487626372861556 0.5696135072051868 0.2459141903024539 -0.5288471239211022
P 0.2806528065542229 2.3035542230077652 8.591049803044493 2.6461582905495202 0.8403915506288558 -1.411717669649775
P 4.6431019102799755 9.07955295342865 1.5121250192293707 -0.4534762631892707 0.3355747281840802 0.10158839966746373
