# total energy = -381171.4247212081 ev
CRYSTAL
PRIMVEC
9.22149286986450 0.00000000000000 0.00000000000000
0.00000000000000 9.22149286986450 0.00000000000000
0.00000000000000 0.00000000000000 13.49658693782505
PRIMCOORD
 96 1
Ni 0.9506529177272978 1.1959722915843687 8.672150984836106 -0.42734742731270275 0.9635160245958825 0.31810511064440694
Ni 1.3968440699826161 0.3195404032283226 10.915094686796612 -0.7673187419025818 -0.008292836136411524 0.15056508667648263
Ni 5.052612689006682 7.86887504342901 10.831064755498067 -0.3173774884497631 0.7636618618762848 1.8192053819240734
Ni 8.60209438162859 2.832833377044632 7.0660979847842205 0.16664810828127427 -0.5572187330852597 0.514316791515411
Ni 4.987029431972832 6.2660965954823995 4.822168505239782 2.433648386739125 1.8484655643407712 0.7203727121703465
Ni 1.3610277918162115 3.1826322647084395 9.989310290943454 0.037970822816818475 -0.529374971400114 -0.6438093737923106
Ni 8.0939993479801 7.3172453421122405 7.78569533376974 0.1556630700246803 -0.3988380070191002 0.6350380553575837
Ni 9.179295282573431 4.933498666072735 2.821569323548169 0.43543534652715976 -1.9794056776974749 2.2131909459468786
Ni 9.015318697003142 9.216135146444385 6.537409513339332 -1.2832445297763253 -0.07976436181383682 -0.1644169049579104
Ni 8.984306816603137 4.992571549165936 8.147416689518343 -0.9335125362552568 -0.2896789940932301 0.9153376651184431
Ni 4.127807615692472 5.655421675550934 11.294780432734704 -1.3199861081717332 -0.4922495273027265 -0.6562823094483408
Ni 4.171213182461078 8.884770022955307 5.674532297299661 -0.442268053178277 0.6575912580677513 -0.20784052335918396
Ni 2.9312635915524083 2.3725333407536287 5.659038345040342 1.11764980246023 -0.8688192098419295 -1.4900296152878014
Ni 3.4579860407251344 9.23421849389143 9.489166950565535 -0.25115949786179326 -1.0530482644297607 -0.6809906108282981
Ni 3.522582598025769 5.783554318476318 6.7799163318821005 0.6747042635989542 -0.8554574438230429 0.13806541154757515
Ni 7.902468941822473 3.1785471433830748 3.636938330657485 -0.31477270383706435 0.22062559093899423 0.5100047944036185
Ni 7.73899953835804 6.328479994502927 13.270937125521097 0.9865816481660944 -1.0605227184299348 0.44344844663962335
Ni 1.76902352075401 4.097044715598979 6.842256389886309 -0.387714643412429 -0.8591428630944301 -0.07586245565626934
Ni 1.1857272130460383 6.361041085699008 6.887551440536556 -0.49828262087068376 1.5763850000555948 -0.33137020318442933
Ni 0.3963812587136514 3.164724125625237 12.387369646010272 0.8714473914933959 -0.8750039984964026 0.652705904950992
Ni 6.038602367273027 3.593348334032203 10.453821783011646 -0.13549970770292794 0.3478183214381236 -1.3868113933263988
Ni 4.584751028591978 4.0354359219764895 5.47339217345995 0.6070225439812643 -0.5912112879806205 1.2535344043064025
Ni 1.9913998204406342 0.4012087102121356 6.7815623683529305 1.48106469278503 -1.2302852039704746 -0.5320550893354385
Ni 8.407179687600964 8.458358972828448 1.0946234745947008 1.9744992415347928 0.00779944143976076 0.8354766298257419
P 3.3230663790740875 7.7819993594419605 7.401501199985213 -0.6865799319906175 1.288218585952149 0.28971344687559136
Ni 7.29838738926716 3.0234047479475463 12.32509690490375 -0.9533077166043131 -0.835027458103465 0.3302774843408828
P 4.156025383763841 4.608690023988474 1.3207234130876058 -0.7909098989589605 0.06708522368427156 0.25956212010319163
Ni 7.693491471223332 6.522168229983659 2.0978960747301185 -2.9535228748479714 -0.496521415205203 2.024118190113501
P 4.689470301212394 1.7158708360600972 4.302361253543109 -1.6697615533362278 0.6339718188765984 2.949630481772101
P 3.36907240682182 3.428348162757363 10.8646715639815 -0.522090779033875 0.4938729218387623 0.19922578510697947
P 2.7557416969542246 2.216736219326902 7.737161694836268 0.05689851295925685 0.32946861528634225 1.8814553890032304
Ni 6.228260810385398 4.785419934147883 0.9101180016778475 -0.8718852503617629 -0.007004199231975034 0.07148875206860592
Ni 0.17936080206488694 6.57707299831599 10.484107931925632 0.16477120297353556 -0.3138229383292853 -0.2504385605353687
Ni 2.7452660810950493 7.247032895675834 5.195349410132925 -0.6871314336187134 -0.06276551326299513 -1.0844375773743193
Ni 2.499679283945799 1.6351551092860137 12.604583754008546 0.667722175854166 -1.0085962047639727 -0.7969805306330725
Ni 6.2289893083192664 8.442654770532519 1.3385282714510698 -2.1259863258049125 -0.045080951499038485 0.19491121689202562
Ni 2.391465065541381 7.278404414296356 10.875158245632074 0.7417892301729095 0.01442723116892354 0.00864919103456575
Ni 6.034415809526491 5.218369022693891 12.097463432152587 2.5306075151646934 -0.47492286309882087 -0.49391997302661395
Ni 8.560228804163224 4.235984948125554 10.785905260792479 -0.8262085742602545 1.6219778581940454 -1.8794982652768597
Ni 7.893736188108882 1.5492753465250129 1.9944982420327846 1.0056785168965454 -1.2687468503807826 -0.8663154695834692
Ni 8.892082666772495 4.856637523303172 5.536434909218093 1.5534137359714022 0.0533295646610759 -1.418839368296221
Ni 8.501211250027028 8.684101117399402 9.794568038831821 -0.5089159322148139 1.5359436042110968 -0.5893762916544107
Ni 0.635224378153558 2.4472182112144196 5.076038969401618 -0.03768748724844477 -0.04830202953949746 -0.33395878984721195
Ni 5.164875142765129 6.447870662221888 2.4020006211039755 -0.13813020334723952 0.11565927593823308 -0.427283921064619
Ni 2.0200325556895233 0.327002435229418 4.286029989734483 -0.0664946412881242 0.07552615536277316 -0.2883052536741551
Ni 2.796177943030353 2.7494249743630843 3.089773676170833 -0.08273090064132847 1.158238779626186 1.4718503732756136
Ni 6.987484758376239 4.7893390686022395 6.54984008567927 -2.329772733699381 0.7779687654172602 1.1169445488630891
Ni 2.1587422508952545 5.149447585254213 1.8972151812335303 0.3327974225492591 -1.4398967031871526 0.5323165705269414
Ni 7.767318742850581 7.963487559903601 11.832120508756246 0.1271395086636907 2.669185347572313 1.913305443634292
Ni 6.586709458327292 2.565843495028176 5.552388091820534 -0.6981573524155719 -0.9887169493415423 -0.19656469333504856
Ni 5.290628640539398 6.958307955050157 13.257873036623481 -0.6996401076086854 0.9606610716455906 0.22361886923936325
Ni 6.306191646323679 2.9277686457684053 8.08105421634004 2.1447031854881256 -1.7891430153210544 -0.7632093477198986
Ni 4.8419937926831285 0.36362098327236164 12.808139908970707 -0.8665748938924431 -0.1779095401277065 0.054113751125268096
Ni 5.396694251113545 3.937761869881083 3.293909863032239 0.3016886169595966 -0.7407741586448339 -1.1897281084837186
Ni 6.363595439213965 -0.011815498767923356 5.851525942154116 1.0468395645158874 0.9051506972831121 -0.04470582754780688
Ni 7.0359805891890925 6.828635322821531 10.267271905133544 -1.336885197919917 -2.8209524249766966 -2.6565599454988185
P 0.5043981371714262 5.194531463718568 13.355385712594297 0.2367970584925341 -0.8903560554724409 -1.1611135300708197
Ni 4.704409119603118 1.0353984368697435 7.460130529273108 -0.10872861025667081 0.8935964167866094 -0.16892919100596712
P 6.110548454362185 2.441602322078647 0.6831069796929649 1.027541635518224 0.028303989151015767 0.06950334620746094
Ni 4.763371344782312 3.077083057732984 12.404321516286611 -0.03363954243131626 -0.6147741629022251 0.7853321477608668
P 0.8631741481089195 8.68824156768177 2.667721625706503 -1.7916812083618756 0.15110373278877204 -0.07655511084791977
P 8.25729354308069 1.0316084033150594 11.510078314522119 0.8579185037690256 0.025483488983085147 -0.7821336954282272
P 6.9806331892007405 5.280807750671422 4.002709766058684 0.752798951019852 0.7223048961960529 0.47398749576874494
Ni 0.23485666808786324 1.0466394366341223 -0.001442241479203319 0.49999806089989374 0.1886043008373913 -0.9110369808605601
Ni 2.2263542363525355 5.310371856696523 8.848875362099815 -0.7202716678161079 -0.057520462813971905 1.1467580326800961
Ni 2.386337915525799 3.5307528406764987 13.723329731707134 -0.20633488534793495 1.2944967056513772 0.4756659119124324
Ni 0.5736948893694389 6.898386694616249 4.39946910597852 -0.4628978136134867 0.5521788566685071 -0.7106416009255115
Ni 4.058028579419252 6.739592588018543 9.136163594141989 0.6944613916212233 0.049119383234470244 -0.896200944288992
Ni 4.385059601276454 2.1023159362453496 9.57169838927859 -0.7532944025990317 0.7955376275389588 -0.6316794232979961
Ni 3.5418001890913686 8.722462527587929 1.15986276994585 0.8984560588717558 -0.3007015704559789 -0.709098681918424
Ni 2.8290156790114462 6.319406045554487 13.409385852479632 0.060016232652632125 0.5251223667713473 0.024854082929202354
Ni 6.03306947157276 8.823032128433145 8.82845528836869 0.6552687805821618 0.22754751486980815 -0.10399083846136928
Ni 4.5069400720605355 8.628864375325055 3.38864225891367 -0.3444879715133099 -0.002354873385421751 -0.11121949499932458
Ni 7.9243792087955365 2.0957225688691965 9.567271150569091 1.0225686077836649 -0.5177047341510375 0.49805533535122604
Ni 4.624163688963558 4.124119018558959 8.029699722748713 -2.655307818259272 2.0277015365893853 0.3104558216292653
Ni 8.16804793543536 3.6535001317869553 0.9378212104490917 1.7641344090918587 0.09313846912789765 0.14584916925805202
Ni 1.9384039011248957 1.1368533010269999 1.6749403179680777 0.21125340569547488 -1.6486965051358122 -0.6178512591656521
Ni 2.4428287806255398 7.364689922742044 2.635627142047812 1.1983868125999813 -0.49292444188256407 1.0297615259876782
Ni 5.704793548182995 7.147855740248521 6.982823293748763 -0.7310605309014958 -0.5690059555281749 1.0310905292117467
Ni 1.2544549991362066 8.114720042377606 8.7438176606924 0.9075613636071338 -1.1546934854770887 -0.6815269429477424
Ni 5.966932924968883 1.0680333000084938 10.86824765890244 0.9077284853126173 -0.4680647025264068 0.4027357994116096
Ni 4.012428297356205 2.153956296114522 1.1595418619952342 0.8784809013014097 -0.24141604532178423 -0.60859348801281
Ni 6.831927395763191 8.395440727223562 3.5795778787835184 -0.0015614309498489238 -0.45380433595265074 -0.2823364376852299
Ni 7.5434301183392165 7.278330642353685 5.5151102070399745 0.8461911880297684 -1.8175627041143276 -0.7765286905366239
Ni 0.5371971428826179 6.4860568640465734 1.4633402548070096 0.9565583623311269 3.5618939624373303 -1.3983651596022693
Ni 5.742481789394658 1.4175370999016204 2.6617294996631125 0.9029189797391158 -0.8206220813114126 -1.1802980734190707
Ni 7.122976152582981 0.6594409404843499 13.285230439413459 -0.7266557169655808 0.7577208138015016 -0.49409377960031675
Ni 0.7599321586404763 7.7033861330339795 12.794170269476814 0.01648874168364257 -0.15644314272381443 -0.21870703376004266
P 2.763211106149587 8.614543396954193 12.584527929244356 0.27624575140645974 0.17241714955456758 -0.16678771918293211
Ni 1.8817747136326477 4.844409823805578 11.569639014586224 -0.5255270584089337 1.37697692373448 0.03351484392799389
P 6.544797773397757 5.072374348149474 8.876867203596756 0.6705053950262582 0.4607272883247291 -0.6816231022059744
Ni 8.238500140685446 0.8431063354040458 4.296611652761246 0.38930024273199404 -0.32475655452265356 0.08935791903954288
P 0.6521495061006793 2.6272033083441535 2.1542984134986556 -1.7175591324354809 1.9988828125854803 0.5841705790837552
P 1.671543120008113 4.360272228539252 4.513016113688714 -0.6147291685969026 -0.14193106515056847 0.5142941658075917
P 7.269939083874945 1.0018229814619475 7.504979259670201 0.40085272345628387 0.29725629221985583 0.6876081161448158
Ni 3.440935500475474 5.236581471040609 3.7423197064633653 -1.3242217435196355 -0.3668336861983618 -0.12464219616313373
