# total energy = -340863.20431384625 ev
CRYSTAL
PRIMVEC
9.37908138128634 0.00000000000000 0.00000000000000

0.00000000000000 9.37908138128634 0.00000000000000

0.00000000000000 0.00000000000000 13.72723365359033

PRIMCOORD
 96 1
Ni 6.843962503416652 0.16600786279109236 0.5917149828842511 2.3961277640858474 1.6801961184059901 2.283509331856467
Ni 4.575350324075109 6.40959849130459 8.292031688595948 -0.6263302431709407 0.2605928753605512 -1.785111525564158
Ni 4.580358753477162 0.6821827871602337 1.4190390528099486 -0.20494006188293737 -1.012705856056972 -0.9570317024231196
Ni 0.03580839440841769 0.2656174575880119 -0.10812673850479147 1.776324009179515 1.400424356124143 1.6240558237689964
Ni 8.077714991870117 8.473240228413081 12.422213298927602 -0.08423705287320976 -0.1487534873890406 -0.2787014120358039
Ni 5.506861918369153 4.498310550463768 8.712400235626095 0.2685139299798408 0.8580635139873222 0.728939370793435
Ni 5.204658540534839 5.640166800562725 4.780069406929929 -1.1367950079301132 -0.5495679014082212 0.9250914020710971
Ni 2.7262550711837408 1.7493487235078011 10.026824077961455 -0.8129026011799677 0.2920279539413809 1.2106386333841408
Ni 2.3980059846425004 4.205955207970567 5.272012536911164 0.5638220973343904 0.86578479389098 0.14433993170237722
Ni 0.8674646619760775 6.91388355433856 5.796900627786872 -0.39224852672704064 0.5682428521099052 0.6515671633608585
Ni 4.874983833639456 2.9433808027521082 10.407164581916549 -0.31477321805769665 0.5066363921520178 0.4360012463329588
Ni 2.269972146126743 6.325017936346336 1.868564349806687 -0.48222711006971786 0.5281436700961742 -1.2976751033793588
Ni 1.305896381638083 6.36414746343503 10.098411791626331 0.7870486162313414 0.04268828289714583 -0.35478575389489225
Ni 0.24821082064556124 6.275749622396936 3.489311800381457 0.9701101328736325 0.9959494625342398 0.5683379829268728
Ni 2.78880416422173 0.3324790521972809 13.228619203880646 0.25456929487429064 -0.3981039570665531 -0.26704531585411434
Ni 4.958326349869111 0.811268020687171 9.167156246251157 0.24732752571021274 -0.4767871700010692 0.45492276582781005
Ni 5.721511572480327 5.454095207103337 0.5812713758820317 -0.7349968898414245 -0.9585154860574977 2.121516462959017
Ni 8.716252224306661 4.865098281973234 9.801601385526437 -0.636350089300788 -0.3785172931838771 -0.08357833624328832
Ni 3.28930007841969 2.9808689906172816 12.434182882453632 -0.8060884064716117 0.0693670777399128 -1.9867294650523981
Ni 8.948665858356948 5.333714698909817 12.153900293380508 -0.09841025904979826 0.4886854641005519 0.49775323072977506
Ni 4.944520342228998 1.4145530382350393 12.554776295792143 -1.6661887483833044 -0.6965527269326133 -0.42075897546190766
Ni 4.707736056303512 1.5418271711673392 5.697818137357734 0.24942451744855748 -1.197106660335977 1.8582457836559871
Ni 3.5152984208763374 2.3320898014259783 2.6263218980827565 -1.2759716502639962 -0.4690196102405084 0.29838037852196997
Ni 6.926348353356026 6.481873691627088 12.716442581859997 0.12808721728894068 -0.5201796780540913 -1.466769102097964
P 6.319277938604659 5.504320187343017 6.65073467094272 -1.0810347223403576 0.8032118562547651 1.0629912345750854
P 2.513209239970978 5.902021370742305 4.081614851661792 0.011907550070863365 -0.418680238556008 -1.429238452142358
P 0.35642384669810345 8.742860677890224 7.126987535855242 0.2537164599556921 -0.25971818606508174 -0.4390156076792504
P 6.335353683913868 4.623042952369932 10.76431999695428 0.3784108495129999 0.14370538344217185 -0.2573265459044536
P 6.898408070231095 1.5509905335752137 12.633941369220912 1.6935442575781219 -1.1419274440606721 0.540841834389133
P 3.191344953560078 8.382113074723309 1.244091987653508 0.8655665072325869 -2.0871768091368827 0.20378357968099098
P 1.344969634239112 1.4140090515209587 11.985398532877795 0.5301974673014095 0.3182763461149486 -0.6220753245493286
P 4.015597374367475 2.983082453798713 0.5534586482624707 0.9830762061159972 -0.05300560566275387 2.23538393710415
Ni 1.3095636024174884 3.876017886799422 11.69996776609159 -0.43932748249271436 -0.24968419886784737 -1.444443184907254
Ni 1.0657731427778956 9.075058357649187 9.192565115339358 -1.268981592099408 0.5918648624042194 -0.8535607410209622
Ni 1.2794755096800663 3.8929189912610282 2.7991342843404943 -0.236912758134792 -0.04104277687392286 0.2497880714355634
Ni 9.313015028734329 2.519193093825864 10.04825246495559 1.3269838796458049 -0.6954060149226798 -0.9182466112351217
Ni 8.828547964439192 0.5298618176770343 2.7596821168558643 -0.3498782892909458 0.28604756798822994 0.45066373344113997
Ni 7.051896735333312 6.348127992613485 3.801949406136713 1.4937983383016145 1.0248250079180092 0.30337500352308394
Ni 3.7617056441922827 7.045772195259267 13.347730722377355 0.06910893898251969 -0.3145215070582067 -0.31776726768901403
Ni 2.6446101686652685 7.771366060111259 7.884414940470351 -1.7089207400341924 0.5867031156976218 1.2484860432492175
Ni 4.771804560508415 5.103936586698437 12.33703529649199 -0.6597779813064251 -0.8784392494301968 -2.158656048123792
Ni 3.8406587503841845 2.7673542053406557 8.006147912184051 -0.6449398878523279 0.02825668085284811 -0.03468032499100479
Ni 7.7596891039210805 8.855128280778922 8.113042239409012 0.018230149854781507 0.6057727307345632 0.48120226834962926
Ni 6.149713528193234 2.4390019489053656 1.542954536736865 0.13582623780441122 1.1330327126742037 0.4931321870179958
Ni 1.300259553790455 2.9681321982427744 6.829847924002515 0.16334629760155095 0.16465833154475512 2.596161646916419
Ni 8.753374628002023 1.4234819236109824 6.975301530174512 -0.12510190940837165 0.26471486794872473 1.1846404095481662
Ni 5.628217851015507 8.434223250299716 12.985070724538007 -1.4871003574561485 -0.5795755035139051 -1.6608369971530883
Ni 8.771204261510078 2.353577276632161 12.3325736675284 1.2426990042537953 -0.7332547103393372 -0.8705906999200556
Ni 0.4324956991216332 2.286244852142774 4.898824520338102 -0.30036347039026984 -0.14472739694878303 -1.3952512965636357
Ni 6.8552267800306295 3.663544179544571 12.672089844408003 -0.6484759260300444 1.4945784110007485 0.15446185062772755
Ni 4.777872826094797 8.560324998072359 7.215844013967792 -0.14399668943034555 -0.09429289444731502 -0.4881733003508238
Ni 1.7981199461495079 0.23043089626827598 1.9767351699934814 -1.161640606218883 1.928913582485194 0.1730450129465536
Ni 7.853629981994029 2.7722688439299357 3.6302221795827525 -0.8500941226286004 -1.3901551129876508 -1.4606848435770972
Ni 2.326377940928132 9.499696262476741 5.670610360480556 -0.31700030761600245 -0.10066408808098146 0.44854797264971785
Ni 7.849390637256712 0.6525899099142505 4.999445180096709 -0.5020667705034644 -0.932575112042652 -0.22413334698193657
Ni 1.7338826184816138 2.4284035870620717 0.7370616675296865 0.43885671350388294 -0.4439503259767064 -0.529036871334405
P 0.27438783649036963 6.020882467768909 0.93800660807854 -0.2948803357885115 -0.6980629929295527 0.06822370816408896
P 6.245220712839483 0.6749111854459808 7.035193529486655 1.4455135351532977 0.5905942232219119 0.11339027739839826
P 4.464780334897594 -0.5065735588656194 11.211347644606885 -0.41636136061484424 1.8172680556920444 0.21775701114194757
P 2.7304287623521177 5.7231716698663995 11.519564889356172 -0.3171316909875441 -0.3416222199297407 2.283622203285248
P 4.41091627112234 7.949943767630122 5.118350358805317 0.6002600284464501 0.5949162476360335 0.16857952097603227
P 6.109027073612517 1.3237635314712466 3.804324189516113 -0.2820201919963917 0.3353980933968998 -0.6497298530418036
P 9.03321827607137 2.136610989445507 1.3912141323847271 0.026933591166050385 -1.1853443775937262 1.2338775493074232
P 6.427625085519466 7.408592575388456 1.0460348662299204 0.5941130350084478 0.31806525854540707 1.001802321770591
Ni 6.87890896025569 6.935783709120941 8.86705190680669 -0.542155410994234 -2.262209799047743 -0.9801592895795185
Ni 4.147101472955815 9.630534446294394 3.8016473997195854 -1.0670741463952074 0.0916261462484293 -0.38359856436152645
Ni 6.526368053206368 8.336221230033717 10.597355467872907 -1.1922110228065728 0.6472081150612145 0.07899174531387042
Ni 8.636304935499371 7.08350423923765 10.537038596178903 -0.7816030197357378 0.5471950303006705 0.5355178510730583
Ni 1.978620365330209 4.7301801977999745 13.802046854090513 0.739590679859694 0.703682138888543 0.20104124104916343
Ni 3.911217578832946 7.103678643065016 10.305844242694658 -0.5852728110089985 -0.491394892611915 0.20564582970071035
Ni 1.4530354087156012 7.176432176532654 13.171842935368804 -1.1061376880555722 -0.2309927931059312 0.4755499551598585
Ni 4.283173184126177 7.05818071978907 3.111950092640018 0.13792991441097535 -0.4692880334105466 -1.3747223233723487
Ni 6.129782980479074 8.4080087181298 3.2147804639475455 1.4882606963128369 1.3217378007555174 -0.6966560852796969
Ni 8.620491804465926 7.8900301964310415 1.6806666492226177 -0.47218181001857396 -1.3670185269701876 -0.44594781602270944
Ni 2.786084230651327 4.520595247578517 9.690864448702186 0.8044143612032985 -0.7195371036429286 -0.8779913632595009
Ni 3.149579904632478 6.509326262525603 6.099463224434104 0.9265882983315978 -1.2047271529957124 -0.43196641414195286
Ni 8.390920032042647 5.174429761578259 6.879691175634212 1.7223732659946724 -1.0861848990827294 -0.12201735694577695
Ni 4.740778559643267 3.31410774839802 4.484206288039037 0.542161067421189 0.8190899609376023 -1.3211091660325829
Ni 7.054991832154805 1.9820062136712968 10.443116476268509 -0.04600809129899818 -0.5405194180527079 0.20752684877350713
Ni 2.1276727249882863 7.921065576377466 3.5843866093808257 -0.45223004948699536 1.673436945305286 1.4477051434879777
Ni 7.030549946346288 3.6796668202601657 5.704022399622636 -0.6447079743471801 -0.8620816340077798 0.08969473355367133
Ni -0.09731265779212073 6.7632179927007945 8.187017867167077 0.9743385691326831 1.1817579457940488 0.2918544044779941
Ni 6.33115185550166 2.659335326270553 7.959132453557446 1.4755764159769489 -1.8786030071561002 -0.5875058141045753
Ni 3.6487815056141772 4.573127481812401 2.632786898807166 1.3307073512439793 1.108757899287239 -0.17074850360289304
Ni 7.814603624799387 7.229930456138097 6.148578659358686 -0.796005825424629 1.3751321572162574 -0.6325037189715043
Ni 8.27250913091735 4.866805274765693 2.513579713681429 -0.8769855477028057 -1.445016283801905 -2.6266546732989537
Ni 1.5219341397782893 8.518653739957532 11.28110925114708 0.27061040749755333 0.8396130205916185 1.293340737670063
Ni 9.088704920907588 3.8008633085248076 0.24764338622828758 -0.12716650524688422 2.570578656240992 0.7349482959916762
P 2.4610521689881835 4.916542542778957 7.475590166676245 0.27303212956516854 -0.6674645513174052 0.8143285349932169
P 2.616632369215228 2.1814523770320453 4.805602079890989 0.8216752051662752 -1.5913022834870594 -0.5433229489397738
P 6.030045830176784 4.879673374278082 2.616603294063268 -0.9216525515928773 -0.9131301159441629 0.8405604721065525
P 2.883335924415145 0.5565302973807705 8.267295299635325 0.8798962935916975 0.039687034176976804 -0.8129697069724774
P 8.540338175870536 3.425381168671329 8.140867159834233 0.20164570740238177 -1.3915540502177066 -0.21280712333583998
P 8.527038638619395 9.242353030391518 10.457543379089177 0.19097717194494207 1.2499220043647956 -0.9443762184426381
P 8.902455124903932 4.3791024274299035 4.575904627778595 0.45777514767494065 0.3863918108359474 0.7927225266876671
P 9.487878620067404 8.377826834579604 4.349720579512659 -1.0311373232892822 0.5672390934357392 -0.9097943667027105
