# total energy = -340887.6661500963 ev
CRYSTAL
PRIMVEC
9.10915917014531 0.00000000000000 0.00000000000000

0.00000000000000 9.10915917014531 0.00000000000000

0.00000000000000 0.00000000000000 13.33217521342873

PRIMCOORD
 96 1
Ni 5.460758694864999 3.2779217915334535 9.460137728707805 0.4596463965557246 -0.8519702566053907 0.29693696120722407
Ni 4.709435252627618 0.7116466779629705 6.181090045110088 -0.3911722629437263 -0.9815065476360323 0.6751506071077533
Ni 2.6205957620076097 1.6487577963744657 4.867043745138282 0.6253336835856262 0.7861039929298849 0.18575474720373816
Ni 3.773168553264321 2.7117511170811968 2.842993148588514 -1.7276044324866247 0.298776328408808 -0.40953071084625603
Ni 5.3856810055958375 3.0217722377541723 0.508804834129341 -0.4281889493773916 -0.3613479804934422 1.1603599397342468
Ni 4.971687943001214 4.675239469381266 2.893322163509777 0.7809245056114744 0.5883136547178514 -0.7967149356765117
Ni 5.523238417104404 4.506191694877855 12.080817294979099 -0.7154503351680646 -0.08728252456775291 -1.0948374325514048
Ni 5.696175802541804 8.198771517619939 12.671779456827007 -1.272047118398609 0.10450994418963293 -0.9475643863626325
Ni 2.4550823412334433 5.525160449673659 11.866088909441109 0.4545640969368107 0.5451530601699772 -0.8577632091380839
Ni 0.8300466169767589 7.547402878142874 11.319470134072487 -0.16782541641882712 -0.5010653258221435 1.5521232992947527
Ni 8.14388883406659 8.923040757342225 7.2937792941809105 -1.7278101207395278 1.1635234250638928 -0.3861984638782187
Ni 8.508637782588282 2.515803995767323 1.7279701329572985 -0.6240820705667124 1.0927414692543245 -0.0054648797693131685
Ni 1.2598786854074915 1.3660550438303687 2.6722875071296324 1.6360950143217177 -0.6461308228366356 -0.37281484348246113
Ni 1.8306859218396088 6.96417985786292 0.5683769127853063 0.12796020479277315 -0.637136075537193 -0.7175319002874417
Ni 7.731034416358966 4.283436318344478 4.005385613350704 -0.861408004979523 -1.133199577269371 -0.08755531861316534
Ni 7.973620432244317 4.379128034647869 12.93067633298964 -1.6241920922365445 -1.9620106221494789 0.21042062538153436
Ni 6.819963651055183 0.8318456758982172 9.283339881645526 0.35918928227922653 0.20576744288023915 0.048081685998575256
Ni 6.908012782877036 0.8875408964429286 0.45247015061609097 0.3566960835437276 -1.2488082024753266 2.0391228910524495
Ni 2.0424374341850275 6.590822753995515 9.488575612489582 -0.87181968723115 -0.17068654001670605 -1.2634971719460693
Ni 0.21502534412451832 5.3275645705634105 1.501362493042227 0.42889574563642907 -1.7764168260036377 -0.08922807832989794
Ni 6.581886668922348 2.1779999398515733 7.245850542681441 -0.5639038584149192 -0.7267827294617484 -0.19608878213989456
Ni 3.6004133510088416 4.764691411703903 0.6540594850740218 0.1288508349278426 -0.17522248021384662 -0.38188235300136814
Ni 6.101560709790714 5.764193893511573 4.78487730826062 0.3257366590477358 -1.1298756551024605 1.1113950797997698
Ni 6.721265912250114 2.168526414391742 11.993584343812246 -0.22075337476611015 0.529712557245191 -2.0676371964420586
P 0.2158907142386375 5.936684930153268 12.700683729554497 1.015663138913083 0.9852878690553353 -0.836434879973953
P 4.44743761870871 6.319005446571128 12.557935919193035 -1.6272866720014683 0.19206192036868858 -0.20285875387387642
P 2.2767432244521215 8.790356745950014 1.5756895876018795 1.9179010334247744 0.4087997462175024 0.5280392833078261
P 6.516173195203864 8.225488681248482 5.954029679987945 -1.0445399698484332 0.6224206237038894 1.2949448489323894
P 4.733219267027252 1.1640594408767568 12.783435885362032 0.0668463682005881 0.7616926539650559 0.8547483335711601
P 4.135713085284784 6.26752958851968 8.465051367229874 -0.7887344885741965 1.155535778872726 -0.3642512701831662
P 4.669109005309663 1.0891092798349387 3.9366442551487135 -0.22714899387980877 0.37299507781406727 1.6103621283319878
P 0.478680844998897 5.8577996123819815 3.5288936992825737 -0.9628367391406707 0.6962369954644073 2.3071259428341424
Ni 0.6175873229695813 0.20357877480449535 5.020710704508112 -0.23194538682718763 -1.3368240056646785 -0.05611715470854207
Ni 1.6311406826828183 6.820182270873485 5.2377182016519175 0.6105714376747872 0.7877117037366369 -0.9192452277029652
Ni 8.216370412993394 7.267268908463846 9.443072630057376 -1.3151894581140382 -1.1108410070685129 -0.4450687558518657
Ni 8.639554617115873 2.3488877644923742 10.400789577259912 -0.28457869675218733 0.9167072917724598 -0.053804704525281535
Ni 3.297114789748708 4.469509111198297 4.955782440303703 -0.6365992291971165 -0.027794910725081164 0.36540003907562874
Ni 1.4442298471921682 1.341095947907352 7.110381861353584 -0.4809215038844169 0.5210127154783479 -0.31685504028738976
Ni 1.3781246796325577 1.5310128058996795 11.542251016251335 0.9092444077365116 -0.2352554250370271 0.873970672135882
Ni 3.8831525401893225 7.0430742847933026 1.7714991606134036 1.3817224088392654 1.1142055526653714 0.21745182119670292
Ni 5.594936608348954 7.859455341294255 8.212033542347793 1.733351362272731 0.41414841212392545 0.732214699110597
Ni 6.720646489431586 1.108220295618329 4.7530007169201065 -0.5714346195743255 -0.4326176745727066 1.3352692595830489
Ni 1.015680348362151 8.083604419169317 7.537745347669302 1.8305984542523634 -1.8075107191949644 -0.004662181362359713
Ni 5.241237069810699 4.814755350095472 7.306431916165242 -0.016763335501267903 -0.6006693480697268 0.02066472743820312
Ni 0.18001520205498447 0.014918980767414918 9.790962346924209 1.7038060445154464 2.6091066371128613 -2.4730338305152824
Ni 4.819109528143356 0.9211637135821429 10.632436403986889 -0.8783006669698035 -0.515336233918861 -0.6591215786693487
Ni 7.994553279846905 7.290834303045176 4.837992814949346 1.6578845993929834 -0.23719789347537856 -0.8255053775456427
Ni 7.224984191940253 6.432924590225599 7.077852143305888 0.5842407702000583 -0.9095675954038851 0.4040509186786074
Ni 2.5048547865339414 5.385790315504989 2.78114469107446 -0.9182607523025089 0.13647672690421656 0.15372985755770946
Ni 3.532950918743929 4.546363086491177 9.495335519454718 -1.026084334246407 -0.5922723822552832 0.6030908130270258
Ni 0.8113027003049371 3.597899223098348 3.6307377416393978 1.3443617088026203 -0.22656329657966784 0.33169390507243524
Ni 0.6971385202707849 0.16885374941466608 0.2910576732669404 -0.45551360533427354 0.6402273128680072 -0.8846813736851667
Ni 2.3987786288611197 5.5721090556543995 7.104263239188806 -0.540733590946043 0.07120053140422576 0.8336344344106805
Ni 5.076743874855285 3.0321475699645064 5.2827010510997425 0.8407684743523003 0.008553288886649786 -0.1018020583401666
Ni 4.607230487570593 6.918433660882851 6.166331385542762 -1.3494159833970758 1.0478384380940469 0.47113434259066606
Ni 0.5990128366569449 7.8989617642935706 2.6928596320320204 0.3329136364121492 -0.2827431862053453 0.9183196305649023
P 0.004283126606935215 5.672109404210194 8.236337689731808 1.5813125192641992 2.1254355955077653 -0.8115363169600605
P 8.686220839164639 1.8933842638973184 8.27053438389407 -0.32900273139351727 -0.7943286948325223 -0.3974897205213219
P 1.8175778419004767 3.582650490771658 10.876935343282396 0.28131416706830265 -0.02210480231883935 -1.4702190083197777
P 4.085822220916038 6.290174958032314 4.071939862453747 -0.4019999496868496 0.9119916314643455 -0.6073506167446443
P 7.111511397081487 3.9105528907500653 10.77353090197243 0.5944902158422084 1.220792433988691 -0.8658303024169346
P 6.12411498771239 8.262836233542048 10.465330702202742 1.5008403327500603 -1.477963428151887 -0.5543002738868842
P 2.6347422860836844 -0.33271385781290963 5.991159523379117 -0.8871084950694205 -0.4041892440286845 1.2703321925900315
P 7.019007886461693 4.229400786587057 1.7113714232525827 -0.5881388197028838 -0.060993508964236894 0.28830962454952924
Ni 2.8345972366497385 1.718360881026937 0.544198471796816 0.24209250256351855 -0.06023683330387046 0.23939438690606513
Ni 1.0486281768123522 3.832423633183746 8.773211486699537 1.291581331776795 -0.7675907646170458 -1.0302374371828322
Ni 7.965158023444141 9.019497643009679 11.54094385192106 -1.082414890517336 0.18739742501348372 1.565552942437097
Ni 2.4692470836277103 1.8952971873074764 9.066705860024657 0.8428716367382322 -0.6066276225356907 2.319741060494992
Ni 6.080992228551965 2.495445025187782 2.810382359024864 1.9981760163264424 0.17335328821559176 0.07305481100414515
Ni 3.969297857760115 7.369838039884711 10.598905589354542 1.4824296914533568 -0.06976097074422179 0.10913124501172818
Ni 7.193657793809138 6.276839149115784 11.653053916579065 0.8105513273389718 1.3902417591641865 0.08430004490066127
Ni 7.779312959567722 4.038600340162418 8.316637659910702 -0.5813475078126633 -0.7509508420675196 0.6705107943428967
Ni 2.999782727696449 8.826392579333755 12.34242141322506 0.34094293447452895 -0.19009656911220166 0.7491035044461356
Ni 9.201525969224878 5.100391251868477 10.477423110902672 -0.6343747107419719 0.17754315792722328 1.4036081531687632
Ni 8.60747215877979 2.232472711245603 5.757046847284857 0.21562299551808026 1.719919148027225 1.6716744540882245
Ni 3.801324964030031 2.9127811491706335 11.489575481946945 -0.32045381338224166 0.2607638537207767 0.49388834845773005
Ni 1.200286566601515 3.8283427299087416 12.959861167817285 -0.09449806847958565 -0.9637839335452886 0.7067741475503053
Ni 3.4177382744978275 8.585327793017436 8.380018277984702 -0.9770767939994528 0.913962382037471 -0.43301439579049295
Ni 5.606095328241543 7.937347760724078 3.9316588123754777 -0.7132684970253974 0.8030984706053523 -0.6801586018453061
Ni 2.9344336203418058 8.62078974937813 3.7975765450620305 0.8330199407551332 -0.929255817861432 -0.7786907311849492
Ni 3.358774687669475 3.3682391039702098 7.253822878722253 -0.40697889095867973 -1.354046797300868 -0.20968914653214857
Ni 6.2429530772786945 5.577383258770978 9.586580144287446 -0.885891591943184 0.8574559623103104 -0.6477454756219232
Ni 7.568162651722638 8.97347817125673 2.9389317231034062 0.08848914328134437 -0.10461278831608435 -1.4377457182824207
Ni 4.899470529688193 0.5742413894113056 1.9610425430827951 -0.06827024513130822 -1.5964306058525601 -1.9101051915294396
Ni 6.05475785035551 5.920625482667035 0.58127639298114 0.020531030073816254 -0.2759107366645442 0.4298377978347242
Ni 8.466107118769099 7.482982905016021 0.6766465559684424 -1.4299948706924082 -0.13346853620551208 -0.7083234943152963
Ni 0.02535261159596361 5.086135417883251 5.819467359990139 0.07961575205111449 -0.6106747960218708 0.7200433538553856
Ni 7.376077813865464 6.218713604924261 2.608386756071252 -0.1919791308468952 0.9708554956800892 0.6106534558656322
P 8.593680891908459 1.6246640705655684 3.7951106956947456 -0.45598154610962766 0.3540100520711323 -1.4348773955956902
P 2.037372741727656 3.517929915394639 1.7007319254284647 -0.5394292703123226 -0.7590464745914606 -0.08928772792323977
P 4.577662157145005 1.6570562403109141 8.39317736921477 0.01683095551440972 -0.787462049619676 -0.9743966760641284
P 8.721801214593581 1.960172618389128 12.976446213783358 0.12223924314859594 -0.04701056442158356 -1.2334795425380563
P 6.389009334223823 7.8938788535180064 1.3124348897277245 0.24213903953073782 0.7994271924013522 2.4704516716104035
P 1.5408415885642543 3.2730757188943866 5.900407704053482 0.48562148046324755 1.0143102244296145 0.291248395462879
P 6.988273583671818 4.069717227634325 6.308372325158378 0.33689858920182625 0.6390829148509186 -2.6041284671719795
P 2.279758356112895 -0.2051865413849379 10.292426109738088 0.11937889088166537 0.17471828688391844 -0.6064450742112394
