# total energy = -340892.6483046816 ev
CRYSTAL
PRIMVEC
9.04051042761189 0.00000000000000 0.00000000000000

0.00000000000000 9.04051042761189 0.00000000000000

0.00000000000000 0.00000000000000 13.23170083961146

PRIMCOORD
 96 1
Ni 6.313322997996527 1.7024546988699123 11.526280257529894 0.8907550906830723 0.2648411091139439 -0.10369516159782143
Ni 4.368383725844284 0.5267724672289477 5.972922463327787 0.28143166648277335 -1.115722246420214 0.32251043880095426
Ni 2.8063914389901634 1.8916545031221161 4.526406425502444 -0.1059523330631143 -0.5044391273903829 0.31271736396993244
Ni 3.407440740686624 4.200311594687331 4.987438108300907 -0.068791664852417 0.3310943238152233 -0.6522117389233929
Ni 4.941036783983971 4.437480347781382 2.7169310670971165 0.44082052209847306 0.3180359479693684 -0.3164747741298356
Ni 7.271969693481019 5.9485383983416895 2.569635837227071 -0.837552281407848 -0.07169135499771524 0.11973524577981959
Ni 4.902714059871533 4.694972168534023 11.442060669587773 0.7838339659487855 0.23329804420034012 0.07723233942060248
Ni 5.729423544764632 8.3319876334743 12.309755308942712 -0.7040708896865293 -0.6769156694279762 0.2297776897519075
Ni 1.8827134382135997 6.5022244654014285 0.6097833389139706 0.44754138576207436 0.45095761053247496 -1.303250026363975
Ni 2.4766388176169247 1.4480547327165763 0.35335829840319505 1.039234755585436 0.5664777897896826 0.1868592931218266
Ni 0.5075839836411561 -0.034853880224269954 4.5301907832079085 0.018010320534491562 0.39846339728850083 0.6375955316721149
Ni 8.959109767522795 2.322407708072649 1.2203794197240743 -0.6432023363359309 0.5242844442510842 -0.010422223774588502
Ni 6.803219222796923 0.582015410838634 4.837708268946673 0.7290648406277057 -0.016140871425920588 -0.4826927368522268
Ni 1.1571130230240863 7.601785598427927 2.6526123549721023 0.4618596021569594 -0.17209679010067136 0.17866801556028586
Ni 7.631158217121325 3.680030214014818 3.825919644498337 -0.08790318887088731 0.5383758893471439 0.19637546014237794
Ni 7.644709942397225 3.5177620906144544 12.569467479080117 0.8165124300184131 0.4374989139244078 0.6251904731395427
Ni 7.9203189462405295 8.822127952058853 7.113098089884628 -0.32885515007205945 -0.37217001080961065 -0.6745924206114382
Ni 7.084487586228428 0.8467974992780573 0.5556207363119361 -0.2946178261557442 -1.2435076161980196 -0.07271979626222959
Ni 1.743308765929149 6.617373447949227 9.265101215085059 0.1404493383987194 -0.14164747247187864 -0.8695931118934765
Ni 0.08619493949167563 4.763318428097605 1.3806622470133052 0.07393721360909848 0.31160793295583755 -0.0015953695115778976
Ni 6.458016368937684 1.8161752807548734 6.888608652800883 -0.05378130748651382 1.1849196313514818 0.4782326441983441
Ni 3.692623645175145 4.60165601890237 0.28830730492571355 -0.7098728410802871 -0.40637159639198406 1.398177211961179
Ni 5.996633914330878 5.626488291935141 4.7583976782192385 0.05691162558537941 -0.9000226320279273 1.3400013749513955
Ni 5.006942105705996 2.986930434160104 9.706034938936988 1.109263635279064 -1.2107587039017729 -0.9272501002853126
P 0.3157705677963818 5.565392521812033 12.462634862163608 0.9542875640190789 -0.5826284314076159 1.3637398562189158
P 4.224784256676566 6.5013836979226705 12.612589810229895 -0.19405272554647224 -0.49055851275354867 -0.2646081671675314
P 2.7246109807874954 8.626626911971222 1.5324560349202339 -0.8081907975265953 -0.856331361787564 -0.2666452522022182
P 6.204511413326252 7.749380973247378 6.0061472435555805 0.05310587868604402 0.038202993432282596 -0.8589598005493466
P 4.430347384977723 1.1829146400603912 12.572166975522668 0.7448588702371688 -0.8795216838610982 0.6440790825139294
P 3.780461245429083 6.129637905164136 8.158257046780198 1.1910409137578715 0.8956445575648898 -0.5340662062281963
P 4.87864822085589 1.0862444610242286 3.900255242284258 -0.2993694819081167 -1.1745519149639128 -1.0347073000287277
P 0.2021620882419215 5.814395303182372 3.5035693931423824 0.10372370084291169 -0.8285349084005859 0.5730248468795809
Ni 1.4791179268780141 1.2382244834479574 2.50067211079468 0.6657689087825372 -0.9305441976555523 1.366419459933608
Ni 2.0853564816154133 6.220657765122621 4.952374488232473 -2.1375848292757897 0.6344058210902235 -0.9978572210799137
Ni 5.9240747768629785 5.515624511375853 9.164964000262835 -0.7167058048417205 0.4614518251955795 0.8969421933303907
Ni 8.529305816177311 2.307219650391853 10.13131501881612 0.22482908749738054 0.07779592523355634 0.9719039915492617
Ni 2.301469885698409 5.043447687203053 7.080045079356796 -1.0547765599747772 0.450349801745147 0.270417831870773
Ni 0.5468993558091598 9.036062593105495 8.935632465742282 -0.02121160108060863 0.06767297786694151 -0.15143591931721018
Ni 1.4948032126376458 1.1440404448059724 11.382689828872701 -1.1967377070323326 0.7229309598158259 -0.03626361031772464
Ni 4.204298459828539 6.68736508042823 1.938337891367411 0.5246551973269417 1.383926615579436 -1.4994406241890563
Ni 5.577994993482884 7.942721331319704 8.05966756735973 -0.9526029772278046 -0.20867098968027933 0.21133850921011343
Ni 5.29934837810342 2.9927886849798395 4.727885051148729 0.9816147910791225 -0.259950613790862 0.47235921613670256
Ni 0.6010746151259284 7.152119645460593 6.884453634163923 0.32295858208196637 0.7221339178358273 0.08747072931915903
Ni 4.745879283296263 4.508213302123376 7.006860338560616 1.365449382710855 0.16462362165207778 0.12145222847092631
Ni 8.141151496817201 7.232941809547687 9.27100286035531 0.055579537037517175 -0.5833491116237244 0.14655236597266375
Ni 4.392865428344043 0.6550310940880092 10.444377049659426 0.40464690039139345 -1.5769539851851873 0.22791106885681395
Ni 7.98308721081063 7.145538153798914 4.906963099817946 0.35828605373866684 -0.04898799986292853 -0.25751372221459523
Ni 7.2998235064063355 6.209736828409287 7.278137129760684 -0.6457125043522944 -1.0149802539134456 -1.207348135558327
Ni 2.3361673650906085 5.287658997995521 2.5797187186148047 -0.08029529461664235 -0.7304241828690775 0.3795696457077915
Ni 2.5668540721387494 5.440841408318979 11.473697936167504 -0.536908817883314 0.1289639634669392 0.2029849950390956
Ni 1.0400564927556644 3.506678424711683 3.7871376624512663 -0.4900417210181302 0.2466454120415236 -0.9277712628961055
Ni 3.9242144032757142 2.3919925175780588 2.382791085966443 -0.6968777143721998 0.26337326631916574 -0.2905169166134932
Ni 0.9736991455074239 3.36579110870125 8.235821010874341 0.23730922224226222 -0.6194754250326363 -0.12540555669171952
Ni 3.438259841063906 2.4663507166402905 6.925617790734144 0.2801054914721821 1.0769343270187388 0.3680714152602048
Ni 3.9868018576353283 7.013302606360221 6.019537143693097 1.867463445599513 -0.18500527063222333 0.2940010185073517
Ni 0.9348701528056266 7.3616425173713855 11.403384461513836 -0.4254111295219383 -0.32002083960988115 0.2004267473936161
P 0.13212796536345495 5.475104943206015 8.192752018736655 0.2604067274916741 0.16702888865946072 -0.5309472009832404
P 8.518547608653414 1.607746310617519 8.030147588344787 -0.6591565456723423 1.324476539842919 -0.493604498668724
P 1.7716778879543507 3.1823410691424905 10.360897879529245 -1.1665380435205006 0.20710621629632076 -0.7560925341694592
P 3.9748774242537985 6.025003036356079 3.9774892277442637 0.8062182471812567 0.6184449268855929 -0.5404901074766691
P 6.804656663970284 3.855786779117413 10.619432071145336 0.10456239469412314 0.14025110634498428 -1.1153774614862857
P 6.269060658469635 7.6982568862325556 10.244988590046354 -0.16357229756942795 -0.1077240802515564 -0.17251356592311579
P 2.1477450447434934 8.290988918246676 5.816788326318149 0.24747793524514797 0.8066039126554496 -0.2808243719160776
P 6.810858454189941 3.9407585375351526 1.6384415560006187 1.050777466117713 0.6583119382838598 -0.4309883664993997
Ni 5.4209884472076535 2.892619828370779 0.2878173092552974 -0.3299661237480511 0.033576036183232495 0.42346866108358683
Ni 1.418926207807335 1.2351326288486524 6.622889967471145 0.21752278364395441 -1.271770467698455 1.0721870421417405
Ni 6.577920660021253 0.7856529103981186 9.290347744775174 1.2357205160534332 -0.10913921543152817 -0.062187786382654195
Ni 2.747365945777117 1.467763045659514 9.09434676445555 -0.9360193618375106 1.2489979498886297 -0.8287819914143855
Ni 6.501220968733234 1.9705781599991106 2.53524663924375 -0.8142881686735847 -0.07723233942060248 0.37018383361751733
Ni 4.045962958506239 7.102559566766471 10.012586898151758 0.5718681075673183 0.6165577371652091 1.450385518533618
Ni 8.217236433389571 7.206896098727227 0.32262689097799835 -0.5078710358900673 -0.6506973591613955 0.1908522163313036
Ni 7.609840693305063 3.9065673267323127 8.433660831034603 -0.7895688115500338 -0.5464594376862266 -0.6590930394242585
Ni 2.9662638271015918 8.342637354871906 12.276703202465933 1.2888708748241675 -0.2997147810626774 0.3252736033683882
Ni 9.371212399261731 4.967028251741285 10.30670092298722 0.6450630436937536 -1.666059679004608 -0.17246008697736104
Ni 8.594551180631065 2.266446947927335 5.773282677522141 -0.565231318977091 1.0890385664814406 -0.5680855005964346
Ni 3.3553764405772757 2.7100738398644473 11.61638792997648 1.4493848451832458 1.431848121851063 0.098033849546986
Ni 1.2367960827851208 3.4757870002502065 12.596235526691467 -0.5129481933026586 0.5332331688039397 0.12266836026621455
Ni 2.9141814459711948 8.243264063188983 7.832717303311275 0.24983486551309875 0.8989929052118323 0.7651196773687339
Ni 5.6723146397827335 7.7103169272719505 3.754243764908661 -0.6614767091650866 0.909617474805214 -0.6405415016743162
Ni 3.219714539649878 8.530517244587564 3.8359763084055505 -0.030715683916301938 -0.15026915270261862 -0.1226843011058145
Ni 3.342647401759084 4.404997793467632 9.344147822905184 -1.0012577621210303 0.02879609829608589 -0.07386830804437601
Ni 7.559494090195329 5.873194783632312 11.412672682026486 -1.9772053276120465 0.8569283719416144 -0.48163678478388666
Ni 0.7469974954983875 -0.2611016966049874 0.17765236015953664 0.40805644029357463 0.9915431059364278 0.6730777837391246
Ni 4.789490706065406 0.3625958920569079 1.464193852104527 -0.31841904234039997 -0.5613988326048783 0.12414391637047653
Ni 6.307175450840013 5.659242061564619 0.23392411386688652 -1.4443133441976095 0.28318438750782193 0.5189524905152095
Ni 8.077533424257819 8.657165756522252 11.258894502059476 -0.7851439430094607 0.9782093649419994 0.1931114446791255
Ni 0.030221522631627123 5.0654522898191585 5.7919124575595315 -0.4765138617350246 -1.3662063154815374 -0.3743765315426262
Ni 7.99948669690168 8.254429093686474 2.6519108113554175 -0.8673613943494805 1.2164650102579309 -0.10632205769770721
P 8.450635293594997 1.3678382828346092 3.1951776900359206 0.10593973465762399 0.41175805751487793 1.191948256063489
P 2.0553148651432194 3.3165022453228565 1.6222201679668966 -0.5658008183273159 0.03484281871079806 -0.4376660356298914
P 4.800863668304956 1.155666541340201 8.135180239615913 -0.9464241021106023 0.0011089167934626063 0.252356603493688
P 8.612758768826971 1.4126792150350551 12.466855876527395 0.27774239055664424 0.7816883803606925 -1.0436382839697702
P 6.280026797735591 7.845906504115153 1.2758113100037185 0.7851706824823381 -1.4871957453834324 0.71852023234264
P 1.627807203470904 3.3655289338960457 5.846625627252495 -0.6690277820394671 -0.968483910124119 0.6561157019634895
P 6.7693625108834805 3.9804282977157084 6.094124971722645 0.8935308536559966 -0.07809545875184615 0.14732781068610756
P 2.2090125845665622 8.667878761493528 10.137970642664097 2.0564420990571874 -1.7011007297691412 -0.43624755801580994
