# total energy = -340869.741887052 ev
CRYSTAL
PRIMVEC
9.16434315319284 0.00000000000000 0.00000000000000
0.00000000000000 9.16434315319284 0.00000000000000
0.00000000000000 0.00000000000000 13.41294255069985
PRIMCOORD
 96 1
Ni 1.9457550371197079 4.728003836064487 10.465233725451439 1.0723441365448954 0.3456225993383854 -0.43561943751350785
Ni 7.6464164475052625 2.0758612187057652 4.348315013080048 0.9672076145148569 -0.061709046974022755 -1.127019416600588
Ni 7.746573555243096 7.4597112818045686 5.382023609482539 -1.675074995129341 -0.8915156229981808 -0.4092864560459338
Ni 6.198862604268967 1.7119543112886526 5.999341104487264 -2.7781754390204867 -0.6879688419183442 1.042783906389275
Ni 7.377589601647306 5.849334551462585 0.516772735546029 -0.45728252430923827 -0.8834747549715752 -1.1292678463151327
Ni 4.083319779148635 6.80134486036748 2.039572252174493 -0.8113979916099833 -0.9805169300292534 0.2544674791891037
Ni 4.533765580185324 7.631927620775139 7.987594867146676 -1.112704799750129 0.7262877921032008 1.241708615316068
Ni 5.456092581197197 5.521663457385705 11.741019366103691 -0.030961738488836998 0.5040760876240092 -0.4761526217408638
Ni 0.9855151479468492 6.2529139009509835 3.4875128306973218 0.05972466955414231 -0.11136964742394367 -1.4888623344525778
Ni 6.062863749952064 7.764306559495333 0.9017603818165898 -0.2210534225050322 -1.61750465291404 -0.4949113904056057
Ni 0.5205521107158599 1.3402302190513031 7.866060095833032 0.7963025307294415 -0.09412885806562499 1.6179643661592777
Ni 2.8410288967607245 0.9660684115007259 2.8949289817785733 -0.3267383608393728 0.5032769887614815 1.5557619244886047
Ni 0.870484311061015 4.410642628180769 7.8333598861313085 -0.5074401190002358 0.19476235001898717 1.1994952151728115
Ni 0.9606339559340195 2.6770879597745316 3.1396343596818443 -0.8937018320162221 -0.16136192018167048 0.31431967546004574
Ni 1.2491733041933004 1.2672637178335677 10.680646196485537 -0.25458472149325834 -0.9028444177474385 -0.9728948947076211
Ni 4.63164993078902 2.795702054883945 13.31076323119835 -0.8993610871845286 0.6671647606887994 -0.9437529830363425
Ni 4.019123554452548 2.5577132241726455 8.290325200979389 -1.1049272126872391 0.06721043640822619 1.2616488058834208
Ni 7.492024756219758 5.9488318264840565 11.05923988044768 1.544076003510244 0.19155155639117333 1.5596941696634752
Ni 1.883391681080184 2.583382549707797 0.9629177102800958 0.8602229835324862 0.8664021157600047 -0.5835447725742982
Ni 7.939666268211908 0.4128637456682131 11.264524835719943 -1.77013202143619 -1.1364756769174813 0.19240336286850734
Ni 5.8433135779257785 7.506238652651396 3.4408626576505044 0.23488621462306644 0.9039453641211014 0.10255050647041694
Ni 5.729941487174132 1.2187751775242186 9.254313306554916 -1.7179805362436156 -1.791395558800657 0.9330916466677545
Ni 7.782827697269893 1.5606510036894554 9.212518402579333 3.1001096936029966 -0.006348567925847131 0.2957822787774906
Ni 3.319444273496551 5.324565926402304 8.374491446123047 -0.7954638368782301 -0.7010341597427346 -0.9705289655786059
P 8.116180684182115 4.199991033482092 12.79457884649108 0.4302334906112461 -0.18318184427023934 -0.49937971058960445
P 6.635406096545634 7.709888689082006 12.141864991990829 0.45641477699230426 0.5953715900058972 -0.27836459752167547
P 8.063650668485046 1.908941870152659 2.232798764555234 0.8927723782234174 0.28121852203070274 -0.6185997072959024
P 4.978886897774701 3.823455661021267 6.984628976720701 -0.34769927936175604 2.1706638712179456 -0.7156735069224642
P 1.6975754566779235 6.724217747299348 7.358514937538464 0.7658598979688681 0.28134270631339287 0.24045522407041167
P 4.638743132489916 0.583966616929922 7.484891231408418 -0.7022474633245455 -0.3121002992112238 -1.1227159041292278
P 6.647191442007328 0.09665082999783008 4.529027614708111 0.025186526567956623 -0.29939236472625214 -0.5088724805713881
P 7.9609367089713095 2.3177815526853904 6.867064198917169 1.5423903882777048 1.148291695715803 0.8834156195988656
Ni 5.592201407633494 3.933244493549334 4.97980974714328 0.6904003341779722 0.6028730405892649 -0.6458803973887264
Ni 1.1740165249309735 0.2562836092067736 1.4187402315208102 -2.808853327720317 -0.479626182111761 0.20006087941376513
Ni 1.5760287717180108 6.600068388847118 0.9000970535107596 0.41465954743238914 0.4420070862074065 0.6274743840777128
Ni 0.27910190754664294 5.857554967387265 5.732758606299268 -2.3172776865561637 -3.0171839033420427 0.4924531586731003
Ni 6.878921026256469 3.9266370020424275 2.6844533424709267 -0.050499037190816255 0.07573852848389537 0.9722066103913448
Ni 0.13826153067343006 3.291822942842161 10.339769283738127 0.7689310806950242 -0.4497144821539933 -0.04199202816106962
Ni 2.648486044388881 8.551780249100654 11.400612584166689 -1.140297878877049 0.6468085656299506 1.2348337425731055
Ni 6.935391709565145 7.744044196497039 9.760947529127174 -0.7130949475620106 0.5846603742359802 -0.9611146142432414
Ni 4.719004450960768 6.035169104551412 6.288523789644999 -0.4543941470178497 -3.491924732337044 0.7047206074553863
Ni 6.205021042955017 0.45538996423776584 2.108500943741822 -0.4618621732601207 1.6869712323462946 1.803984708319577
Ni 8.566672306935219 0.23856251860080344 6.327086429744735 0.80877623771642 0.6057269650982924 -2.2729228145898728
Ni 7.839325873608417 0.45447719564679795 0.40471297875248163 0.31290376894912564 -1.5218835265736048 0.902893011597187
Ni 3.753183476728678 7.137932860458535 12.983849111876632 1.7577243918004566 -0.36156729559309986 -0.5487047820769776
Ni 2.1506972459531934 2.5110667168631418 6.741278088754628 1.0018879395058617 0.3574432461223973 0.606829968354484
Ni 5.221127983769224 0.3948585604204758 13.06364304884006 0.5260569627704746 1.1381355811184077 1.0166203606200297
Ni 2.5575757590234036 2.8832306975780657 11.953172080232093 -1.337693295643509 -1.143458535993218 -0.14209664419415527
Ni 7.092990920999633 3.729621950148573 10.490892970208979 -2.082556536756052 -0.7848742342878418 1.2113729404470042
Ni 4.95080734995617 8.646796160256828 11.055685031688279 0.7215183957390154 -0.2982322829798799 -1.519844641766705
Ni 3.2740349525302266 0.30487112442357706 9.23675625769371 2.2231434291739007 1.9104726021711875 0.011239577469561288
Ni 1.1803765791692438 4.669132094815714 12.75856572669262 -3.0756248210877546 -1.8224783962483904 1.2822315151307788
Ni 7.7707674215097144 6.4032091307890715 2.7047202876408614 0.08272935797943172 0.08186855264103321 0.7994675587209845
Ni 1.6277981469226062 8.15989460164112 9.210385859897423 0.8121186718260917 -0.0780203825395366 -1.794789157863238
Ni 6.819380287948051 2.6873795172811277 0.5651018162822571 0.6466087909143187 0.21259860686945967 0.09111166850585599
Ni 3.633863727186488 6.99097345157539 10.048600685391007 0.04603920164724974 -1.4500703012860445 0.8983688984745882
P 2.0588338688863037 4.721607124453086 1.9595638695782465 -1.0958967270538544 -0.42826119737622376 -2.897812468659545
P 1.9415211105230494 6.464958475828647 12.116166340557172 -0.3285435323689116 1.7289154379885643 -1.7255606625837183
P 6.40555520266947 6.898303612299612 7.3455043193798595 2.402076782580431 -0.15129296598144268 -0.3092736283957061
P 8.423442785768177 5.01762457683114 9.373111604964315 -0.4874834733726508 -0.6441333327906326 -2.1877635070127095
P 1.8239884079210082 0.9773313893952997 12.79899239421608 -0.30877354883083596 -0.1996279056414046 0.14140553166440162
P 4.3115027625473274 1.7136130574228412 1.6217185215887897 1.0028263921597311 -0.3825570104708895 0.20173389624081386
P 2.5366352346221817 2.4292841174073425 4.685315408618829 0.23403569369731306 2.0621741164449583 -1.6699119628711627
P 6.242099975877267 1.972359125669706 11.853822351137476 0.25349431664255695 0.08856961881029263 -0.45268256364338166
Ni 5.687079853640428 5.484236279418707 8.820377986376538 0.5465121453010331 -0.502404099238225 0.6419239838441396
Ni 8.676781891478186 2.09645349806224 12.492144520946402 1.8284850074537866 2.1377977166175444 0.006819594024994706
Ni 2.2027140584264244 4.979546730491063 6.001500223764695 2.6657881489653055 -1.3246138367517317 0.5229194455827575
Ni 3.781492133129279 0.9601940674564445 5.399782273895969 -0.2992213863660266 -1.1704970281682485 1.77365057611241
Ni 4.992752549161593 8.133638758135868 5.729365049981644 1.110237826266875 1.733953257522788 -1.1442656052755453
Ni 8.748465384636326 8.588941661112449 3.366527919980645 -0.3086614487330039 0.6556523891738256 -0.23169110472453644
Ni 6.481280171215332 3.173007232180526 8.257704721064226 0.4217503928408995 0.482449253382853 -0.40688761679645413
Ni 0.27471860215447474 3.3314495631970327 5.548277626713314 -0.7205912559390558 0.6278783043843509 -0.3767429748922737
Ni 0.13470026687372996 8.067527185693676 12.55574872906642 1.1789335889713761 -0.6236601525379453 -0.5854975254252949
Ni 9.073515476534324 4.482921803652292 1.8626820981296894 0.20424637825002243 -0.33435859638879195 -1.2430065081918853
Ni 4.963206706417813 1.9998154981450056 3.8155395012935753 0.7630136867693246 0.1637810711461244 -1.7383279895517156
Ni 2.305281388447637 8.983897363571723 7.026973741293253 0.46689870724276367 -0.5544254866108387 -0.5928267120968564
Ni 1.0811725631328226 0.930226664921655 5.054962860668294 0.3365887712708913 -0.20620735863113518 -1.1563284499773505
Ni 8.76768301250038 7.5272066700824665 7.810450860792939 -0.09621068029531818 -1.3573113269847528 -0.5894660231547396
Ni 6.833062652469286 9.009896605465055 7.444437987289437 -2.6484545427828645 -0.6502255617312995 1.9122734028253519
Ni 0.5316492139970148 6.546466144985961 10.047595356932883 -0.7999810080222931 -0.7501715406993338 1.6879523653126414
Ni 4.432756188522189 3.983300136560043 2.2815686502033654 0.9003175375605269 0.12829727641721775 -1.838325904803608
Ni 4.219007045793923 1.8729809871109118 10.861466020930008 0.5928297974206499 0.3507267533341702 0.36576950659990554
Ni 2.7985888230180302 4.469908436190702 3.747656461294815 0.5997581491093671 -0.297852531042958 3.6500676313607845
Ni 3.414945894846717 4.753004164539994 12.755681707861521 0.5106917931683139 0.9231059962099523 -0.15123665882221052
Ni 7.710557686141651 4.835849827816598 6.920689353636533 -0.9953020587582276 0.17603057793743876 0.5813919878973535
Ni 1.0090858388702373 7.692678052396888 5.320632590265322 0.24497162388352653 5.075466140931762 0.2550449489591285
Ni 3.2345274686380314 8.915705485204331 0.8030732347413193 1.1699750942265077 0.657348803039642 0.5072382874020748
Ni 2.9596796492432693 6.8283063583055075 4.753653916478745 1.8949387682016463 0.08761676797872008 -0.33585394998739576
P 4.848927345681169 5.79358785127325 4.190324484187383 -0.4713114915984786 -0.3935687882003609 -1.5618310135008198
P 1.8734758616481835 2.786491889884721 8.97426472234716 0.17927993811267187 -0.2753651485737193 0.8005893310302535
P 5.113731044837971 5.471763608210803 0.38277170806477734 0.33579738571784745 -0.18299646773231065 2.845040576274152
P 8.881055103252026 8.703422637401314 9.573273692341488 -1.038470880836218 1.644508949417026 0.30405428897829573
P 8.009800987355254 4.9390036758079106 4.364840156887611 -0.10558440820073431 -0.46526322852186963 0.055385932969472355
P 4.189213765781507 4.631356671803971 10.343095940349786 -0.9392797777563373 -0.535073307336472 -0.34864673087668985
P 8.803625566855562 7.572386882466721 1.148820079509215 -0.9334991665188181 0.832328056894431 1.2383715805230349
P 2.431236122526581 8.061002173276314 3.08291165693289 -0.978330978121528 -0.1978690139687689 -0.7963130722524028
