# total energy = -340864.5682987485 ev
CRYSTAL
PRIMVEC
9.26349715796642 0.00000000000000 0.00000000000000

0.00000000000000 9.26349715796642 0.00000000000000

0.00000000000000 0.00000000000000 13.55806445932646

PRIMCOORD
 96 1
Ni 9.045045538940345 6.349914361365943 5.660383158331293 0.2740672556979022 0.10151126657262517 0.7329029834268732
Ni 7.900355173495568 6.0389017019061795 9.047500365733603 -1.1975116090838795 0.34592547529078493 0.37353835191204704
Ni 8.648382583139218 5.649232686591503 11.790011553117347 -0.8006690352282533 -0.6780132733675291 0.8284451769002572
Ni 4.734304845498324 2.42146893936149 7.571202733558231 2.017599672268693 -0.46206477618923003 -0.06838645899419835
Ni 5.36866914286547 1.9371825622870584 13.240954993092169 1.5805609858101555 -0.9933978997569796 -0.5783362317901652
Ni 8.810345570510234 7.500755689039864 3.6274604984077143 -1.3648731984924105 -0.8338126118597574 -0.6373196523029088
Ni 6.378631203098393 6.481826563388551 5.048358711132526 0.06875721207005578 -0.02002683674388809 -0.08698993302799857
Ni 4.553990869910538 3.236137948819089 1.2464174614076469 1.3612793104935654 1.6871437533684168 2.540122910854296
Ni 3.117426230496075 1.5238175207944447 0.7159488447290365 0.07629877186273955 -0.41989817012350905 -1.664965931719797
Ni 4.353352781174045 8.19100666581729 3.5036890578413895 0.8015846050639872 -0.37157557175872136 0.8239830273638454
Ni 1.3523501851597208 7.382516409080836 11.378199073777752 1.71581052517549 -1.1497718798057552 0.8158141183998079
Ni 1.5013535397618025 4.473352125626353 11.515108006261809 -1.0275853442719658 2.3694327712931647 -0.36913405219676426
Ni 5.05341380162717 5.497116796885517 7.571813198032478 -0.361043561879146 -0.18105374218364303 -0.8461734474179556
Ni 6.092055649603211 4.23466885334303 12.613366017674412 -0.8247705562621472 0.022274752237800347 0.22078499933499393
Ni 7.210845276504784 0.6934237246139964 12.13757241495492 0.38965634051983217 -0.3933358462539484 1.09927078573241
Ni 0.7909822467769944 7.626100071453341 8.424669122546103 -0.03813434497787625 0.007455170726464581 0.3752242242549022
Ni 8.583788216235872 7.677716278593087 10.622865543787528 -2.01037487238548 2.233645871367121 0.08668731418591522
Ni 1.4033550014754845 5.097572893413812 1.865887907762719 -0.5464458108394717 0.40271188815220965 0.12132187354064913
Ni 0.8489652556337436 0.5806990046173316 1.2893028223109941 -0.6778399810144584 -1.4773070255148106 -0.6777186249452457
Ni 5.845739255517457 6.693256626518044 1.934423892781277 0.22560453221082438 0.6837820575305062 0.9393610246162338
Ni 6.146571331408199 4.085526546280953 8.95380009020982 -1.876982955054174 1.326166268840516 3.1531728919765634
Ni 0.4461439268056053 5.184668295339131 7.792619773162483 -0.11728292758458511 0.6482836075135803 -1.912321225344152
Ni 4.059533172764419 1.1925178021753053 3.075117985476577 -2.0766964784308493 -1.1715948892181176 -0.35753914827031325
Ni 5.867573318731451 2.2270559208328056 10.604087508343707 1.3440925143016336 -0.4415314321225687 0.08105788381427975
P 6.615026391540452 8.57575676404812 3.4057451741893363 -0.6562861661030827 -0.26345888405443657 -0.571229702652371
P 4.961844130489989 2.8930735885869785 3.5667882962751816 1.5482874704884302 2.572882107563188 0.4577134411990698
P 1.290590448440288 2.1397659854634914 10.09774844951822 -0.579235346565667 1.0323562832980477 -1.2422277210443315
P 3.8126980228280143 0.2674019667152386 5.919912078663175 -0.07525258998641234 0.689577838276677 0.7053767529821464
P 2.953981083551771 7.940512434434333 8.799807415944159 0.6955258283299957 -0.3358115267852345 0.0834631508216627
P 3.1087555969923417 8.952456883096529 1.6926160428475172 -1.9541628439702863 -0.22052763190854924 1.1478867469679006
P 0.329026456373609 8.715255770386493 6.607373816393621 -0.10907108119775409 -0.8283976114917733 -1.6393716281904607
P 7.299848958880713 4.008630254919319 10.856240832099013 -0.8062020492313405 0.4214696283756871 0.6824270861645085
Ni 4.809228011928018 8.870891789079037 0.6277260751782845 1.6965210808182587 -0.19093526296341312 -0.9989250002227956
Ni 7.184620315554926 3.770789960893304 1.0275914220074471 0.296189027297606 -1.6239434665608485 1.0990041623345845
Ni 5.491679123951018 1.2381590535352345 5.191843800373311 0.4596980757292663 0.40047554262252316 -0.836778636466617
Ni 7.736817391577934 8.714987128963834 1.1252935283791075 -0.9902624394517914 -0.5591542595450757 -0.6977596027565209
Ni 6.186839754314962 0.5551595424701175 7.891702140636768 -0.02419356652706801 -1.0029356640440856 -1.2201530006324794
Ni 2.6935008020437863 3.9602192178568085 0.1959711387801032 1.07410508510006 0.29973355011575475 -0.9376180737831981
Ni 6.160781536317096 6.990346249486236 13.244250019093533 1.455953499539699 -0.11953547106418767 -0.16544971709779893
Ni 4.428350055582404 5.592651244881244 3.525083104932065 0.4633621548444149 -0.8823609530821063 0.43172344489321135
Ni 1.8412775743980094 0.03810539627949414 10.203853474320688 -0.4395305996424559 0.7791928676323484 -1.1302453797370535
Ni 8.615098837221575 3.5589430403838223 9.224066330300436 0.7928140579602089 -1.0554180502135178 0.25941531011268226
Ni 8.293627689272801 0.5377182296914541 2.950234925230286 1.4813842809079778 0.16935985078548252 0.6196237776850426
Ni -0.04676398723669438 0.9869330058629648 4.956679730726814 1.777215667755849 -0.8826867118526411 1.0439439881356474
Ni 9.06849145069029 0.9141774978092035 8.050128324726026 0.00628660433966014 0.17367930409644283 -0.9927468964365419
Ni 2.5290088799008474 7.996065627940623 5.376911802792416 -1.3555596344009686 -0.8014221113441939 -0.2799918487124533
Ni 4.238967116105564 0.37578210646270366 9.779988258601065 0.29664694077063103 -0.5006896876502797 -1.3738100959707242
Ni 2.9019202285400394 6.874747066267127 2.0773939315703442 1.803300794878675 -1.211694585452481 -0.36160380525799013
Ni 5.459210565798684 6.08114324974488 11.23311417854755 0.43504145352285073 -1.1352124939343418 -1.9338516432167594
Ni 1.2471816999376235 2.6411990961013956 1.5095007856662184 -1.053392792253373 2.5651356308485505 1.3370906290625038
Ni 0.4932682640885552 4.145276104079114 3.68609843652591 -0.5847274800284897 -0.23542588917662036 0.7621613660713584
Ni 3.5349413187938947 5.851714211297273 9.528607510523333 0.9021759309255042 1.3337147706117354 0.6411351693942571
Ni 6.256899584644805 1.2335365683660433 2.036909669175723 -0.09878229767723631 1.0851906534902602 -0.21931252855452552
Ni 3.765972942280119 2.6722596026591066 9.614905325328278 -1.0284770028482997 1.419331477441291 0.39802502419950164
Ni 2.6175215969181242 6.124941065135532 7.032676726899334 0.5394835205890257 0.45004486891021844 2.0128238481466045
Ni 5.543397229561426 7.649138389320632 9.311041306760426 -0.5692651227268325 -2.487415296047935 -0.5234745467552792
P 4.472360931411716 5.634892792719945 0.46683024270003537 -0.16081941741463918 -0.9097038638714333 0.6891682615430841
P 8.132628105624422 1.6563596406356995 0.42123160342783844 -0.3316597094003901 -0.637453863887928 0.985259072699929
P 0.44299804311130203 4.467090001429212 13.591960023238169 -0.32832987369620875 -0.523150587756957 -0.3403317832530913
P 1.5743128447568908 1.8705687529651083 3.708279880889894 -1.1496081005343812 0.013792168688085922 -1.638616752302307
P 3.5541074947759714 4.1463043522830825 11.58491864851339 1.9507391630007178 -0.377843149934988 -0.9101864599348066
P 1.4795565305371399 6.212342162472844 3.7961765753345227 -0.8070854802775584 0.9154708482621976 -0.2529297023883386
P 0.703733997145679 5.8031734852721 9.928936958568881 -0.6894608530828384 1.0116316491561868 -0.2989305945984852
P 8.332321317632944 7.587406443093198 13.05924964020496 0.9894808240907604 -0.5721468151500018 -1.5312410565291048
Ni 4.491656796356456 7.755668608650687 7.112723533703937 -0.6032479074301804 2.341494907232316 0.5178661994295661
Ni 5.371642725509378 8.52944854088021 11.63816152578482 0.2158022014084219 1.3111515405992387 -0.2849489356074125
Ni 8.298416917393986 5.809518980945238 1.0500044538047575 -0.25407332907447855 1.2274680462366538 0.4075175370709691
Ni 1.974903523427231 4.811905162657268 5.3527377801520934 -0.01943445457552782 -0.7113039170998589 0.40987806688334566
Ni 3.828149536379539 1.6310332389271456 11.649211025403682 -0.18497621716650078 -0.6450491597366826 0.9757691309316227
Ni 8.137991670580256 2.6849320670107164 3.6550777630067315 -1.080101411892811 -0.6226965030730953 -1.0108330645142913
Ni 0.9396613789724194 7.534493346326826 1.125653878425363 -2.5310294331934604 0.2852266147488314 -0.5616456585083617
Ni 1.9701976667820427 4.277466211021713 9.149049602547677 0.6366251973390455 -1.9830432744500621 0.23570691075214892
Ni 1.9893545792667864 6.114464049651854 13.364266037841041 -0.11704355788026939 -0.1731414293151018 -0.5843158464123678
Ni 2.8888216433111094 3.702323452104744 3.342971084511935 0.18499935709495235 -0.4033582634869569 -0.8572937257008332
Ni 4.6441617529504295 3.9107336151036645 5.625688581769827 1.3360922697049764 1.5860572330380363 -1.9135360715878593
Ni 1.510089017746867 8.509893298010146 3.140834161906955 0.6769758332419502 1.3802941610331712 1.6601895933770765
Ni 7.222174533743104 8.663898941172073 5.468143356276943 1.1471064171584502 0.3810184623391761 1.2215449958839995
Ni 1.839610144878061 2.4686108772893727 12.178544863658994 -0.5001417855666096 -2.952075600878484 1.050186112390617
Ni 1.148886729736648 2.8669690531024488 7.454318703259026 -0.8160645438477172 0.35142532206309157 -1.4243934653452306
Ni 0.5100370469608392 0.32213070895888785 12.33074783023991 0.009910060024860353 -0.15116415371306224 0.3795436775658625
Ni 2.734278717303865 1.1569737629083992 7.774953357398627 0.002434063362789356 -1.468769934578077 -0.07759075120128572
Ni 7.4270182502688 4.676398723669438 7.20135297078761 0.5586660070547476 0.19069640747972963 -2.1665328797687073
Ni 8.42992152553394 1.1857739761168464 10.191068921651349 0.5108008079423526 0.1615930623558701 0.8074104677171449
Ni 3.8630821848224643 7.056005918582883 12.490896098483383 -1.046022982151863 0.9357295985112335 0.1794419176118329
Ni 7.56115369165134 2.066519512051079 6.1038138067680485 -1.9775575687451428 -2.418554982741112 0.6955931912328214
Ni 3.028950567468131 2.2012848712522652 5.226267882812651 -0.04631585234740411 -0.8414858121342992 0.6169724561051245
Ni 8.793912126241407 2.864310429367863 12.268381334445161 -1.1550601247878882 0.44258609863932813 -0.31948502171106913
Ni 6.848373889359938 4.1413205907179025 4.850912823577001 -0.6094416949457182 0.15625005287640187 -0.2332548496672305
P 8.790568003704175 3.5241400809035603 5.672829593347977 3.200961986435384 3.0789942517806197 -0.09333233030625862
P 4.217549910271557 6.533980053373612 5.43906153274957 -0.7921712821698873 -1.6945143348008753 -0.8291365465403269
P 6.966464953361638 2.545840654554996 8.04069159999285 1.229846316660843 -1.4979969497639942 -0.20945800435794895
P 6.567819609131238 7.1440091432468416 7.389118503630099 1.7525400193860396 -0.5923795972571089 -0.5391996708000197
P 6.607837917610006 9.264979492621578 9.867003994449322 1.050081211381637 1.3798311053538237 2.524664667317697
P 2.7900912887354807 9.02318368523435 12.221077285313951 0.1342817761354268 -0.0373874395095227 0.0880602832740419
P 3.1714972644290778 3.544427140062936 6.94831868843593 -3.311309620352717 1.6306419616269465 2.1166357378279486
P 6.953542374582035 5.124622305626312 2.9799133179859063 0.5889206921742309 0.14179711067586545 -1.0342830680071153
