# total energy = -340896.20240312046 ev
CRYSTAL
PRIMVEC
9.05439383798014 0.00000000000000 0.00000000000000

0.00000000000000 9.05439383798014 0.00000000000000

0.00000000000000 0.00000000000000 13.25202061404518

PRIMCOORD
 96 1
Ni 6.519426270042209 2.084620297836098 11.503536069548717 0.47429577103778314 -0.05455006733173831 0.4006107826488068
Ni 4.550928575480828 0.2070060832255923 6.075852412563218 0.22356719006582143 -0.1846028929874821 -0.30447980655148854
Ni 2.918086321542998 1.5718699646238383 4.846369830514957 -1.6816505914643296 -0.885421851395617 0.25063165038278123
Ni 3.312323691459915 4.058016419560959 4.830825246865675 -0.17158668323347223 1.4930401199793513 -0.34707270152135067
Ni 4.941996907491612 4.623626305047511 2.6078257398203903 0.4377074303907881 -0.40541643156756635 -0.4379308592555039
Ni 7.385180262815592 6.160799831796205 2.575039779082944 -1.1812324123078817 -0.48859856081370046 -0.7859906072804722
Ni 5.1273946793943885 4.42629484182964 11.458558367266678 0.1465927322922959 0.8081869408718533 0.14132737012829852
Ni 5.807062766319663 8.101491482329777 12.391036905873383 -0.8360332736601602 -0.43734181952125323 -0.6182747198563158
Ni 1.8223416663305438 6.6620239214241606 0.23488637328434547 0.8743098006428555 0.15109010594201722 0.5581353313622581
Ni 2.8449358722754394 1.6661171519522227 0.445830212468158 0.1809555260428819 -0.1889244031809714 -0.2774814235857737
Ni 0.47978419003386474 -0.06461668290604437 4.598743019408556 -0.28857239129261264 0.4407135642069636 -0.0732656414633706
Ni 8.686912381926666 2.4844351744678086 1.4765534533619844 -0.17233410292245802 0.2506738164746264 -0.2541630605748074
Ni 6.892575956292317 0.7592046002933912 5.071853215612107 -0.5422577409000532 -1.2959005279774392 -1.6904332227529661
Ni 0.5778143031827698 7.337182920128708 2.2561168586037734 0.39216933674967297 0.2846090357694905 0.6081602571301333
Ni 7.751330902490156 3.779584749128145 3.6221487568302795 -0.6223059525028959 -0.09832566975579195 0.2360774067176902
Ni 7.736807654486051 3.9615327969102463 12.796893779632985 0.047739472167808106 -0.6056616590779955 -0.6801079511130288
Ni 7.924296991406875 8.56183498296862 7.088585477983629 -0.3547608141942277 0.6926639334011683 -0.2464896031899497
Ni 6.946141751299976 0.6908765212795647 0.5962707799480863 0.15679769784975575 0.24971145256135704 -0.8538021676078069
Ni 1.8713259379653369 6.578180232821908 9.150519991608826 0.9067751202604124 -0.01591667123025646 0.8204331052290579
Ni 0.19410538262942723 4.941698112489034 1.3378845035442362 -0.044838239360613104 -0.3149130860696705 0.007618178666890105
Ni 6.425668019990771 1.9696566569956238 6.978792801566562 -0.05676687247739901 0.5056251772786841 1.1305099462523498
Ni 3.39549735490487 4.590170319152768 0.3083537263425174 0.8739742716803076 -1.2190751941872682 0.5719182440789634
Ni 5.97565558292592 5.514768818646025 4.732853081838483 -0.04091370749522631 0.0335976334497873 0.27802161235995987
Ni 5.117878511281973 2.8206429331264284 9.426003551349535 0.7573505749462763 -0.47954802057565804 -0.2708078682203401
P 0.24075452604710132 5.602976725164721 12.428977533125005 -0.45051280968557245 -0.3495838979789786 -0.7134423035991003
P 3.909297997823163 6.35997839139365 12.574180133665797 0.9856725060882637 0.7787447243513362 -0.6499597096644225
P 2.449602920682402 8.451380430348872 1.515554350153058 -0.28194434445313377 0.5959079221253415 -1.429040991419571
P 6.213912907102988 7.705579049519618 5.782135114150024 0.49829444794522565 -0.2884566916503548 0.47483775958418223
P 4.898001606960474 1.1245014106121032 12.571198521715827 -1.0489843787730322 -0.17174326341599455 1.3251499117608598
P 4.044679297173149 6.1903081018993085 8.107692836792378 -0.575882370933034 0.519767273107021 1.1387791282396773
P 4.821075475387608 0.7809985266935662 3.8734860586050606 0.17601823664226462 0.05770172558684257 -0.5750948420347322
P 0.13440251935669195 5.516760785329879 3.54214594217026 0.5516252981578823 0.6125414169169644 0.2755528391044932
Ni 1.5801818983319234 1.2725950791626899 2.440041480599899 -0.5758988259932663 -0.25466622546347106 1.1421182199152395
Ni 1.57997364726952 6.571697286705362 4.771496330065864 0.5992552413310196 -0.4009884777031998 0.3557548026763809
Ni 5.847436309243793 5.491888364963747 9.144331313297851 0.4865712459710266 -0.0281306967979451 0.0705227886109108
Ni 8.491581939786668 2.332375681337547 10.028903958597251 1.6074745223715476 0.5984399445185757 1.1843642730686441
Ni 2.340506527165282 5.212777614979619 7.038307333443733 -0.3623800213023824 -0.28678316060267384 -0.5515700194399146
Ni 0.4909183783572113 -0.1355958884882013 9.1972207450724 0.42264230852754947 1.0148442425562134 -0.06537158342727452
Ni 1.3328067993792099 1.2590587601064949 11.625374711766696 0.39414908618386313 0.014828837482716397 -1.7553232385581319
Ni 4.2967355178329205 6.82413379191387 1.4854720314692433 -0.8535689685510784 0.6087585528357644 -0.19177755635905036
Ni 5.718384031312055 7.912743584640517 8.08753594483057 0.23892438924818205 -0.375235794219128 -0.17152163432349168
Ni 5.045379978383676 2.6453408105531886 5.0155584262475665 1.8779530322769271 0.2620388637784584 -0.12750409109196104
Ni 0.9296599057490516 7.531426834986604 7.1347158046241 0.1647974282257807 -0.6062866942565043 -0.33692815688818106
Ni 4.872178475222502 4.600917884851565 6.900990204652801 0.8432323625117607 -0.49586398412686217 -0.24550332801728042
Ni 8.279093420983466 6.962041267194745 9.311837602622003 -0.5229253591200284 -0.014504621374078245 -0.4606689242829679
Ni 4.8458301886315125 0.5685842539213082 10.499986875980278 -0.9487944021149919 -1.2187170395169011 -0.6659913092059885
Ni 8.045643980029702 6.960900413548537 4.8163671904984975 0.3788373955274572 0.7639462258859231 0.4696577580451395
Ni 7.165692697436845 5.955455229872829 7.051479665860423 0.25272067170132606 0.45610881571611134 -0.44371866958187456
Ni 2.442468058196595 5.440767256340819 2.4224161972053913 -0.4676844363688526 -0.14761191758542966 0.9982562562905453
Ni 2.3977121885679846 5.236590671245701 11.438482059411625 -0.3531582455937982 0.41515062813619474 -0.9186153074284503
Ni 1.1677633052278225 3.6133279661784097 3.766290182392218 0.18387527079283816 -1.0711388033828841 -0.2804335642355622
Ni 3.7312976658327015 2.4569913062007 2.752908822360151 -0.08186032511091708 0.6415879406609596 -0.2530870539018093
Ni 1.1181090084357328 3.5217699338732293 8.344439888047322 0.38195048723514224 -1.0970938326857491 -0.7618314935357654
Ni 3.719146669061187 2.5904711828070064 7.275862942084443 -0.6162648885151386 0.30291786138100735 -0.8480791490811006
Ni 3.9860068239396074 6.793385069830366 6.006133578628299 -0.004996424773326879 1.0770592826323773 -0.5334478559179071
Ni 0.8906934156552446 7.494892355125903 11.395585056874813 -0.30097179339823005 -0.15820923348530172 -0.36704297399569047
P 0.2856932944348655 5.543706661926024 7.984726922519217 -0.692105232684221 0.10411965072974973 -0.2789677783233131
P 8.5692143140929 1.6285504711735246 7.989855331290741 -0.09103196430785612 -0.34635742062188085 -0.8426955161716843
P 1.881340097748716 3.2389106647658483 10.405659104545137 -0.6189000121451406 -0.4038987093714592 0.08364287093263659
P 3.92794099510524 6.007119602136807 3.9776731596858803 -1.0017097620567845 0.010373887035156328 -0.9877759255845118
P 6.916226033466084 3.8636910151569053 10.297919964691243 0.20701699901662413 1.125587312139752 0.1975136875118792
P 6.440435736633348 7.836741001257439 10.181063955501108 0.12976357655009912 -0.5288975175430634 0.8582987699265798
P 2.247599390151491 8.534418277883564 5.755816707059293 1.1500863257223806 -0.21426211061481165 0.012159518180669382
P 6.839091650830816 3.9984113437436126 1.5727500517223414 -0.14243654403207728 0.3944609609973271 0.05599708419091002
Ni 5.132772989440797 2.8212676863136372 0.6895256056921505 0.13980656260839794 0.44017388965340964 -0.7312240530625536
Ni 1.4137168643197848 1.0287693026648452 7.028408164464376 -0.23643967515311543 0.9344399331655328 -0.3883839015653118
Ni 6.992925805188512 0.7691291215759969 9.225195200828935 -1.3192926816491344 -0.7307232021667351 -0.5717891747002668
Ni 2.60335558549394 1.5123916503227373 9.106537367229313 0.12648413446787896 -0.3245644931165056 1.4634927453395377
Ni 6.318454940429295 1.882815963973572 2.614133030692996 0.6456194304178559 0.559278958048398 1.0155685223167479
Ni 4.265896251809242 6.86370149377044 10.45379045226348 -0.06273851667980163 0.7972870061298979 -0.19995726395636532
Ni 8.132846848812456 7.286079920293815 0.07373807943929585 0.12506642818474592 -0.03680714152602048 0.0632103141098976
Ni 7.704266162387077 3.8912344817582065 8.20301387525124 -0.13104012926967756 -0.3968338321048778 -0.4620822596907268
Ni 2.9792940251014453 8.629416979915403 12.391354715103398 1.2414720738252296 -0.6240103367885124 -0.23058938701992548
Ni 0.16710608510857897 4.803202101597021 10.2744373938068 -0.13344231095326695 -0.11890092280398232 0.4366144544369255
Ni 8.519324603056356 2.3982463978150186 5.7541072374687845 0.8660318769047796 -0.3734473348601375 -0.02768383906851361
Ni 3.5997463751521273 2.7726093728634753 11.628569101976078 -0.24424323035793422 -0.6732670169317954 -0.16462722119650355
Ni 1.2749311128192105 3.4403437684736558 12.678035843925574 -0.9879677298803436 0.24090259602047545 -0.0045829913849921074
Ni 3.3992639828161595 8.40352795796627 8.088278405140008 -1.4133006978661788 -0.6130273554144475 0.08589875684634884
Ni 5.453416244783297 7.511661092846354 3.525527507390501 0.4178950236505512 1.5384550577790408 0.3973269696912125
Ni 2.8942279933068282 8.220393784567873 3.5510645202775195 1.0971403696529685 0.08658575561104442 0.7386537698677215
Ni 3.4679325070450444 4.380380009766787 9.26349347664425 -0.5505683176482776 0.30959938716624097 -0.06116165911098499
Ni 7.15157689716353 5.917625971667622 11.308452812365397 0.5746775519916555 0.5528982513330348 -0.516328165518485
Ni 0.6368652500862436 0.0752764209828728 0.33096254820426935 -0.018608102019490532 -0.23542974583136228 0.498327100955374
Ni 4.6566024080593245 0.36667307820937534 1.587393723166879 -0.46868356705732833 -0.9408018708278184 0.07991837089319784
Ni 6.075308243482764 5.7224041822558345 0.10738511304780864 -0.6289010892219105 -0.12974789282081525 1.5339394292968744
Ni 8.098422042757836 -0.036711040544042166 11.294737216307656 -0.377703281923014 -0.07140493410554799 0.42455906593428816
Ni 0.03346413484935884 4.7254339113805255 5.817491617349044 0.10695969128170611 0.6032165399716127 0.29658112052970215
Ni 7.770616761747477 8.790268289636678 2.7874169288397304 -0.2815021147093926 -0.11556054557683967 -0.07159313885695412
P 8.599709513143914 1.671604114726841 3.5045901266643833 -0.25313616197218985 -0.5273859659945433 0.9678534756289717
P 1.9736224815752983 3.405792200902792 1.5204310467708952 -0.15063964866815993 -0.4565757280502008 1.0516308152569436
P 4.8488724650214 0.9945255844905777 8.183679122266224 0.2329082649610892 0.22613649345489442 0.5289702797625276
P 8.504131329894953 1.727777575211546 12.622019929896775 0.061742985535751735 0.3843619248901123 -0.4311783710230187
P 6.334580816174501 7.724158666043572 1.3126263659929573 0.29968315649379357 -0.09928006324926128 0.6634443744144187
P 1.7816783827978535 3.1677340733941093 6.0762236427179355 -0.37605340502441686 -0.3821438341928709 0.12904572454746807
P 6.789256266158376 3.918705513207368 5.870353885941542 0.7259746317381562 -0.47988586353105095 0.6768454783116731
P 2.454474184663829 8.52928443647563 10.164233647901336 -0.04503364320087083 0.5242908720089875 0.4589439711720612
