# total energy = -340874.4055396001 ev
CRYSTAL
PRIMVEC
9.20132353191442 0.00000000000000 0.00000000000000
0.00000000000000 9.20132353191442 0.00000000000000
0.00000000000000 0.00000000000000 13.46706707299313
PRIMCOORD
 96 1
Ni 5.21151906979704 2.6882954044015452 1.5404036458147052 -2.0396124290943582 -1.8032205764600429 0.15459220555800474
Ni 3.066368575194166 4.242408101718207 6.246227191418126 -0.29611909329161906 0.13175335328661825 0.4775703280239969
Ni 1.909909464534386 0.32378168312086436 7.541463419648193 4.693134101987485 0.877793902536714 0.5821890298773521
Ni 4.91000090839853 4.397073144134747 3.0213630629407433 0.116154984627729 1.4380673632878975 1.0039401940492
Ni 1.9243003340887597 3.7308237306481185 8.743466319971198 -1.0504622488701394 0.9414258775650625 -0.8615537865287679
Ni 8.456034464327669 0.4752639878271358 3.670327790712607 1.5861752466731391 -0.1449009464121698 0.5153547458616221
Ni 7.5252286049156245 1.6323699515110026 5.611767429608867 -1.307716803886077 0.4720195734090967 0.8500784388993167
Ni 2.8654852861205815 6.265668667301398 5.007674794903381 -0.2605522519306029 -0.6886170170253044 -1.4155666110822203
Ni 6.737751757682915 2.41569700196045 13.22346086905291 -0.3113053141137542 -1.4143322244544867 -0.4110299210996018
Ni 8.255068363344884 0.7032976213982197 10.762071936125002 0.36542446455566097 -1.6245803288138987 -1.1036933402801379
Ni 9.157524945840672 3.0135437784475805 6.870560896996829 0.5394976616564129 1.2314643118802404 -0.11041705370268726
Ni 7.285957395266053 6.419220349605353 7.239342571577169 1.3815365180807047 -0.10281995808171969 0.35434815213684134
Ni 5.364840719019884 6.265723875240864 11.083489799304358 -0.3635467879169739 -0.13901980504104444 0.28943345374132734
Ni 3.4396938631926317 5.331807968572185 12.919374618336867 0.008914528880810454 0.1907969376133359 -3.235952643577956
Ni 8.240300239537486 6.334374947967962 0.12344311238335405 0.42876873314026154 -1.8816903878321722 -0.7336054088105365
Ni 5.404406408971166 8.49371388301383 1.935526868579355 -1.4702699161623711 -0.5954744341323487 -0.1625356287747975
Ni 3.9431718684843298 0.6787034044980372 5.707666380859857 0.10624518171318477 1.0738708576020668 1.5042416451221254
Ni 8.284705825515369 7.108151024889636 3.489127972323624 2.203106050907051 0.7745247727327178 0.5493043633341895
Ni 7.394137352651454 9.0926648182903 12.88120844965107 0.4528483997972846 1.0527569584415868 0.7900256965817942
Ni 2.6760668458096255 5.666055236751325 10.112985750886311 -0.46256845529852597 -0.314768075851374 0.7451879714418134
Ni 4.971005681509462 0.20446076355103932 13.186184468324857 0.8272156753685301 0.27108760424428796 0.5525670932458613
Ni 0.005316524570663095 6.347937698430332 9.125270627339455 0.0068923562444590985 -1.0859223894499621 0.9811149686245683
Ni 1.7571030894132331 8.290548665775615 9.895560322883794 -1.7567751405133099 0.6411662797425086 -1.37696895331468
Ni 2.502382668246738 0.003203900753729474 13.213468232009403 0.7919051729926944 1.502172935518555 -0.7237370006568891
P 5.71015717906214 1.4859861000144998 11.596692683133151 -0.10149841105681875 -0.3539149212541647 -1.241150685930069
P 1.2747053156746486 5.584172661198659 7.162917300840806 0.31492259915136733 -2.316580146268507 0.1421588648906584
P 7.4026393753293585 4.889601574765509 11.702100281824993 -1.4750200292528468 0.9468043682681565 0.24895451979067446
P 3.838902473477833 7.613690126588097 9.792523905192057 0.7423407318010055 -0.1518228703429837 1.2508455446203297
P 3.214739912511477 3.682111925391818 0.7094330637376419 -0.16355250007508607 0.1623181134473527 2.498643560663587
P 5.142564353402874 5.397220175517225 6.746516018073287 -0.4417479190087489 -0.7021446191980939 0.47770248272648697
P 1.9297291148030054 2.2363816145719375 6.102371863549208 1.0405753287737303 -0.026583664025799376 0.5270987737714277
P 5.687061857718484 1.5529165252948796 7.283043336194523 1.0146629797833426 0.3858508507308129 -0.7016149719468691
Ni 3.315015933229868 5.883997779120183 1.5693307658307154 0.7820581049952854 0.5977056374557125 2.434847549253549
Ni 2.797818754980643 6.905712712187733 7.9736753361467105 1.871656657745254 -0.40623481370380365 0.05139018154651794
Ni 7.110865415246757 0.6780777145174124 1.8511967410436554 0.4005526757173618 0.8911392134953685 -1.123110311354169
Ni 7.720158637850027 2.8867955507548073 10.828693196944366 -0.48696231076185814 1.647302195891447 -0.19607695506535264
Ni 0.4579967846265363 8.509310125913233 12.239731758735568 -0.18834744763157885 -0.24705498877511645 -0.6382385645727524
Ni 0.828735580660978 3.8179510604501417 11.648406880164128 0.7355206235553784 1.306797377395601 -1.1097685999399403
Ni 6.8442110676215995 8.691303098365891 6.883636897459567 0.1252893428288294 1.4386062665105033 0.5161625864748981
Ni 3.6474321380833565 0.176278030585508 11.100364106002417 1.8280715740654516 0.3541674035846029 -0.274654752770256
Ni 4.498499330258698 9.115815347573424 8.239972672429984 -0.5608020795611438 0.173691645391617 -0.14738463206597197
Ni 0.6652575108408723 2.6679788826777235 4.28092484081962 0.4716596189665167 -0.7869187755216964 0.30065323371654673
Ni 2.677198608568697 1.601324686884112 9.562721777293381 -0.5247657547628769 -0.14761371735764253 -0.8327867416984045
Ni 6.9532743520384725 2.529922228717479 3.5488417997833546 0.2508846469338518 1.935537258449299 -1.1866731237074788
Ni 8.549510707168386 4.714307165634835 2.7021130315177873 -0.5980144269453831 0.32583976028450334 0.9643909710016682
Ni 5.333915071595172 2.112467394438466 9.51425380710306 0.27562148755889954 -0.26171799010392993 0.3575998263049196
Ni 1.3967240632197564 7.155022565497038 0.5079498483885178 -0.4643975380874647 -1.0933397649599557 0.33952548530171206
Ni 1.7604155657812475 1.5714571916325155 11.600732984169806 -1.0147200582735234 -0.23303836278105028 -0.5913555268679687
Ni 1.3680251360202098 8.335791572168747 4.268238976462449 0.05699750043096635 -0.4103673478149384 0.02938333825812359
Ni 0.7118079252670434 7.603936723948944 7.340103502030544 -1.7624701340155582 0.5133148326134579 -1.4244569715933144
Ni 7.651452357183461 1.707029488316749 8.513839017214169 -0.23075625161509292 0.6377688240251855 -0.018330679988387784
Ni 3.8933467031154465 2.2493554803466607 12.802911629766779 -0.6400753606711751 0.06105881498453356 -0.7983049058714509
Ni 6.8281823625297084 4.055796064996819 7.1942413655620046 -0.04264303148150721 -1.3250488674066212 -0.4846920266704427
Ni 1.3741900225940142 2.389896491582916 0.23973403620877035 1.098972537765701 0.8399470068922696 0.7347035269707218
Ni 6.592334045127083 6.436408421426051 2.280068577204425 -1.0619705066200549 -1.1394797538511279 -0.8506098859227544
Ni 2.4454816853028456 3.948481031996397 3.2582492896053457 -0.025836758557445827 1.4030252840820998 -0.303706932941206
P 1.6554560715314137 1.0992176787558419 3.017579478822611 -0.527243526879408 -0.38796866840476407 -0.21402788311681847
P 3.015604874854345 3.4194601533780102 10.767336933285495 0.2866283801923644 0.2777591027271926 0.06074642595043731
P 1.1714296635785557 6.054590312072924 3.0781674319905674 1.049525338878167 0.703786268566575 0.03452451613943086
P 2.757829804160114 8.04419243722779 6.1181696154276635 -0.45841098148672665 1.6443094318117102 -0.385831053236471
P 4.716690308355157 6.583730807893491 3.5442899051743084 1.6914799188499257 -3.6840018222143844 -1.1182874360442288
P 5.603541446628299 0.9513616155402218 3.730000212217737 -1.0679138686876835 0.034288745979540944 -0.07380223069313095
P 7.5556757835316235 7.893796808796693 8.933028300924768 0.07671863300897755 -0.23219632649572916 0.5804573918982262
P 6.9365371450567554 3.7893441464830397 1.592359837647011 1.360549374306076 0.5723681871321884 0.8083440352750079
Ni 5.258344603788221 3.831191764598955 11.56807564771048 0.1996528453420691 0.21564999210127375 -0.7625274911615255
Ni 8.444357985130418 3.8408531540056634 13.38173927110756 0.9012570186556607 0.9499051186806672 0.12085753230972089
Ni 6.0577555672690275 7.291386175980298 13.232201206002848 -1.2510000679203228 -0.6955597668917246 0.29872593478684684
Ni 3.39590476587213 1.1336122250437246 1.5529146850302307 -0.17576292609834893 1.3018595737743515 0.28545055783417933
Ni 6.410552703109048 8.3354511232087 4.478297825075432 1.3140496880826402 -0.22283751098864846 0.15035811287199913
Ni 3.6519683904428875 2.075432068379416 3.762577497164834 0.24366190393316747 -0.45545215596871885 0.3102794439524011
Ni 6.7060808030754 5.89913395585736 5.121485041982084 -0.45375985586796047 -1.1396345342614373 -1.3099811744402214
Ni 6.952630259411359 5.055602647419252 9.32955288521955 0.9369824970817283 -0.22397162459309167 1.5911187067213437
Ni 5.571134386161225 6.907985439029121 8.763397306251074 -0.9724151268577254 -0.39491733180845534 -0.985189395804258
Ni 2.816617058369125 8.274013887905278 2.2113862199782957 -1.3084323418958628 -1.1689191421581675 -1.1248008116827144
Ni 7.774474048962218 7.225854351833079 11.318490674836164 0.10451765749911679 -1.4093018611194308 -1.088643645035867
Ni 5.6658712102864355 4.960470166394527 0.40738582625257425 0.10745360019898913 -0.008459957841895106 -0.716055058631599
Ni 4.542840506973868 4.383528796318865 9.030678263989182 -0.054141261929093853 0.3343873927441983 -0.544090680343734
Ni 6.086721332842664 8.77694901512555 10.420574025229207 -0.6643424607486559 0.2560268532564236 -0.04170200772447657
Ni 9.143456122599854 0.6362080132257105 6.932630263207147 -2.407413621412312 0.44203665389376134 -1.0453678650663674
Ni 0.27060815622331336 5.780998166721425 5.19013979523848 0.07296945037919045 0.016471515292461957 0.3335720959317546
Ni 8.924363414825436 2.526931798663022 1.8746693166403352 -0.11241865751374833 -1.0067763779464145 0.8124860824678394
Ni 0.7965787961861539 0.1807664360641675 1.0669026315212127 -2.4790283575358205 0.8244070022751415 1.937422905507786
Ni 4.821502581433079 7.517987163522215 6.154220399899553 0.7785197528247237 -1.3469937471088287 0.8867025178802537
Ni 5.1424079309077175 3.1481223322214094 5.433732866415988 0.5966895374863723 -0.22034302670156888 0.3966284009622911
Ni 4.152989642428309 8.37462115626047 3.969148124135834 -2.0558939398632012 2.840216415412631 1.5481913112301982
Ni 3.717693442378239 2.3171232260422885 7.6847390641527085 -0.11809539618355144 0.42795677876192745 -1.5048715653966405
Ni 2.590788981979744 7.435313274170523 11.78610744291481 0.6336638007178764 -2.107171507091255 0.4399067520349521
Ni 1.206026638977817 4.754139693960209 1.2892342050776895 0.15843651900475939 -0.5245276706101417 -1.352527532442864
P 8.146014280251254 7.955344459979049 1.3318400122289502 -0.2624502402842641 1.4506842807209597 1.1200067327281809
P 0.4606127208249432 0.7731927130279722 9.125566909947928 0.6848403235916916 0.22300694668697724 0.22547032062580524
P 8.652169870607098 8.25157186051198 5.514090782707043 -1.1542818518609668 -0.2831170246049963 -0.8208133713866121
P 8.899234601044748 1.5779625271663662 12.621604155895836 -0.058765905185298783 0.4606180164403745 0.2938534371858939
P 3.77434598959453 7.632819677613381 0.16082808872569423 1.3737021096379503 -2.0497526028521538 1.1183002915600353
P 8.236831340674316 3.966000351453896 4.778613373525888 -1.72823435276114 -0.12762339027864472 1.8746836174970358
P 0.7224428146730185 6.279461450844879 11.346434173397341 0.12045978265066996 0.1889370015864617 0.0250595140717891
P 8.872513958342767 3.8897121804338757 9.048522390157212 -0.7968501757027953 -0.2977188336785711 -0.3306595502706499
