# total energy = -340864.4369506231 ev
CRYSTAL
PRIMVEC
9.32674234646809 0.00000000000000 0.00000000000000

0.00000000000000 9.32674234646809 0.00000000000000

0.00000000000000 0.00000000000000 13.65063018562347

PRIMCOORD
 96 1
Ni 4.224324162812444 0.9447337256500198 8.112132928360905 1.8437172510225086 -1.4372019299638086 0.8191264706024924
Ni 7.628883622414569 7.959731158275717 9.493043890679465 0.536149056899154 1.9788150953013275 -0.0931739503515234
Ni 3.9091082473415453 9.18399668268238 12.849720787082607 -0.047809920394427344 0.5541205537759102 0.13752882231781477
Ni 4.972888513958828 4.337410915337362 7.5413045778880345 0.04621120844873977 -0.16068880537404584 0.10042548970761414
Ni 8.894699784553069 3.914331223128263 13.135100453371878 1.0778031027769372 -0.5436376519667153 0.6251948440149169
Ni 7.981816884459551 5.970262374144982 4.201036219523416 1.4782030549665188 -0.5988937442265427 0.4677145182758397
Ni 5.253306353250718 5.238178376954188 1.3349758229486248 -0.8676329028433122 -0.6198963146201388 -0.33697572229666484
Ni 5.128794341192355 7.32021508016202 0.32556766694532374 -0.5178890822477016 0.15815292632606956 1.004517920929541
Ni 4.752674797351336 2.3511225503910396 10.095146674023805 1.480687254840953 0.4895814935522601 0.21441226303943076
Ni 6.621548801263745 3.0978681867545483 11.677309152821328 -0.15351388489216145 0.43333244125154396 0.3263359831946315
Ni 2.4205601481269583 8.290177644210383 10.835283380668619 -0.7686258907497795 2.766483347394539 1.4740478951475646
Ni 2.824258869470343 1.645451887893077 11.021724030095246 -0.6922039630456144 -0.42296395353302635 0.26571476996814886
Ni 3.07729339285187 1.9526747850618018 6.476446139840495 -1.0152597328270774 -0.19168859618966988 -1.0464073620744754
Ni 8.593548596736403 8.393415356680347 11.903090002012911 -0.009197864449184159 0.445343349669491 1.0068447692905047
Ni 0.2998827508398911 2.7138582187785945 6.760037869597064 0.5043848771136797 0.4024630053661971 0.8199070575222589
Ni 8.100527662697667 1.2564054789799313 3.6202832823815343 0.26000537828819736 1.1526191194465634 -1.1744542130437838
Ni 8.646608434683971 6.047982119199839 12.643527962439709 -2.7258804862715116 1.6891142468312264 -1.8966063857120563
Ni 2.1425765886213775 8.588269660494827 2.9769022021856673 1.5751907226371775 1.709558116507875 2.7966511292271705
Ni 3.316141940926973 1.9311486634265433 1.0824934427216937 0.009620810919215688 -0.6015679486245963 -0.3518397838926908
Ni 4.93282082828072 4.986570845171533 12.541516716605376 0.34675876982535764 0.8115651133154669 -0.134628103731252
Ni 7.038314288816401 6.696806286304864 1.8108514062932122 0.3914154893027839 -1.1757551912433943 -1.018788571915942
Ni 8.713938188620249 1.0504057179062936 8.107436913524097 -1.089493137520356 -0.6424340907113387 0.509457920761213
Ni 5.218713465406188 4.81811122256493 10.188734938727807 -0.5612198838248529 0.19852155995110327 -0.8412618690489511
Ni 5.218069920175325 1.3060237489537507 5.298860961527622 0.21689543447260065 -0.11865666800366018 -0.13555447220026334
P 6.755079773296672 2.8029938966244203 4.996376049536848 0.7942443626488321 0.6723396200215195 -0.7136904150541644
P 6.123034415906479 0.8367729507900666 11.939947422930683 -0.5201169431369559 -0.2559183527030173 -0.9023301971151814
P 2.2555420934941033 3.8478502027573263 5.926175795133846 -0.4620570628797462 0.32094232298288594 -0.35958008995974206
P 2.1611834398615595 0.480581857598119 8.2151813079586 -0.39134092731110665 0.9287590807306714 0.029871847858767907
P 3.3777917086951956 4.861667109929166 8.990209358207185 0.25938445687474687 1.104101374351834 0.205701108418678
P 7.042819105432446 4.858785146503995 13.363503049873545 -2.5130599931992332 0.23925914687978148 0.7270524381833671
P 8.807718584219264 3.069281721064744 11.253579386661633 -0.4436227674339586 -2.5344027205410677 -1.803906032562842
P 3.861877623441654 3.1687700830592433 12.981708183235709 -1.9890108048874064 -0.5048924128777176 -1.0577135311159138
Ni 1.492344083402434 6.060041597221671 12.673709301092957 2.764424407982981 1.3223697779125612 -2.2802597145709176
Ni 2.88775533224887 2.8746699125546464 8.77818825219086 -1.238815610038989 -0.7096298718315456 -0.5476187481016505
Ni 1.1657402153679952 3.8452200613790146 2.814596364264915 0.3724389482002812 0.04185755946573437 0.05522163947746619
Ni 7.465255252410679 3.9728098984545506 2.5604622179454344 0.004171614879186363 -0.34659833298809334 -0.13668884291502265
Ni 6.967533640163897 5.742428708934368 8.108092583520179 0.7866786344864323 0.3980108831321145 -0.00437833157335375
Ni 1.5426991660318796 2.444604490230813 13.0005873753562 0.04856813871669055 0.14594532851628414 0.019985956203623645
Ni 2.163319263888628 7.178047544596056 6.610385623193883 1.4781061243773381 0.731780954007288 -0.4818920953278024
Ni 5.672776596121495 3.1549291972244404 0.49806483636990934 0.8970393810298875 -1.4218377888029126 -0.0020658813900932163
Ni 2.677082873194615 7.528844982613969 0.6532581004782493 -0.3115930205575021 -0.017333606182441116 -0.0679840813494571
Ni 1.097142024454942 5.591148945969076 5.099193125921132 0.611212670803212 -1.279962259480628 -1.310102530509434
Ni 7.195852295983278 4.8189599561302705 6.055978868199003 -0.26573970966881333 -1.365229553390565 -0.9035003061638828
Ni 5.515798193503195 7.398923459919363 8.76643469132225 -0.6854170220307679 0.052312436250471196 0.29244447265350926
Ni 1.1399424456785994 1.643101548789054 4.8363496674772986 0.7187853130785685 -0.27891121405376484 -0.5719444693312085
Ni 1.9913807663383718 6.407985052041843 2.7309588011088572 -1.0215939025752212 -1.9348392039410096 -0.41659378834062444
Ni 4.394900955961163 3.7133305960219127 5.141632602210957 0.9325476012388263 -0.5271645940123567 0.3156903305553273
Ni 0.7313714340656052 9.305990474272146 6.439931010371604 1.2146243575047662 -0.44815793630015077 -0.29041407248704176
Ni 3.2863243452302995 2.393410000778502 3.3837459010920545 0.619344812992043 0.8316261457314001 2.0442417003362534
Ni 6.906098387472628 1.1884601600402178 9.927844500158507 0.46045629405152955 -0.4980833603756842 -0.212239423757828
Ni 0.2799794823955056 6.8629622035198246 0.7713150740687776 0.30314103313540697 0.22939588093245658 2.9416770312529787
Ni 7.159832416539877 7.496098789779744 6.013115957800753 -0.48035457563735334 -0.24600186492025378 -1.0389169672347012
Ni 9.158739864056608 2.466121285123595 1.219216026030005 0.44189370055799376 -1.1879411917866252 1.4238959568835219
Ni 6.268494291566571 0.23440528795940183 0.3528810322871152 -0.13863208268432253 -0.18342635618087766 -0.8415063809595894
Ni 4.573396153472245 9.009372083298954 10.49759374652687 1.0550154154584603 1.1884057901278695 -1.1773433616661206
Ni 1.800564942016121 4.721682032102652 0.6276916340022654 0.5696351044717415 -1.6363130438697948 1.590099778538526
P 8.060702472323944 8.349467746132106 0.7699860132659074 0.2685159868623698 0.6859055316314123 -0.8478050694841077
P 7.066807487081442 1.7366954095385427 1.6851297157356755 0.7911312709411471 1.2232259831308483 0.3487799140204445
P 1.6970474272718683 0.3170663411781928 12.380548333555723 -1.0212252063818927 0.31897440062323773 0.41871880510342724
P 1.5415239964798682 1.650646883452366 2.770504189208293 -3.0902795948864523 -1.698703176071242 -2.635365056588758
P 3.2449602423479895 4.56899393102344 2.539850117072851 1.3886620733818924 0.4268710018969164 0.08956874949876832
P 3.709478651379208 6.6649834409757895 11.656109467172739 1.4605591166325105 0.5826351162758353 1.8395960297652836
P 9.258675909689968 6.898273250535029 10.502003430369658 0.5261163552535003 0.3549449051805758 0.2847681870551741
P 5.940472758675737 2.3917125336478184 8.084613442010387 -0.040810863368774875 -1.2656293877977236 0.49341835079984697
Ni 0.014570237096447542 6.5170426518170075 6.777537636505312 -1.8891926097464882 -1.0385099616042694 -0.17485326979988594
Ni 3.3253008020386816 5.665557697444854 4.672214855356947 0.658014461648099 0.28493633720192213 0.15419702700211507
Ni 0.4876953640847792 4.85071751426201 10.802358114378848 -1.1327383213622362 -0.7863099382931038 -0.16699572142868013
Ni 1.5278789722370676 5.089276933320348 7.787138856077872 2.6005214665470113 -0.5983170457874664 0.5005678173604347
Ni 9.232999387652765 3.7268916795824265 4.736563782397806 -2.187074194255169 -0.7579239309512431 -0.324805405482718
Ni 0.996618394045576 8.119078553482991 8.80471164244491 -1.1432554188434763 -0.7309558870028314 0.708462848106638
Ni 8.27669117458968 1.448377819369241 12.767107300250444 -0.03345339456243916 -0.476544972083276 -0.4561430113881563
Ni 2.804933859059487 4.232149299750044 11.085935854021704 1.215443510971952 -2.2225420481444758 1.2004933174200227
Ni 5.906113039393115 7.724128316582359 11.885972631546192 0.734304234649774 -0.4811485322935585 -0.988014523957879
Ni 5.769448281888157 0.24396706434608598 2.679277455699284 0.10647298145327469 -0.9400187128048908 1.383490813593598
Ni 7.94273783348393 0.9978588507949214 5.843452252740463 -0.5783084638760234 0.39586786864718276 0.4100760418267647
Ni 3.272725954699881 7.845721058245647 8.67463436315095 0.7722151507629347 0.22889065916126386 -0.7992176474937074
Ni 0.4487077151854257 2.9486496338765145 9.190765099697417 0.09965878674491868 0.5037788680985646 0.3217015697464137
Ni 5.482249900816009 5.4252168705735455 3.5328376102724106 0.2155288931423772 -1.0569221455628701 1.0526605420730388
Ni 4.735970601576315 8.445197430908664 6.168883749245634 -1.2637671377780042 -0.9323925637182007 -0.23160908653369144
Ni 0.8034391731798353 9.180564441451107 1.462242022060234 -2.0651607098771083 1.586794625424693 -2.3994030924030096
Ni 5.446789625921185 2.6674670017015685 3.024488174973905 1.3828143563518636 0.5671187658077911 0.006543971766104858
Ni 7.2931675269808025 5.871632072458301 10.38115403008173 0.35245042089349626 -0.5810857695108445 1.8162169887197106
Ni 2.2117810177953885 6.210910983518007 10.31561780872364 -0.7333009901962404 0.04532983428505096 -3.190390638677441
Ni 7.277535906590554 3.668413004256139 9.285554648832365 0.5863503603438934 -0.5088850789768785 0.17175920425559452
Ni 8.351650203871557 8.196751664825467 3.027205055057246 1.2899661647708753 0.6848002143823755 0.6989045149942414
Ni 6.411342679333305 9.250953366919608 7.464860731203933 1.2373701358417142 1.477307796845759 1.3604038498671474
Ni 0.09163897552645991 0.8085409013143615 10.28452151663347 0.7699548939738481 0.2345095480099381 1.4036804011675956
Ni 4.245327986869031 7.477855681496136 3.3980102210352796 0.5936983160685323 1.2611268719416797 -0.36895716029926784
P 3.955107741234568 9.116125977682477 1.5410334098256155 0.4717966587650133 -0.4556349614034862 -0.4834758948751544
P 5.298820856534973 6.415707594812204 6.680386556175369 -0.30954770799269915 -0.618838819889902 0.4193716081960777
P 3.326280109998691 0.224769830307155 4.886870766122822 -0.4640157292680137 -0.0675855603594578 -0.29976774578779986
P 8.58580740048109 8.178387308889668 7.541140427220452 -2.812019641263441 2.8540728616797493 0.7879685569424494
P 9.045858299866168 5.428425269985387 2.443135528290799 1.0619872187906032 0.36522083318528714 -0.9150437880271081
P 8.891621959535897 4.577266751599902 7.791615692466488 -2.642564402550675 -1.2471421276268135 0.1679305745381237
P 6.490629317124176 7.336508899268085 3.8207979862048704 -2.1701902740156367 2.053718015257805 0.47150278167367826
P 0.8422337585099297 7.619519572968382 4.6628638633502275 -0.19530279590348945 1.2223127272879593 -0.2923359721001029
