# total energy = -340861.6242289227 ev
CRYSTAL
PRIMVEC
9.33516617381446 0.00000000000000 0.00000000000000
0.00000000000000 9.33516617381446 0.00000000000000
0.00000000000000 0.00000000000000 13.66295930843214
PRIMCOORD
 96 1
Ni 2.0286155707103215 4.554664792584977 9.038607301683562 0.5534307267977372 -2.095544721485604 0.4996962133887588
Ni 2.046921831077646 1.905755452049251 9.736279328295664 -0.5043095437910541 0.032475346919886 -0.30541697365377724
Ni -0.027540606494482926 5.515160013999576 8.115333253821536 -2.2967353436284386 -0.4274816388977219 -1.3749256976324062
Ni 3.0081451954339333 0.24570063347371066 11.432658210978953 -0.4789137294257687 1.0734625664200546 -0.7866264410922581
Ni 5.585183093558627 0.14644448183904532 3.5349080708828464 0.1783545980849251 0.6699109559753689 1.4497157461601033
Ni 5.991757574832512 9.007202870015169 1.2444102900946732 0.19578899151128862 -0.5854378758319531 -0.06683351268478167
Ni 5.393644159230853 0.628247331188464 6.75838287098934 2.5537718690962987 1.7202803880213857 0.2683133839332605
Ni 0.9316290213596056 3.0664339714326965 4.240682087996123 -0.3020627124695636 -0.14887304368604037 -0.3585133392581245
Ni 8.5986306632346 3.8419808856583937 12.034047336301619 1.620197883475487 -0.11110456668801512 0.4110479188217308
Ni 9.239592490404858 2.8849303404679376 2.1122661254780533 1.0351770405762948 0.39325562783531626 -1.5021585373408515
Ni 8.326351878872664 0.5704094437035925 6.990844372156606 -0.8168435881055868 -1.9930628634695937 -0.7389563887098047
Ni 6.684286858539792 6.587425176963372 10.030073803067905 -2.5969214079005796 -0.017042043083951297 0.13100233405320666
Ni 4.083350935662241 4.529375828110177 7.712425625720668 0.8449786557789061 -0.4778289810020222 -2.1993458125336702
Ni 2.131134362833707 1.7571862864470222 5.818247646444266 2.147977999584655 -1.9379157859838048 -1.5163602827625304
Ni 8.935695499074981 7.775894485287932 5.75102605017753 -2.033448980596124 0.5475956081731989 0.4542051709354952
Ni 6.764821334923733 7.7000836028590465 7.0745985472660395 1.8183090953620489 -1.0544412881225451 -0.13378118234992442
Ni 0.3440466064312653 7.926199991751109 13.279548907292234 -0.8504795309924772 1.2697503519446325 -0.31436518398600055
Ni 8.329628522110264 9.044160791888824 1.268904831949759 1.0715689489417675 0.35954075208137437 0.9588792971548196
Ni 5.3530081819850786 4.627871163722437 5.397278339323153 -0.18325486360001988 0.029634277926665092 0.42135907093975183
Ni 3.710252359374193 6.360347265981643 8.984229026688302 -0.49350962496207273 0.5169845681555613 4.827430790521247
Ni 1.4658357581123966 3.621652299636163 0.32157032744788566 0.46505188384201196 -0.1853433706979324 0.5036819375093842
Ni 0.4106884888944253 4.822061285171231 5.7534177196859995 -0.7315665240036368 0.6179211931716391 -0.037632722751109376
Ni 8.31172367387746 7.476898456065575 9.019930435229249 1.6196551235981398 2.069769412293713 -1.5321579119164193
Ni 3.7021401001905088 2.0857747916328755 7.882557157562799 -1.811622170260177 -1.2898725766158043 -2.9147236425925866
P 4.583725164091086 6.756429020762476 7.33139309191799 1.6513740519679752 0.6985628153841066 -3.5757681493162616
P 5.426541283929706 4.982234062010883 10.258887121393993 -1.540732798069624 -0.21933001205602226 0.31331771655809265
P 7.5427020406292025 5.722213994084868 6.454259035127632 0.9100108535888909 0.16851910005174203 -0.8080535006177826
P 2.7692582995645623 7.530725022755017 10.663228630980033 0.0934554861476842 0.7918048999694041 0.6062345008623301
P 6.825957336527817 1.647274042915722 1.4643962755276738 1.0064634746916858 1.0129796785436491 0.8051769504009358
P 6.55174617282063 2.1608201904563953 12.325382928370775 -0.13247814726778476 1.7382310589625352 -0.22685563100910605
P 5.281108734076289 2.8546657325582654 6.563562625841008 0.5976670709082933 0.21018382678037997 0.3622589223434858
P 7.020156793142531 7.114497979920798 1.3645043990939187 0.22790669798143975 -0.8849518537377341 0.7529398474730904
Ni 5.528425284770594 8.225616103439824 11.352101330196806 -1.4307353484028587 0.48487406077426165 -0.1389421577255736
Ni 2.0912825395251353 5.924759089031243 7.193452012714639 0.5872859847842854 0.5843163606330002 -1.994379782508804
Ni 8.307905591016555 1.355550107944333 3.523991527857069 -1.9300502671927988 0.09761938771738671 -1.4776546386622165
Ni 2.6170950950834855 7.86582947375239 12.862911117157577 -0.4967659271158412 -0.567580793045874 -0.051159296482634474
Ni 2.7391990653051104 7.887393707025476 2.2250676028613103 0.5610247370949112 1.0345828586357215 -0.3968654566737617
Ni 9.17970740103393 3.44977322473398 8.997795823318508 1.0331193867163175 -1.0469480650692937 0.3647562348440428
Ni 3.134253951834845 5.961362274599974 0.7027148832415925 0.998559903573893 0.11179207967334295 -0.8638299841574543
Ni 8.676560628327117 5.906480834161676 0.5804475476163841 -2.193057151311481 -0.2415656835257711 0.4680323066265746
Ni 6.204309967644146 2.3676687968914685 4.3863974933768874 -1.1642119664904853 -0.6061429695897883 1.469162027810173
Ni 3.1126617130640026 8.818903238261317 8.590107656750476 -0.31275284519355817 -0.0565095050509543 -0.0072638806512649095
Ni 5.5911575997468415 8.658646444928394 8.658012587162489 -0.9516172162757676 0.18956975007445415 2.3495342325970245
Ni 7.362645360381901 3.8402445447974443 3.012463643188102 -1.5232053307088218 0.42211240416600854 -1.506517842750812
Ni 3.6576673697519904 5.859571625418277 11.77691019106044 1.1657384304373406 -0.19291398395633874 -0.5095203985680321
Ni 4.131249671993063 0.9761969704904985 1.8122413609714145 -0.5826533711082803 0.1189556873013177 0.3509069876657763
Ni 5.649623743898068 6.846998800509433 13.30131384663258 0.046820817008280655 -0.02233105939703251 0.2934484884379914
Ni 6.889016382311232 5.770644834873078 4.260820841433364 -0.1785813693837505 1.6851172098566913 0.5044427269348086
Ni 8.455354536708493 6.581450670775157 11.325513844142662 1.806707763677695 -0.8393962765951221 1.9298785175016246
Ni 8.889449087111839 5.575437180339103 3.29293683619381 2.4131430676969217 0.20388565247649404 -0.7868043614310191
Ni 3.112577696570731 4.150704157768436 4.8734000301432365 -1.0684018640676956 -1.4931265090455703 0.2841976592636848
Ni 0.6806540191416122 1.8861796091169312 7.474799910766966 0.3729431415302093 0.13757870171914371 1.403124014443493
Ni 1.941462461689749 8.48709410083338 6.232331335183462 0.035317958575003694 -0.035487137163016304 0.32642545758464425
Ni 5.140875871639803 7.956231220512804 5.608248421511502 -0.4805900886869271 -0.5961166957020378 -2.0242243766740624
Ni 5.136189618348423 7.225502437864631 3.2937564637615058 -0.32076106021001527 -0.9813800493604969 -1.075563157702825
Ni 1.1650007012039814 5.7636527955996835 13.024925722233064 0.8279602668440386 -0.45570515251978944 -2.786207565296343
P 7.303273705136524 0.2562344346968055 5.059926913889054 -0.7012421619884825 -1.3488907070212253 0.34140007661660554
P 8.122975954159491 3.2060320425866853 4.823461560059094 3.027481685723625 0.7013758593528695 -1.6718102083351403
P 0.6034802024885412 5.026398731974071 10.612211949232236 -0.5977475464372415 -0.32174784960331687 0.10984832568341081
P 1.2033028869699847 5.665092113825991 1.5655978757398763 -0.2234869716471893 -0.3467420576548093 1.58121018935838
P 7.561157663651232 8.573425715253073 11.042430538745977 1.2199861360373119 -0.2190847288144356 -1.797002363464473
P 3.509574297611635 4.163418653750228 13.076694818353937 0.06891944867953291 -1.1134182808773858 0.8191830348720407
P 0.9231965659848965 1.319964455460783 11.539830583313003 0.6348909882567582 0.6223200935702831 1.3286944345790086
P 0.9607939467240092 8.788993366656571 8.084673768393486 -2.062541012866074 0.42769452623947635 0.725588452043331
Ni 0.47902283693871534 7.875435359483129 3.077103132561618 0.8365873463914173 -0.15625596641367284 0.0673230507266905
Ni 5.284357371816131 5.191276432436941 1.4256207968495727 0.6991140599018864 -0.2958884653380517 0.9076927469786755
Ni 7.266987915209042 3.809065090627702 9.984562068662594 -0.8007729077959693 -2.151112688558895 2.838069544272957
Ni 2.6666834964456627 2.9104526840907146 2.4912766623426577 -0.853008210951602 0.3947656367219395 -1.3175443314994602
Ni 7.547220260934038 8.022258849058488 3.4003687261404094 -0.5326914373678568 -0.3609461170693332 0.32440945559588
Ni 8.345787694316199 1.4382690131533404 10.441779825047512 -0.3338999115848185 -0.4370744247924795 1.3178793462413756
Ni 3.9134322456030657 1.9217839319323191 4.042118441314237 0.3227634353520248 -0.9875308994532411 1.289310019244115
Ni 7.183018097766878 3.8261484442596267 0.5969278495299357 2.2882000524639174 -0.5215984127784888 0.35377582457313905
Ni 0.7496875711132417 0.5894681184439954 4.505948295719643 0.5552302419003212 -1.3829398261861343 0.3320805989878926
Ni 4.555663655338319 3.200048201232552 9.512411780873508 1.0605376308282704 1.5048728509482212 1.2651874151642986
Ni 1.3308305885905973 6.830279518348354 9.281111574346578 0.02884803457994387 0.7555772850959375 0.48958843553079556
Ni -0.012466180568345368 1.667419330969106 13.57002379706365 0.17993171276405787 0.30078384575714 -0.4657185708917334
Ni 5.154225158904095 2.9114515468440563 0.4187699420305767 -1.7010161404751347 -0.24669426300158806 -0.06727882775231639
Ni 2.3369374306858424 0.9569851990290227 0.29008374631940576 -0.8353532168740001 -0.05593383505314238 0.1715810268065174
Ni 2.919993223660019 5.666679092032235 3.0878012327048885 -0.5795235672300472 -0.9322388117491557 -1.9225799269576824
Ni 7.643857898528401 3.0138489818104937 6.757057277428831 -1.1146922624938027 0.5527534982250546 2.0180642706099374
Ni 4.424896651143784 2.3915668216443247 11.67435592530656 -0.2944424769201445 1.1171911176562568 -0.40887456531949584
Ni 4.747865386446349 0.7834071239295665 13.10456775675514 0.39897093305253867 -2.2965486815389284 0.3992280433686673
Ni 6.758762812242247 4.854641014228836 8.256580848793428 -1.168178150227085 1.8042775569696476 -2.639284446247822
Ni 0.5979248452500939 8.662828599260145 10.62301927081676 -0.01795864136094972 0.42145548730829996 0.41057843538448
Ni 2.0772891258124275 3.5754338931707754 11.497284631120184 -0.4358410666060107 0.16090194982611644 0.1191660035399109
Ni 7.506640294683779 0.33070665433289365 12.828083480146658 -0.595071285156659 -0.19282168135284855 0.23536649669359466
Ni 3.351044509973743 6.400637842088411 5.096392872518774 0.9793064546609198 1.6495390556417655 1.8410517883752036
Ni 6.432526768868003 4.474289014021659 12.178846961905723 -1.7572204555808448 0.665634440087202 -0.2237759636425178
P 7.530183583131709 1.7894019440337825 8.512952510429244 -0.0639883299265027 0.5961490916018701 1.1689170852756385
P 1.5777177216526237 0.596364005508423 2.543346350806127 0.5102901868545212 0.3226940155666701 -1.0422293194373857
P 4.101013069581149 1.0931852697884648 9.71034717088904 1.571250764152823 -0.854399949092806 1.1914085815099351
P 3.6885947744419174 0.17832687400249442 5.782765614302417 -0.81676234124569 1.155149342067585 -1.5756265246230154
P 2.1466587437571443 3.5197776339611946 6.746987433951914 -0.644386072231387 2.828314778879039 2.0792457272152642
P 1.253815469758151 6.858434378760312 5.037314341483256 0.9605970511768746 -1.9931749635674252 -1.7009102110248902
P 4.144010843804452 8.216019552875006 0.5679626967162005 -0.29053285745309315 0.16834555058835524 0.5693833934722516
P 4.690594143532766 4.10589536135683 3.2552955801748777 0.04395223721123398 -0.36258570955528524 0.03964255409228657
