# total energy = -340866.48155536625 ev
CRYSTAL
PRIMVEC
9.35338030668799 0.00000000000000 0.00000000000000

0.00000000000000 9.35338030668799 0.00000000000000

0.00000000000000 0.00000000000000 13.68961753300679

PRIMCOORD
 96 1
Ni 8.446757055946067 5.955568420471816 1.9194894602996277 -1.052725076762387 -1.356732057442515 -0.8463529104186133
Ni 4.863458395103551 5.914553848300973 11.824064353998864 -0.10047871154305275 0.7897048229072657 0.05031931707984238
Ni 0.8783188788309365 -0.1615880609729242 11.45582738760826 0.37678077010874467 -0.15862678063869454 -1.0740256380123763
Ni 4.546191738767176 2.6608028319955896 6.634166442598173 -0.10036378323174329 -0.8964421137655207 -1.6224740811041736
Ni 3.428144790108205 0.9608914545621617 0.40659143723296703 2.8815301865597536 -0.5666582812316048 2.061124077913889
Ni 8.970920482275385 4.805467437872257 11.683869344216168 0.6636595757490183 0.2779437079341729 1.4019616187042758
Ni 1.8154443296464857 6.615252972498593 8.350708130024705 -0.024652508441357544 -0.893109706958178 1.2597207356227722
Ni 6.998068117266728 8.37406258504258 9.017145822554866 -0.7250588047921062 -0.13453194447301994 0.911087117372205
Ni 3.0882990739724185 0.2982830358853051 11.225760424187353 0.5514301514279406 -0.3189273494353862 -0.3520691262946775
Ni 4.610889069600865 4.96526058518507 5.911231527654432 0.2781203427213533 0.6203259459583897 -0.28370812122177586
Ni 0.5632614908974695 2.9852061174234943 10.074860662918834 0.6614162882407963 -1.2951873039604984 1.022310983246904
Ni 8.603454234413144 1.1244914276158038 9.309665305561797 -0.20128575295980175 -0.41740908515306824 0.1983482675980326
Ni 4.883895530837484 6.782435290168296 7.944687248983852 -0.029682357555781136 0.22140283542465095 -0.8000316587545705
Ni 1.750223209521676 8.40023334283825 13.747934937583512 1.6219727159877226 -0.2790618806990162 -0.7473286719339
Ni 5.180182555388409 3.4248711070386966 10.06136186461622 0.2943504314269704 1.0629354416364856 0.6268858585640945
Ni 4.067878582171375 5.946215040273221 1.9509757440621611 -1.829699339476862 0.088184467556732 -0.8883737349350893
Ni 1.5746789699544268 0.44956647789343607 2.851218946078607 0.0069784882003621745 0.3898949388931995 -1.728615133139326
Ni 7.69068592097276 2.9856831398136228 0.6227517949745994 -1.6497881955380942 0.5260811311401907 0.03830120957304372
Ni 0.8205280839358915 1.1893851794336627 7.0948494128576405 0.8865917033340022 0.2238824073133951 0.7039351354396134
Ni 6.315308776290016 5.902693762209153 9.72921117436982 -1.0901685663208256 0.12534770687059058 0.013577995794750808
Ni 1.8234321163360867 1.61289688144589 13.046725118827052 -3.391839656687984 1.317706568108937 -1.7057832228464753
Ni 3.075082747751803 8.613378170803855 8.073370118418115 -1.3832118489005985 0.9956393874929885 0.6449506864856054
Ni 5.710509859268602 3.214232984966315 4.357295548966431 -1.010598322795666 -0.08489371262060218 -0.8086096302315686
Ni 0.6667341946824573 5.865626316482118 6.23114425524899 -0.5165119993945169 1.1705983296328033 -0.6414778974456564
P 5.853055373495205 6.808175792474833 5.283055707502666 0.02090358292188658 -0.40808009444265847 0.5173666340853282
P 1.2355254039533365 3.588284012488367 12.132067422586548 0.728461659826068 -1.0210120619298222 0.06967432456768646
P 2.3680513851597347 3.1614144469848435 6.631496987889493 -0.8300631721196543 0.06993194910444729 -0.6087541819603903
P 1.619191706319545 2.550423592271959 2.041711014692701 0.8980678222944017 0.6704375179028003 0.9876836229810217
P 4.389073658191161 3.8713266506780792 12.15477836504676 0.20245071980218038 -1.3296125755179038 1.0880582048460423
P 3.9041383084147543 1.0650132829329322 5.062297228055405 0.37647866548729353 0.32114492591199534 -0.10741606209283436
P 5.22307715697917 9.19366187832475 1.236988272616397 0.17553049837256868 -1.1474386036868884 0.4434746718918685
P 8.123335875439016 9.66391242118936 3.096947209304041 0.055194642894272686 -0.6423276470404615 1.3318129256033322
Ni 1.466348120494288 6.056294971830496 1.9094139991497001 1.423585881842271 -2.075378016729742 -1.9008808447176941
Ni 4.111390506855244 0.9419321528996076 2.9095915212220045 -0.8354486048012838 0.3793230769146242 0.3130348952103512
Ni 2.9208361548967567 7.275620321279865 11.343367956128459 -1.391051142439359 -0.683597709433842 -0.1190266497485692
Ni 0.20672934448738808 8.086184249290191 1.7611423455655169 -1.7275897771986055 1.6762484466121519 -1.0435143567973963
Ni 6.412368802610847 0.5243467525812109 4.662642257577716 0.20665884434625698 0.6328047951516907 -0.20203754352416173
Ni 2.2877245560141923 4.908130138932046 10.299054638913042 -0.5089290448409365 0.5804296239840843 1.1815815681171844
Ni 6.628310291255832 4.286569964594748 12.434744676489155 -0.86850039304993 -1.7524963106322982 -1.538961050881182
Ni 6.3449402847591685 0.8382630281304493 13.385666363097632 0.2234347782530152 0.6138025430175752 0.05740990537803661
Ni 2.9141204279141646 2.65787522399343 10.950831843319921 -0.2923485705055933 0.0899076208954258 0.7586479536014611
Ni 4.207000759245292 8.17687462369578 13.129177971291735 0.8259879736090162 0.03781321419303165 -0.22980160101130748
Ni 7.772677651793653 3.8430981492387173 10.05090385021617 -1.9831921413231006 -1.2584773501339745 -1.2531582519139064
Ni 5.946271160554413 5.615161501524114 3.1707893399578966 1.2887245790542903 -0.3908385337533914 0.8442122099265266
Ni 1.1703136372087257 7.267595121069469 3.601067277205788 -1.818964212447545 2.015592154920361 2.426285261505835
Ni 5.0261510902779305 1.5917208286762685 11.562785160855244 0.052657478294715766 0.16946835133888877 0.96683814699058
Ni 3.0154268888451576 3.8552388367364943 0.9610411086453393 -0.8108832567570938 -0.16192396333272757 -0.7884627229700486
Ni 1.4983553875338835 2.102714695685964 4.473821830156579 0.9592901594399932 0.7980724781456707 0.23714621430183677
Ni 5.827249397527278 6.70606494084676 0.7182311000418672 0.11152134251045956 0.14675471179145694 -0.06269583636732427
Ni 3.224802304590729 8.143267928642224 1.9865821918021764 -0.6075701889546181 0.3860053740308062 -0.5907880844002729
Ni 0.39830901906711025 4.143444540795833 0.44965065831522344 0.9716471383434493 -0.8417789178946857 0.35345263690576545
Ni 7.117407895220614 7.817302628721153 2.480846602988663 -1.058881840392402 1.2502868439033823 -0.2612184247596921
Ni 5.895491659456235 1.7194225285276994 8.363699039782535 1.2115153795621394 -0.744817218365956 0.25434689445083936
Ni 8.499182751959198 2.0696692034443243 12.365570817892419 0.6847408218993497 -0.020469323597945392 -1.0268536083122637
Ni 5.955156871743077 4.162226128234613 7.916007914618917 -0.14463895100003477 0.8990366139655742 0.3832229261896626
Ni 7.891390753274233 7.897133728716169 4.818608001713264 -0.9880926854939821 -0.4432679551977011 0.5239962235867041
P 5.8403815433261075 7.878997524511093 11.07881601525335 -0.47272482700623747 0.27033478523866344 0.03907331185237787
P 5.026422338303689 9.022943982939976 8.387395828515677 2.010859525331382 0.7071289597865629 0.49622008191470024
P 3.8468114411775596 5.225948644700138 8.950928567438906 1.071963613277025 -0.24290060028711072 -0.2311439739718148
P 8.553535244293238 5.123239176739356 7.702723721288353 -0.9140068621221613 -0.31666477865345466 -0.40669864071409956
P 3.0206086614751797 6.534729722368879 3.888125321514758 2.292480682117142 0.7553224887726541 0.5609185505343501
P 7.03455565342145 2.2132903563937654 6.034698016951938 -0.7261204132874011 -0.6607771119949007 0.5963390961254891
P 1.2800942605996466 8.3466104141597 6.903482060008427 -1.112401409577097 -0.5732225647126838 -0.9161388208634996
P 7.169075967437657 3.8181713910094586 2.5178626051246065 -0.3212151170282984 0.5568268969634796 0.1336539127434408
Ni 0.08871868185972254 8.124177679656889 9.101008229415479 0.2623947044559804 1.3599006849784838 -0.33098942280624283
Ni 7.889651024557294 0.06970793660607622 6.8968841856163365 -0.14578360612743924 0.5920191285938965 0.16990595309693965
Ni 0.17312732612393206 3.6589955667897525 5.691047345751364 1.887730166268349 -0.2959216325688323 0.7605868224953869
Ni 7.205759924576552 6.874528671603673 7.102926056659128 0.17203456940416822 -0.5265860958010673 -0.18300289549021387
Ni 1.0736651596166333 4.274943713007893 8.355704705726795 0.6471356099520661 0.10913458744583786 -2.1986163905668135
Ni 0.09428861976798644 4.171644982094599 3.294803001997021 1.8098100567521023 1.0892877063777693 -1.3842384903929
Ni 2.4342733169657937 8.763499922991322 4.612168612012033 3.124260065596955 0.31766185245940126 2.0702468661507636
Ni 0.28573921770096805 0.05612589321969501 4.995820884307943 -0.9945512966351322 0.30201386150949927 0.14573578360863934
Ni 9.152834373757878 1.5947606772408125 1.7481645305399651 -0.9727858799335826 -0.151101675906243 -1.1522442526056478
Ni 7.5009619570244395 8.149768527880248 -0.12160048994788669 1.0555969989935432 0.30553035930318995 0.9618360657902983
Ni 8.098951613261276 2.72162786342706 4.0978636484120345 -1.2045034670206805 -3.4214659641948493 0.6740578882642069
Ni 8.608392819158004 5.980382938138692 9.72580280262545 0.803253765236294 0.18633401674597588 -2.1571362690451554
Ni 0.2795154785168223 6.44952042875967 13.458522647478556 -0.07171783736027648 0.8028441885027012 -0.9480626661552898
Ni 2.410263189995998 4.560885899059171 4.278279128386712 0.20902863013001421 -0.7160548015212829 0.6006942877703912
Ni 7.521791934726712 6.700798987794951 11.709359175933383 0.2040985398182485 -0.07303861305422904 -0.01862841373446469
Ni 7.943479727600213 9.11531796578131 11.360178786359397 -1.6298978843720702 0.5934635743499069 -0.0642842639003667
Ni 4.810733390924066 8.7869582005294 6.235593658209463 0.31678304939887375 -0.7547961839555388 -0.17299873308965044
Ni 3.4952833531737273 2.5103817716417693 8.688266009363915 -1.1462800646024132 0.16995531827763632 -0.742837983152398
Ni 5.201994638011535 2.91774953943122 0.5943399672833443 -0.23996131515312866 0.4073979807739693 -0.6874857316343386
Ni 7.264789107009891 4.3902428307159855 5.925290593430941 -0.18774478105057343 1.320019789623146 -0.12656872376188524
Ni 8.428667618641983 2.834083553554779 7.615369697599605 -0.9371969270853796 0.0515858424970918 0.7070888505772467
Ni 4.8152323667995915 8.013386891204519 3.738894946460219 0.3110348340611869 -0.6852923235274456 0.44779309676156426
Ni 6.244877823394589 1.5728737675760978 2.344757727113151 1.6953861958828673 -0.11800952133796451 -0.2765969640982914
Ni 2.9291980767943016 6.806800845585639 6.3431528538032165 0.4954824324177273 0.42415694539986304 -1.610950139624974
P 9.394348003865826 0.22288637344244278 13.409500646519696 -1.9963962987182005 0.17865001783815682 0.4911814910495283
P 8.81874098644423 6.193247164698338 4.011468346193643 -0.510595891020398 -1.5926264016151217 1.0196691747486826
P 0.6063628021906196 7.036370209179978 11.023975276472944 0.9547789018332007 -0.15404558902591534 0.5527013048308804
P 2.606815121489294 5.999987623034949 13.709877904231465 0.5237720233910399 1.0190631657335674 -0.20330638293425632
P 1.86717787552492 1.0736558062364348 9.320398309339685 -0.54407499661445 -0.016323933971004144 0.8640883800251635
P 6.938907987510609 1.8697126415587395 10.646333486292653 0.8278831337491999 -0.18217345761038303 -0.14383830947561035
P 7.540966364133834 5.637936982307696 13.600676255074838 0.9712840985770758 0.6866400958045916 1.022724930855871
P 4.135166799320075 4.007362212286459 2.7864804603720446 0.8134430470644699 -0.9478819176030515 1.2029019268615153
