# total energy = -381166.4863968151 ev
CRYSTAL
PRIMVEC
9.23379838066835 0.00000000000000 0.00000000000000

0.00000000000000 9.23379838066835 0.00000000000000

0.00000000000000 0.00000000000000 13.51459729674855

PRIMCOORD
 96 1
Ni 6.458127779214677 3.725634478792537 1.5427183868149081 1.389446774066717 1.350733416656919 -1.0214437501506022
Ni 7.900114660150335 4.364290139635719 6.835696869163518 1.1922750432752887 -1.1625985992567784 0.029794714763929336
Ni 4.389267564092899 5.68625611000043 4.99079227512935 1.1562932258640408 0.6477614164615232 -0.9508751959034205
Ni 2.3308323072750614 2.460613342670868 11.57373884652235 -0.9026312732953682 1.5367105642841081 -0.48515945322516446
Ni 6.633689986683937 3.1520032257229054 8.760202345000112 0.43462802013451596 -1.6621649719358924 0.014435972919671912
Ni 1.0772610810709167 0.12653812542561718 7.8172080785491405 -0.13495849048747724 0.30727279591559337 0.12346951601127125
Ni 9.046426085062578 9.187657030375908 3.3133333798406506 -0.03658936908825957 0.3713079199196315 0.31914229365966973
Ni 6.165213228889115 8.052102980507145 8.03395487328787 0.6177612705550071 1.7839622424510628 -0.7637235683521556
Ni 4.793227773021802 7.405524720704901 3.222325986972808 -1.6873712959981908 -2.2005442037171457 0.8866495531551309
Ni 0.37047106917980943 8.353226377539706 5.696727237295971 -0.9480079016579542 -1.175350756716124 -0.8044061336731825
Ni 7.524058989746236 3.660240719086162 4.5496484837432885 -2.1493337422816015 0.21677176441054283 0.1374851135640729
Ni 1.511609720272861 3.4150649060780194 9.444027900467926 3.2241240263741444 -0.9415469765239591 0.6233575336958619
Ni 2.540245619387583 5.341715393264484 10.8837109487226 0.6918154693579439 0.4486251057445564 -0.09101525213730778
Ni 3.9693882868593096 3.0632664238620944 8.489032466339692 0.32522192419484636 1.0556553630353045 1.753365857721445
Ni 2.2314489359506173 3.3811029958549117 1.4561847692333885 0.8837966570873681 -1.9042510467415075 1.3355130001627387
Ni 0.6189747431026906 6.370849917488518 9.838667513372032 -0.2566919976442482 -0.6924780426426075 -1.2180691215202568
Ni 4.327456518134911 1.3408029189387007 5.132587405520068 -1.4836787333691093 0.9578963644162599 0.4891158667697511
Ni 2.471278379731142 7.106589733874319 13.446780670799 -2.831516830756104 -0.1641968185273043 -0.6626337055876652
Ni 8.23816401666691 2.359235470909178 2.362513469312985 -1.1557769483492546 0.11971133452041965 -0.25955055013896594
Ni 0.8842220635202865 5.260374863858461 5.456180327385938 -0.3079299698836181 0.7283464744044424 -1.3121193038291468
Ni 3.6336196785279187 9.207814412109743 0.9164941886507272 -0.7119598055163029 0.6913482999135384 -0.33539397963184175
Ni 2.5586762808354684 5.187252414957757 3.599909850998963 -0.6524038003295409 0.6438564249801622 -0.7667325303818086
Ni 5.811484882824188 8.570599223804571 1.567085457203097 3.1296604106769195 -0.4493385868718133 -1.3949461066183912
Ni 8.679013249886546 2.366659444758927 13.292511602257006 -0.0657500498126158 -0.037068108496891 0.008397222924759733
P 0.2598427782605582 2.8369275594279424 5.846563159264254 0.672280741759126 0.9142490600399545 -1.2667545025411022
Ni 5.498662263319448 0.5498837705487539 12.943916324678494 -0.15865943364884288 -0.8945202141524593 -0.37337997195731176
P 6.808568893077475 5.247096661873461 8.997572828287865 3.0643024540964 1.2948628307415442 -1.9294946517996445
Ni 7.597329179420069 0.7677709393800751 8.821828714991689 -0.3284998236151697 0.2817952204697792 0.06504093956073315
P 2.98649662462476 5.332112243011077 8.793381229125634 -1.0054283485589524 -0.552042845311275 0.036859592030510716
P 7.7234074616893205 0.366305702757394 1.6185620360806878 0.1265576680182917 0.01377828473101498 0.005865971862473769
P 5.29135425722402 1.2649934347267073 9.183911801777079 -0.2626021924810961 0.9888431905067616 -0.12412463309676688
Ni 5.385289687539319 1.9184139390845039 7.09537990271313 0.5018837079583809 -0.34213104124535915 -0.4518472122262799
Ni 0.9241093021257126 1.3581070569914748 1.5660715861474968 1.319300137848302 -0.8619178547364059 -1.6134384532644663
Ni 8.270279167225901 5.679681645596174 2.230584652427811 0.4470533903820624 -0.3251123952001756 0.6282796535878276
Ni 7.1823807504896715 7.786243459260895 3.7341508109836115 -0.8376003610369639 1.3717146468942762 -1.4628337715992998
Ni 2.5039106229960857 7.8300116633004615 9.631920922214496 0.13781987119567232 -1.502339543003406 0.4541560628651146
Ni 6.662536372637441 1.2465166042872189 3.9140972258954854 3.885094999547406 1.3875523852574811 0.30490378146278463
Ni 7.764220850266303 5.767347326851797 11.248348104123465 -0.8085571797270785 0.02677289721847002 0.1631966593975641
Ni 5.148202681860008 9.023470862437607 10.64785388497959 0.9180164975021867 -0.18087093674887558 -0.3662359047133628
Ni 6.622794104665648 6.411912618620154 5.490196717019137 0.38193454639554225 -0.48739425609295417 0.7913040490735855
Ni 4.805896544317644 2.495664841095804 11.292635247628649 0.1770577336503725 -0.5089686398296202 -0.7731978263911781
Ni 4.433654432619946 6.760793220566774 8.083391706116442 -2.393507552854181 -1.068345042687831 -0.6479249386225809
Ni 0.3935093959896661 0.10405567327465957 10.110770005662829 0.3204635835742546 0.586877179381641 0.9522126837679213
Ni 3.30738035006337 1.9429666088189363 2.90763814020731 -0.8678933555935506 -1.5208502002130841 -1.3675546019793157
Ni 1.802049612648506 7.181281928489522 7.2519057115646754 0.45881387335210017 -0.8191606662745375 0.11798278186508712
Ni 4.969233202810451 0.2777498833436665 3.3141034786205874 -2.843163413856097 0.27908424929651937 -0.21688257895679422
Ni 6.0236498668362435 5.445032362673497 2.930667233218846 1.5294343423376693 1.3152596492303412 2.112320398282046
Ni 1.2245216966875883 5.182404670839451 1.1553734745840638 -0.22214562712794644 2.121964349129713 0.9434285098173881
Ni 0.13505722775618784 8.302717500726112 1.0321031903841011 -1.2873629228200731 -1.001742415066933 1.4573159271048644
Ni 4.67695578456901 2.8735672711640197 0.11139284942019552 -1.7599669079777303 1.234284812048171 -0.6980943603881202
Ni 4.294427221542183 4.641147114681786 2.0409067374658734 -2.0774382416928803 -0.35694959431543044 -1.6574343992294422
Ni 5.771428665709495 6.796851203008654 9.934904929608653 -1.053079374778012 0.9402436843315032 1.8482652754045072
Ni 7.860307755590298 7.660719204890878 9.6869118847329 0.8743388541085781 0.8329579771689462 -0.011109479649600221
Ni 5.746959100159948 1.6174659842200345 1.4406969193102732 1.2932546057141598 -1.3626407096174662 1.5845359112975035
Ni 3.17943684053336 4.903248480011559 6.6573986872518685 -0.49052148886802627 -0.3236342679927523 0.6460981698264873
Ni 1.1879096863464733 0.05351078464761556 12.96597217534704 0.7260414804203495 1.115332467180963 -1.7518879876243378
P 4.672911380904595 7.785809470739827 6.105908235795332 -2.2509488814219423 -2.199112870587258 -0.1620977699064305
Ni 0.9595578538784341 1.864977948203285 3.7257582116900325 0.016273283238726812 -0.6331092137659871 1.0475155075369895
P 2.7043302155443585 6.709896524223716 1.9503998164670064 0.8554535871683009 0.10171309817078612 1.720647284442501
Ni 5.7100516082725745 4.816062956268605 7.129247628193368 -1.5979830379413447 -0.2969279623461596 -0.3240569573524677
P 8.470237069858145 6.240016229084165 4.226636367791784 0.4104874183325705 -1.23382329903072 2.0482063414109564
P 8.003856384282095 8.660619523631944 7.088217245355853 0.2662472454328511 1.3775433377609114 -0.14880053857689213
P 4.682800778905939 3.530672061051729 5.491129330649516 -0.036989689850471776 -0.0627004643530146 0.5520335893398944
Ni 3.2616453469815183 0.5196874032807806 11.855950501214524 0.830676123113305 -1.9945942125124552 1.1579140492969155
Ni 4.57921602934563 6.969264685250596 0.8331397678309845 0.3932060055443034 -2.1712742511084344 -0.9516861218404898
Ni 4.832711494640618 5.189080707025232 12.391777660579853 -0.10351467015589913 0.6812351227389365 0.5914866531291941
Ni 3.9581507543031593 7.316529372491114 11.893331686955744 0.8623364303310632 0.6479917873047744 -1.5221072125486366
Ni 0.08983285372146425 2.3200287632399785 7.93144678461174 -1.8590081157433078 -0.1792457424406268 0.8567116279451181
Ni 8.773253395546424 4.193714183259575 9.541237635667706 -3.4315192346657932 3.088787326611642 -1.9892051802864
Ni 3.470892450724269 9.110887231138573 7.486316762490682 0.6040467491823919 0.0012197313397140283 -0.8352529438507099
Ni 5.460295831297422 4.576307382874646 10.294825460827363 -2.0886958168845706 -1.8882914380884577 1.3762122776543138
Ni 2.591927188587891 3.1050678288593776 4.661657227511467 0.11408884612731963 1.179869470522084 1.9970277616546124
Ni 2.506893139853634 8.773945930420469 2.950966815446818 -0.08870383039531175 1.1851692854684428 -0.3099395441144791
Ni 7.105038455756461 1.4485336439449528 11.604146667771866 0.8376322427161638 0.5508128295589159 -1.3919415154641124
Ni 2.6214199404238356 7.499303176448751 4.78700511633356 0.9121680091412097 -0.49400430521030403 1.9893915852655932
Ni 2.7837685824963416 4.4686689958516 13.007637843509011 -0.3188296475152574 -0.3438115142715756 0.05282717110336063
Ni 0.021986597181142244 6.3899546462138055 13.118822009087161 1.8006427884305378 -0.46455334693903866 -1.3562504898204062
Ni 2.1326657615170115 2.811340704281605 7.215011146994951 0.235393236166472 -1.1042448419082338 -1.5875926958459563
Ni 0.5144185979590554 4.119465210963759 11.60778201417068 -0.10889907439626405 0.16775008309620143 1.6471517863565117
Ni 0.18594653706058964 3.9161923747344263 3.5792732351322902 2.1293264459217394 1.9830628148340883 -0.8253287427584625
Ni 6.600983873032429 3.854704511717658 12.604659187341586 1.851528262426495 -0.6227990900892306 -0.2714485871281325
Ni 7.278781604956567 6.5451655621845 0.46738993973248966 -3.1617814595811806 0.5398768993727023 -0.8256994958343199
Ni 8.314518294979818 6.551121362101276 7.439879990736465 0.1494209457697104 0.17570044829152967 0.7127167382869855
Ni 5.224907844509097 2.9384347043661214 3.408719439872114 0.6771059310619113 1.4124887434878448 0.9948989097825383
Ni 0.8977911301523845 7.142841626080931 3.183403680291883 -0.48472519390122326 -0.9969624771797863 0.0791598954606185
Ni 1.9582485450395029 0.7136775020584308 5.447382364346085 0.9184746680855278 0.2387575246530146 0.4844549709589721
Ni 0.9580712123488201 4.940839272974656 7.610650780257176 0.20936004532750396 -0.2596348823226561 1.9925972366870848
Ni 7.5921120833689395 1.8186335144322745 6.090839600315971 0.5284336905327673 -0.8701415281977787 0.6256712694307031
P 2.698854573140252 1.8001659177911067 0.08023247360755321 -0.6079363140447852 -0.3925999965291884 0.20711650070896587
Ni 6.04557090404931 9.15162674932899 5.677549561563951 2.4433378461127466 0.09621865071511816 0.3254942040196265
P 8.589205327420547 4.4185664061641114 0.5580889237364247 -1.5413704316536228 -1.3822266021691936 -1.6261661852437803
Ni 8.10879850219553 8.405665118202302 12.140094789895194 -0.28218654237092694 -0.09158372304626808 0.05494884543205374
P 0.9956158363203141 7.53645074709246 11.518653699261076 0.5572758115754403 1.0527641575304385 0.4212724247632164
P 6.140817533726132 7.279077086502826 12.20893829665414 -0.2331067541251405 0.14174388884042685 -0.12922878709255162
P 8.767112919663237 2.4104091812018535 10.452365140734509 0.06005351364847077 -2.667616460423296 1.067205272656433
Ni 2.9520730244856237 0.7189860127129345 9.633610707307163 0.3755839215871661 2.6591793853995362 -0.8000869374725382
