# total energy = -381163.64727721515 ev
CRYSTAL
PRIMVEC
9.35214418374264 0.00000000000000 0.00000000000000

0.00000000000000 9.35214418374264 0.00000000000000

0.00000000000000 0.00000000000000 13.68780834212864

PRIMCOORD
 96 1
Ni 8.6368640079772 2.529128369341656 2.2749408351747515 0.8778589514466946 0.8115450587108088 0.29429772381216407
Ni 4.612440032266134 5.310895557797088 13.033585615373187 -0.2657718484583294 1.2009080363599383 1.5417807797181642
Ni 1.8710086410579714 2.9040651760748446 0.46962071864381216 -0.9336125521682307 1.7159203112804768 1.1825598728700537
Ni 8.279499879896369 9.021283888767595 6.221998264095243 2.026158617582298 -2.4394043153862954 -2.167311666916261
Ni 5.915726769337221 9.106481920977801 6.612730842113066 -0.2070501662474047 -0.8377078331491056 0.035081674194481514
Ni 8.937320339570753 3.569376703125779 4.413455398727899 -0.44401563199700306 -0.3552606366487817 0.31300121375893836
Ni -0.041617976195239874 7.750739007982779 1.1359871675425306 -0.15227692716126676 -0.2833525376545701 -1.4065240412639777
Ni 9.289437914844788 3.4653621571058113 9.13126042661347 0.016109246857036776 -0.12453523827162423 2.0870464542066056
Ni 4.493761324390447 1.6677491424787612 9.755574959833462 0.4933890402238083 0.14841307333048634 0.30272579997485927
Ni 6.493156198838287 2.0328194372490773 1.6431258824341675 -1.153166250199285 1.7193223949834906 -0.5645980562684663
Ni 9.259529758202829 9.336993567291428 12.364839981030531 1.4963288180329521 -0.5714611019368868 -0.35306414321809515
Ni 3.0024029706621453 4.269721361752941 2.5760041209165423 -0.1376164969356146 0.7688961136920306 -1.2074972595416817
Ni 7.017297111595802 4.0634691770807265 13.423701887098733 -0.004012206483186639 0.3309822237173913 0.27442926702301124
Ni 1.7871947261657803 1.0174384544690087 13.308026152674495 1.4173545562205783 -2.005590820733275 -2.580271458048724
Ni 7.916898551152781 0.6786233688783777 8.120579831428225 -0.2256189303885276 1.5962364875638833 0.08550974893804628
Ni 6.326098849840383 7.909921851698465 4.679054419053189 0.15551086071753217 -0.18733751830982576 -0.8807702115562186
Ni 1.7875501076393245 7.2507172747060675 9.71946633169256 0.4325256290795325 -1.177036114838347 -0.8456913655752144
Ni 2.8588101510622006 3.0596100357587233 8.896349531743127 -3.0728416019156626 -0.22586652762295942 0.15049849510460533
Ni 3.0182267983789033 0.46187527294935643 1.6426601456609438 0.11227030486134212 0.8975322615059058 0.12928946512715797
Ni 3.2736712607048695 4.31989561453096 11.328728100555582 -1.3335746454894453 -0.13421929832860754 -0.8059709070571409
Ni 4.740162263429117 0.9954796202615924 4.868233329564816 0.399253497289964 -0.22917116651616018 0.07824766805899427
Ni 5.494478145314797 8.823794663061458 9.026712808383184 1.0540242551897847 1.0877985234267524 -1.3945650691298885
Ni 9.457823268296462 4.448917793715592 12.885100689225585 -1.4178829179202228 -0.7076838038487683 0.37762640593849156
Ni 4.135555503345959 7.536359810139251 10.072995145502327 -0.47717540657842333 -2.0412484220358844 1.1469832613170245
P 3.33780826453556 2.3662046680097144 12.301424962719778 -0.3244217968910542 -0.6655575641026795 0.46634360607024195
Ni 1.2657378787479279 4.499063990061488 7.4833574690033435 0.7336306056215172 -1.0436483112720993 -1.1131778827318055
P 1.0095358927546703 7.300236877401242 12.862241243547055 0.09227432135538946 0.24116510565324273 0.06407317633082514
Ni 7.905021328221172 5.055320165454552 10.761751562448735 0.4238820944719216 0.031011360779849815 1.2251962194833417
P 4.023918959932872 7.575938083719228 7.197432498820133 0.41323181384692703 0.6648628520285002 1.1316538300488057
P 7.9142986551094845 2.7558711016069064 11.796864633940144 0.5150374717315195 0.849969424125278 0.023115760081856965
P 6.853316617987268 6.2284344096240085 3.072899432440469 -0.958549938839859 0.7278240262420691 -2.287949112795376
Ni 8.380306640510398 5.622845674416584 1.526108115340098 -0.6940875532215723 -0.15038716633772164 0.24292991086314938
Ni 4.533348950114465 6.866316098203754 1.4453364529043258 0.18326411957140049 -0.712196089896825 1.006747581591008
Ni 0.5437280432362259 0.5856106851078158 1.3362203123101906 -0.22653475733457762 -0.48693402862708396 2.824030292571072
Ni 5.514865819323386 5.117539979756912 10.246337135295537 -0.22861118024763208 0.8042097013916601 -0.5857302102613913
Ni 1.8748991329788764 6.740454943704858 7.149265216153235 0.8833487709166722 0.5730474725874001 0.7106050912606213
Ni 1.9730218282532426 3.9349987743944927 4.661821223229507 0.041914380845598787 -0.24931293157135775 1.0707672789760785
Ni 4.309009718867658 1.1790341513471798 7.206042082623943 -0.5080474135669315 1.7655253759021143 1.3690255300978873
Ni 5.29801765545313 3.5199973825912143 11.926091625079266 1.3535598303621206 -2.122022198950842 -0.3560072850068191
Ni 7.433888367885989 5.591048384678417 4.911035287195601 0.08099772000030567 -1.0955244313161003 1.0085440113697988
Ni 7.0313627362329205 3.1024522076088825 9.85218354298765 -1.0687623327309077 -1.3270831242278307 0.05169177194733679
Ni 1.798108678261204 7.831850153247227 2.6295919062693938 0.1716923555734011 -0.7285907292047645 0.21116136020230086
Ni 2.7154604872073125 6.593897494444032 11.749778459124343 0.5014677034668847 0.1982693347309811 1.2836713329010987
Ni 7.505151705475646 0.918175732836089 3.401516004954785 -0.5164220107838718 -1.2098775868484002 0.8163283390320651
Ni 4.136556182758307 3.186181953204708 0.5917213760239682 0.8877540990732194 -0.03181945850344197 -0.3957681098445249
Ni 4.825378999927404 3.7327212509395493 8.357762362086037 1.9704718655429545 -0.09417385237094748 -1.3787090759342384
Ni 2.8117595143937546 9.184020547218724 9.037142319417303 0.46194342012001727 1.1243912349491214 -0.8633401890052292
Ni -0.22914903892690633 7.758763147569646 10.483273704565084 -0.15305005788186546 -0.7220963797296724 0.9537746289384026
Ni 7.114914791091974 8.937872116069151 12.562301150304545 -1.3406156114966266 0.025361361582924062 0.5549088540051604
Ni 3.7702794614067487 7.344294827976683 5.124017274719457 -0.6441968390387164 0.3252319514971753 -1.1167031222762445
Ni 1.0452049701256607 2.592021538014942 11.22753416117827 0.10044091632658186 0.5401566353966504 0.6764461859907254
Ni 6.982329445027859 4.750206466128762 7.96345726504469 -0.26536124328347205 0.23011733247951335 0.629348204061658
Ni 0.5814293415072469 1.850162711991391 5.7179859709563905 1.239161680524498 -1.118835338127899 -1.7039826793026267
Ni 9.180251633170347 5.771516708230594 8.760306698027188 -0.1485254305386345 2.0742130498873634 0.2661562283809416
Ni 5.519878568529167 1.42499553961594 13.246389912160272 -0.4151246599942657 -0.023348959138585593 -1.28697262936019
Ni 6.475639633050173 3.103864381359019 3.9718593149162604 0.9827962129817331 0.04692391824504821 -1.0971797075313363
P 7.354161339939556 6.845236365536158 9.739259209340165 -1.4456030095433103 0.21642260860124016 -0.14941168979832978
Ni 2.2874596151875486 0.18946415090486618 6.591856856614364 0.08799934812911941 -0.5790566548959576 -0.3332188263573939
P 7.686583299864008 9.720150908636336 0.9287492668884334 -0.10956524722535324 -0.6711972788869602 -0.011755597874031368
Ni 4.879948760404522 8.336688240704866 13.007934554698526 1.6547267704902922 -0.5907310059100924 0.6643152070551462
P 5.2231537424078285 0.2700132323124708 11.15867058374944 3.0434389803838293 -0.7391055126931594 -0.20086434915166695
P 6.488508183250091 2.3424128135703333 7.8689295339395455 -0.06402226848823168 0.063195144601246 -1.2076209296037397
P 8.607993939323753 5.332227798353781 6.698634961198341 1.0264592010873226 0.2682971859833444 -0.4736062011699263
Ni 5.685645321649463 6.118022997080245 6.248306780495958 -1.4862166692996146 -0.06872018818453327 0.8856979878751392
Ni 1.0048037078701078 5.136721227184259 10.934614722467066 0.16819616949468452 0.1403089561661132 -1.030452895627748
Ni 4.8513031432080505 5.0225970134563624 3.953394441722426 0.08470833608267347 0.535883204832277 2.1132863617397413
Ni 8.585464624329857 3.143311724922427 6.964343401608906 -0.9042081308641846 0.41893117822454945 -0.09667990662225286
Ni 3.3862430185220203 5.108702203638509 6.317936298521716 0.8853187501588495 -0.7806005466131525 0.18019525083808968
Ni 3.3393794247343873 -0.03196562833089815 11.822269733226536 -3.052297459215724 0.8000175176871835 -1.3811688503286408
Ni 7.53869784614941 0.0909178035054592 10.18823226437106 -0.6549365940537236 0.1860949041519763 1.7706256732431571
Ni 7.34966295865601 1.5295431578462237 5.760171622294897 -1.3401589835751824 1.9586399059050335 -0.6588068756424073
Ni 3.012802554835334 7.8671825534327535 0.28405921744710394 -3.727512601012825 0.2048683281047375 -0.3010101028353332
Ni 5.402686851555941 3.1509337223155462 5.916596518733 -0.9494371779053131 0.6752046002741404 1.2076913778303588
Ni 0.9678346824774687 1.7692760181839193 8.01707217161526 0.7238758402275984 -1.0656793229302097 -0.05142437721856305
Ni 2.2128295057432634 0.19385217688873319 4.072520182083256 1.0388061526884498 1.141413480538731 0.46974851798673295
Ni 0.7516103066147231 0.5878841913240948 10.096633624779441 -0.21670491572834938 -0.4329380340266028 -0.35238357221130284
Ni 4.499830865872821 8.763033783229437 3.2053968683506016 -1.2794410968698353 -1.2751129018081264 1.7282911741410039
Ni 0.5402555921539373 8.498106246846266 7.958995357122902 -0.5309176332968856 0.30251471240531774 0.6374916591043989
Ni 8.25928054448051 6.768754531571826 12.8402730571956 1.4270905525614197 -0.8334577996235001 -1.8204114864170327
Ni 5.403313445206664 9.303335200889174 1.4139235362862295 1.5107917875358174 -0.12417065584335389 -1.4344842739223294
Ni 5.657467311655022 4.444391355999923 1.9587803833081603 0.9559472111096893 0.20213113167923252 -1.0816610430704467
Ni 8.50991800476959 8.02019298208162 3.310998473214265 -0.8632854245078939 -2.2649511092383054 -0.37625060863688753
Ni 0.2098546305566676 5.790314517752275 3.9822486117310043 1.0471424404682868 0.20750679416884907 -0.8173025300198763
Ni 8.829490118782205 2.0203904378190707 13.623325272074943 -0.7168690698924621 1.044085398809518 -1.1078197037436857
Ni 7.193968464667481 7.425340508232846 7.637536915657289 0.6919527662667567 -0.668469595543152 0.6191319256502885
Ni 6.562446234035368 6.858619283658309 0.5094889086890488 -0.24818575994544997 0.014157008226672393 1.173796524855127
Ni 0.9912992118754276 7.82324618072984 5.3075156929408 -0.3136056801121566 -0.17531632547923356 -0.5837933982499945
Ni 5.957399923182301 6.76440578459293 11.845908212503652 1.2492802570157386 -0.11594775371292933 -1.258677896180555
P 3.322152775411533 6.340454390942762 3.098522436683007 -0.6060424394561821 0.3973891903877156 0.6609164657862424
Ni 1.8828765118455402 5.223406250296926 0.41767516978449665 1.185735699494874 2.065582370795559 0.1021203609115338
P 0.10058605001466998 0.20463987503960826 4.162380258097718 0.4755396707472133 1.8062153974223085 1.6153418409347664
Ni 1.8660613568604743 2.3107745102808575 2.8901398335983357 -1.0708870923833944 -0.7121901763595541 -0.06916061815606153
P 2.973663832025267 2.831193269710199 6.435432895390665 -0.3471089540759248 0.270273850093741 0.3265876941941214
P 3.5355499981307945 5.158362088494293 9.27714452150337 -1.0180131272024981 1.2607471200047577 0.42937654192758956
P 0.48087041271029474 4.149228337933371 1.7293591969896713 1.543202342656039 -0.15316344353127817 0.28468256931990327
Ni 4.399211148139604 2.3657277086636417 2.968174123473413 -0.055919436875439175 -0.327624620099068 -0.26514449928697564
