# total energy = -381164.0907144709 ev
CRYSTAL
PRIMVEC
9.33012664317409 0.00000000000000 0.00000000000000

0.00000000000000 9.33012664317409 0.00000000000000

0.00000000000000 0.00000000000000 13.65558344595040

PRIMCOORD
 96 1
Ni 4.434179970298805 8.276195467800065 6.729034694338246 -0.4453050402323879 1.2706893188191342 -0.6834966650796035
Ni 3.4307435185368087 8.789716303785193 11.981244707334035 1.4423942727980255 -0.15756517214339957 -0.43372479159395627
Ni 5.474050566295288 4.996767941886793 10.951682035166044 -0.4612060277333605 -0.17132134538722754 -0.6521626308530123
Ni 5.382671306722289 0.4947495543499513 11.058072535368714 -0.08568921193870403 0.6752850758030886 -1.4900488985615112
Ni 8.749027621837282 6.999731522380248 2.626993234546837 0.5263948057258676 -0.6494783991526298 0.09500174758888155
Ni 7.282033161843211 6.411840247549257 10.660163163669983 0.15840078067081753 1.0547799024088866 -1.9893576467038645
Ni 4.178319909519718 5.90722035230669 6.164703855108005 -0.08201407707996199 -0.3035452105523611 2.2115189575610947
Ni 3.8602932154411724 5.7056522980066 1.5926236811728005 -1.3173234737379056 -0.47404483136924164 0.9957419745091237
Ni 0.19472440646500863 0.3400551228973992 12.702027773861586 -0.1826182584572855 0.6537731698732417 0.19442784949770386
Ni 8.459383172768034 5.965645604853773 6.125006965613903 1.7010115124894445 0.8506294263067801 -0.24562622674838988
Ni 1.6775194357961092 5.531132280617079 2.8684643741381075 0.3669113335138326 -1.7479367162860737 -0.511373649726687
Ni 2.2443806053506505 0.680871584122464 3.106754873583529 -1.1835996269884776 -0.9695244355734915 -0.8162702321006201
Ni 5.749205328809822 3.3698364523235615 7.20430294442146 0.4949116475159218 0.007607122923296576 -0.33693329909450365
Ni 6.0848659620953285 4.768916921054423 1.22097021863931 0.08875422401727294 -1.4378048536551302 -0.6342813796972173
Ni 6.989216469742024 4.27413097921087 3.207560360024673 1.3470989052281253 0.8178013240331657 0.6893384685723613
Ni 1.6470285821832271 5.102459615609781 9.505610383992929 3.048642893182272 -1.187673025726903 -1.365068088112036
Ni 8.801621545281533 6.992883209481883 12.426062223348595 -0.060571590935469884 0.6055354179127764 1.4931349936860028
Ni 1.1612742028541387 2.578324495348283 11.960338692740894 -0.18009574914574789 0.09814055032817938 0.06557804301112578
Ni 1.548912971230637 7.6966359959911985 12.270988988757521 -0.5683045585857761 -0.16536975578948296 0.13347624951499593
Ni 7.55489271322287 6.892229804103741 8.43758053301204 0.7787113000102395 2.2016076119846537 -1.0181051726956725
Ni 5.413498044891494 7.477387351851325 4.872625942882448 2.0655936836494684 1.0704677454577887 0.4887140033456422
Ni 4.548819235397176 4.3175907087484475 12.861415258976097 -0.16740041306626655 -0.8066054553173462 0.9222035390003408
Ni 7.173859674454058 5.472081909590173 12.60130439253421 -1.4298483178122148 -2.078039108501673 1.9421611915237198
Ni 6.623596800057814 2.333781878091971 4.214973311728472 -0.34838653523676777 0.11232326958646462 1.4175746426511844
P 9.337683967046562 8.595295126433532 9.645594004891189 -2.4646931718600715 -0.3178176613109752 -2.167545380193622
Ni 6.775967096983141 8.6249742590353 6.798295955877374 0.14157393892146586 -1.0650144356527014 -0.583870274234517
P 7.754296178159991 6.151632347791099 0.8799074420729416 1.3857970931292714 0.3118796985599855 0.5434314494931802
Ni 4.234813825867944 0.8035244949271096 4.145670997632461 1.4658671591089851 1.092702388486273 1.247545276602503
P 7.0675802027575045 5.097477328024322 7.189719023588445 -0.4577121556474891 -1.4564448373538208 2.3169416433729837
P 1.1974937541776411 3.0388315521937557 5.503609340264374 -0.0669947208529943 -0.6030938983508194 -2.570144396917051
P 5.191916869110487 7.162057064349928 11.757975711657506 -0.5117549443255058 -0.4113675069446786 -0.18386678615240593
Ni 4.0036599402317306 0.5132819847450758 8.94866807198914 0.27097164749171404 -1.2827308233647006 0.7151122351023554
Ni 5.330366617201538 1.5323799869582913 1.692841369640379 0.2105872328663857 -2.0258649976012784 3.0471814781453967
Ni 8.24547136102307 3.192834621267876 5.7669988131810355 -0.7170289925090941 0.6979043558645013 1.771287218086556
Ni 9.110728638364389 4.163485008282117 1.7544967120041015 1.4028453068608098 2.4323895746313595 1.16271404178872
Ni 7.6267813384025684 1.1316883715180162 0.19614165269016065 0.9354640035546729 -0.0994546411539126 -0.47048668170433805
Ni 7.9620407762458 7.876539496408453 4.739197668908428 -0.8543791231571994 0.5469227504758905 -0.4365406637761966
Ni 9.152154400310899 4.779413313439519 4.0802061645924415 -0.04370335442522151 1.2672455832449079 0.9533231432232808
Ni 5.531664097831257 6.819548118166058 0.5614767535141519 -1.4684418618146968 1.0676351611050001 -2.3530116496226636
Ni 0.39458131555316484 6.592331545940076 10.317202639360389 -1.2782501618855278 1.7221192410023374 0.7735287273680356
Ni 6.911720438497043 8.365344827124144 12.229844996633261 0.33674740833594263 0.140822405467422 -0.41190769571886476
Ni 4.545357758441736 2.988514179631249 5.131194539403218 -1.044409614918156 0.7523199545009044 -0.22710168558164112
Ni 8.829397332064136 0.49041664357338394 2.547585460368785 0.060712487388708346 -0.750017788730289 0.5817218604329466
Ni 0.9060485906814398 6.000596258964499 0.5921131571014404 -0.004375760470192464 0.3904197010484179 0.03735915737474856
Ni 2.1139267757254023 9.219965760181896 6.783916364816121 0.5595453243359073 0.7790026059984132 1.1510378910023726
Ni 2.0318589824638025 7.913850672540005 9.126435906435773 0.5011771688096593 0.06861091630017861 -1.2061664565454002
Ni 7.724523744292577 2.5143011668624835 2.0401581300429514 -2.977520009093517 -1.7393471748448497 -1.9679537271067913
Ni 1.8419162658631152 3.7322558885961374 0.4590487580634365 -0.20208099516758748 0.20435256481058356 -0.48897188499271915
Ni 3.3567929353863493 3.752782167038102 10.73455879385757 -0.9352014939219054 0.3994702412864604 0.6051862621034738
Ni 5.687449221079203 5.58353960153004 8.677071819746319 -2.1878478391964 -0.2708693175858948 0.3586778898604468
Ni 9.329800010099536 8.254624215182874 7.02175528613582 -0.5496190663611309 -0.6602760039887661 0.6353255046910156
Ni 0.4218961940834808 3.210048704779433 9.799151093915526 -0.5880660574834194 -0.9196779443650097 1.0030595912164597
Ni 8.195042026941788 1.0930336571611714 10.705936764595563 0.0639407645180189 -0.2865183369770614 -0.4133814520509138
Ni 1.5589148669078128 5.963546326376754 6.997134948157339 0.3013978251920551 0.31608396644932013 1.078590374564923
Ni 3.3757890730717315 3.437171975739769 7.17519015050216 0.05706666310600494 0.2660189314721289 0.1689911545921541
Ni 8.47354630489299 3.427310031961062 13.412500117522676 -0.7394515831786684 0.08614069765382583 -2.439739844348843
P 3.208443923010334 1.5917289220352622 10.980003634352672 0.9939789690714301 -0.20951096908307146 -0.9523047292610953
Ni 1.3044636552399695 5.0685352754211515 11.959737832590138 0.048489720070271324 -0.14345084422920457 0.034306743701669945
P 4.82247184753482 4.238321953456206 3.3639575395752512 -1.070124246075441 0.5171689162522255 -0.3895907773892194
Ni 2.4260008490557783 4.76590329017408 5.101438899763621 -0.14537274384226576 -0.4369132166242669 0.24385088001552196
P 8.057282708216515 4.260751577717335 10.932468505531709 0.09063524309006972 -0.8021700452538121 -0.3665166691785753
P 6.504077878766194 9.746436811838592 3.6950370807175736 -0.7018916226470234 -3.183786503097362 -1.4279091918079732
P 7.136343235538086 1.354846338688428 6.522835165211524 0.04404274004251124 1.1863134263752149 -0.05527614686448545
Ni 1.0166572411039345 3.4870041817209203 7.434973529501632 -0.27482418846858475 0.9834947817106546 1.605039944788126
Ni 0.9001388885154669 6.70614975990077 4.852306793250217 0.7767395209958494 -0.2629536622832439 -0.1785659427647828
Ni 6.286769900951742 5.024422437024057 5.30273638039334 -0.8076099853224608 0.1917202207585537 -1.3815743132971756
Ni 6.801419682251178 0.7638527967747311 8.577454058416839 -0.4186115901016017 0.3492923348804888 1.2308837567864221
Ni 1.303922507899227 0.408185573096905 10.646370437569638 1.5184703871269978 1.815509935350357 0.8876139739509294
Ni 7.5332748099728555 3.0018655907450906 8.751753884819436 0.6770257126432792 0.7952064694517853 0.6296181698935931
Ni 3.869651332385396 3.2570725426646607 1.3119342875801883 0.23059607188814477 0.45036985634980503 1.1624785287391461
Ni 5.540042551486204 8.110427109128073 9.40035349416785 0.29238636572206417 -1.363654238483645 0.22302083064404818
Ni 9.048123489116398 2.601939045683107 3.695105190641495 2.312693152509275 -1.2981870100187705 1.0909622658667146
Ni 0.4578843582681832 8.391777075681453 0.944040866052203 0.12800777020125695 0.03151992498515217 -1.357111809379437
Ni 4.662693430117257 8.277744268809778 2.854153826013432 0.1306799177167814 0.20548127909838804 -1.7656333622348883
Ni 6.424295966512903 6.451362663676604 2.9112336743099094 -0.5270969739992148 1.232478869187684 0.19973614908449472
Ni 7.112308829507858 8.248783555953478 1.000604758349662 1.4114137652561114 1.5333156796699463 1.2416703058789649
Ni 8.933605515663364 5.127119140119831 8.66043900311973 -1.2414191091001074 -0.7605953071358191 -1.061386866202443
Ni 2.3385962233992674 2.822158022985692 3.5893015553997323 0.27076107414280465 1.181894728482229 0.0887321125300859
Ni 1.7830991480003224 7.7393679756567435 2.704815820221576 1.047062222049655 0.1298425094171506 -0.5889811130985212
Ni 3.196230787337365 6.5225515293639615 10.64256094689334 1.0791048523074964 -0.2633475552875529 -0.1912399386880255
Ni 3.2426761573755916 6.255831201263764 12.987374766635211 0.4146361503936214 0.4345048642930904 0.7069664660667695
Ni 4.741253095790594 1.2085686144097376 6.947387646327926 0.48164038432831247 0.8739135936457013 -1.1338467239350667
Ni 2.7947087906328467 8.308561676852417 4.8207625683482 0.6191422100629337 0.1554920916644548 0.0441754089656336
Ni 0.1283862735785489 1.3884441244472978 8.153653585501537 -0.5650395146812591 -1.2374716944165849 1.0289842815020214
Ni 2.894270571202939 1.4643633643028728 13.079072183524062 0.15385121362692214 0.0023188779411637485 1.8271153807997693
Ni 5.176363548127417 2.891191629436644 9.537100494160875 -0.1432963209292113 -0.847527904563321 -0.3028818659367493
Ni 3.77700317559962 6.363678134223157 3.957429163104487 -0.6581772124782084 -1.7756838044923546 -1.6867976828829079
Ni 2.431001796894366 2.0259903328547137 8.891218750680707 -0.9790200337687527 1.2170357951597361 -0.02373411039214622
P 0.6043085655339365 8.709878410772516 4.393574326477317 0.4639810193753364 1.924002518336822 -0.5462496356682657
Ni 5.5446236436293885 0.5550445642605655 13.345246699220235 -1.5425117443469176 -0.33465273059044304 -0.33111412130956525
P 3.9093790112971614 7.077414156156519 8.225767999744097 -0.7198091263573926 -1.7381012182528905 1.6559169341436515
Ni 0.1998867654931627 1.0566368334329426 5.8272331772689805 -0.18261697290570483 -0.010732813036471838 -0.8220837534586035
P 0.4704930913074881 2.113730843067547 0.9091536568021151 -0.24096378827571405 -1.0450904430352645 -0.0618021209084613
P 2.6983005928415653 8.537112457177127 0.5094855562459689 -0.2878709943502139 -0.2703167875165345 -0.2153301468680098
P 5.916979664693187 2.8743320907345398 0.284528740673916 0.6857260686307545 -0.3751848863765345 -2.0300975476253877
Ni 6.414032827291922 2.517184175970923 11.772601618060062 0.5265668125273577 1.2251777075405803 0.2662063648925867
