# total energy = -340865.64021271106 ev
CRYSTAL
PRIMVEC
9.31517550309692 0.00000000000000 0.00000000000000

0.00000000000000 9.31517550309692 0.00000000000000

0.00000000000000 0.00000000000000 13.63370094115114

PRIMCOORD
 96 1
Ni 2.7042886635233554 4.120316470378702 8.850821663317305 -2.2892287508387477 -0.4494483729768002 -0.5990930047215425
Ni 9.08920818822502 6.934049133446462 0.26917411218273546 -0.10120144864169021 -1.6557760376904131 -0.15358561867036133
Ni 0.44668410071947573 1.4047098683545 11.049351244734623 0.15331719550032305 -0.19648036115135842 2.1405110017836493
Ni 3.0158254003318534 2.373301839809698 11.053809487834627 1.1221620885082868 -1.215861829456293 -0.6204231336578863
Ni 4.78168463138416 9.303336132520467 1.614789437281661 2.5710522534433013 0.3892071687975555 -0.6771856352599112
Ni 3.6117730822497007 0.16333788019502127 5.548902997140915 1.6512375263901111 -0.6304334667060368 2.171880774344182
Ni 1.7836977925577575 2.319953828456323 3.3810212753628033 0.12720275780145834 -0.10624955258855895 -0.10674294728520971
Ni 7.966133342615053 4.244143101236117 5.760552173177041 1.096321730406415 0.37552375777319197 -1.0907900019549084
Ni 0.7517402697789703 8.081613576026575 11.492515140549186 -0.7446223287463305 -0.9855784037125607 -1.9271166384857712
Ni 8.606765922465872 1.9652785128845145 4.411947608189291 -0.5629803181593853 0.18126045887781042 -0.44403542949134495
Ni 6.1680529187442845 6.128109445253229 11.16230613400822 -2.1566307901636472 1.2595986082226114 1.4170912752568625
Ni 6.419050328542903 5.240587448096691 3.892094665217591 0.061239049316139695 -0.9026711253943679 0.18120929392490082
Ni 1.5605341278130744 4.016238012049515 10.804012804186428 -0.7476757708606735 1.8157883858227246 0.6235724779201455
Ni 4.147796238755244 4.7688483192408135 10.73863890097742 0.1395299119082436 0.27567650916655106 0.7806370562780427
Ni 5.9288950972868815 2.461013534397331 0.9350647910006725 0.6709093153328962 -0.5682181695195568 0.566710988846411
Ni 7.401689584985159 0.5884703903667113 11.661818459275848 0.11341418865779823 -0.48378776968861836 1.6577143923637063
Ni 3.2082396700219724 5.785730161632959 6.924610997406085 1.4068515998067255 -0.5229837231617896 0.1909308920880389
Ni 0.9030271071439129 6.235867397992157 6.6829809283123645 -0.5253555658280759 -0.4141137022312481 1.1253502564282813
Ni 4.0769170666952075 1.186110639713039 13.096233491486602 1.3166812121682163 1.703871350535743 0.5000512827353324
Ni -0.12490253365317389 4.566466811529373 3.580959412482662 0.3541908006233706 -1.332526149620273 -0.6998254841466142
Ni 8.784154813718242 8.472981368762857 6.540086132754347 0.9401002167751035 0.6383264963008684 -1.2313982345289956
Ni 5.023292344056151 7.53034147686598 7.07765001932412 -0.011148560417651767 0.6047157502249586 -0.4524305955335757
Ni 9.076390506433114 4.75314293297544 8.884823917733595 0.9004381222987912 -0.9732689902175884 -1.3859014799176195
Ni 0.2989947842179299 0.17627572775372605 2.546788603952598 -0.3740690276045364 -0.4999049869654552 -0.4073756121764662
P 4.22677029851671 6.855829602918386 9.116160717655761 0.02869068306647317 -0.6845729288629178 -1.0486519351342778
P 6.679782096969821 0.5408167459314993 0.29557145714051325 -0.3526620226836701 -0.09831050024714036 -1.1975997979223114
P 4.2644222387804325 9.280178605678406 11.402805340769428 0.30923840428239646 0.20726999556769468 -2.8626210083600765
P 2.60423436110558 4.48178254905102 3.9183122272839563 -0.39181015363804134 -0.7544776242738556 0.34375469289171123
P 4.7732823428839435 6.344482346897404 4.828825009637153 -0.7294862444358404 0.05652853121434781 1.7618181022538562
P 5.8191902728222935 0.5256143791550529 6.673301529220818 0.0998261655607184 -0.4024491214091263 -0.1896761937453314
P 8.468128162212288 -0.0368387254232917 9.857479168838232 1.1616971704884316 -0.545800463945989 -1.2277300416487889
P 3.9840354495824957 6.1528691823192805 12.492778709455314 0.9797643681339447 -1.37175424188296 0.20233090639486445
Ni 8.989023473347153 7.335738140881459 8.665403090593554 -0.03747717100985159 -0.012164660386991953 0.3405300153068264
Ni 5.479819790959861 1.6856276225685258 10.799200584409032 -1.326362444011722 0.8908615343539497 -0.17233436003277416
Ni 6.020686838840253 3.550861148210986 12.557620716130659 -0.1936896857800987 0.08961477224535534 -1.1241847753652703
Ni 5.116704926184951 8.070407419634378 13.00285630702554 1.8648581467661818 -0.17854177439506672 -0.5196497736925502
Ni 7.618705233754074 4.2416745796700885 1.3126815213378193 -0.1280090557528376 0.32193451169282616 0.2627353756248507
Ni 2.376413108500466 0.3021498342345858 10.012426870261473 0.3765414004044289 0.07947691248040506 1.883539782336085
Ni 4.833206868296247 3.0888098021048047 3.100630760094578 -0.9295682068955281 0.3693024594538285 -0.47486732727053704
Ni 9.12184856395092 9.069553167454004 13.278420629752787 0.3304911430135857 2.315354501391522 0.7731065522289525
Ni 6.28583400055886 2.5324143562977364 5.537341001036182 -0.5905008921771573 1.471439253880124 1.433543250165299
Ni 1.9766709727911282 6.41005186879655 13.211615915553056 -1.5619040328306004 -1.8595187368311394 -1.131400576387419
Ni 1.2118484702297796 1.1347001849096034 5.565945111122232 -0.030671203831611697 -0.23463193252041528 1.0321971320123642
Ni 4.164386566714099 5.590148732197746 2.799353757825037 0.07949670997474696 0.9562673134532691 0.7344317613665738
Ni 4.845512215423505 0.26238055452951103 8.7213015970593 -0.8852537012488689 0.5839587201832652 -1.1006856638020657
Ni 6.573589093751998 4.044584091768097 10.225548775579067 0.9468336788441951 -0.6695674565930211 -0.15455903832722412
Ni 6.267017345602719 6.2797418756374155 8.99589807302915 1.2616601187373304 0.13772294060649184 -1.9594413187604058
Ni 2.471427900853255 4.276056893255789 1.7354200313492478 -0.051279109889950394 -0.5117575154286671 -0.3338793427595282
Ni 2.9767575533585595 7.3069076720253925 10.861438067952825 0.19757899353217584 -0.4723610159089155 -0.5921494835241737
Ni 8.350756948129431 5.795091913232425 10.74462483289565 0.9752729080214945 0.21865484036586857 1.321377332092305
Ni 3.21858883024785 3.8180483334124617 12.883452521600393 -0.21873145924007492 0.5787360383317453 0.47644109951556013
Ni 1.120857833788403 3.6908961848226998 5.29921530104865 0.24719125724266464 -0.07566268094063744 1.0406671171565882
Ni 6.307966858071627 8.639750959693444 10.149867630434928 -1.5920903266059936 -1.654910347256008 3.0907783888997415
Ni 3.5076480480419083 7.305761905411726 0.8519221901041215 1.285179027794877 -0.7841538111820495 2.3031767283784075
Ni 7.427902489463665 1.8312517646127566 9.58435542214985 0.6931187615503999 0.6902836060944498 -1.0230074950932964
Ni 2.720739263846397 8.701743454115778 12.781867735811678 -1.768662121758883 0.49575805467661715 0.07037186485534333
P 3.8197809560965417 2.5697775261141125 1.118319448404468 -0.017597658477105177 2.5374893298861916 -0.654443199357073
P 1.061846195596744 3.6105900549331507 7.422186697641343 -0.024670763273802673 -0.1871829950098325 0.07753675803489872
P 6.909298711556132 3.187401621934405 3.327291341804873 2.0405380262324213 -0.5530432615513314 -0.2197568151807957
P 3.9675289582051287 2.3067076485812574 8.964799358885053 -0.2070596793291015 -0.26880626440927896 0.8936822916321963
P 0.5540107608225278 5.189046580833163 1.375327009578186 -2.0034004979501754 -1.3117966303824053 -0.8045480585676853
P 3.7723387661501935 0.8974519744749772 3.456211510746454 0.5576247102744267 1.126311849010602 0.4321715881742234
P 1.7863339872867614 8.216646363276187 5.986857846692372 -1.211792544482926 2.259374643591793 2.534921569159015
P 1.6581012783133795 8.295909193484999 1.0638163552617064 -2.651489472954446 -0.45537527998419636 0.43109609572185753
Ni 6.628380957342106 7.4412045603930554 4.763683054303597 -1.5026635020017283 1.906370921297988 0.10994602760353966
Ni 2.137078298704367 8.96120835864466 3.876484293744571 -1.7339905385186267 -0.4205836262263079 -1.2100537074149482
Ni 2.5938106794739353 0.8131859633864903 7.862078172225167 -0.002476743675266702 1.0569635403237667 -1.8382459434952925
Ni 7.136048718953347 3.6704493741154085 7.7473235910023 -1.0568601819766832 -0.020401703584803574 1.374507379148065
Ni 8.13778408562337 6.334766618620546 2.759406558263694 -0.35255686456437346 1.776449479013786 -1.5260955077724234
Ni 5.077068853492684 4.662636685671549 0.7931797604907956 -1.0317083653014039 0.7497892176592506 0.4188972396628205
Ni 7.660642154849393 8.272667830061447 1.3364799322694767 -1.794449258025316 -0.6763227730389837 0.9777648212054129
Ni 2.7130262983495235 0.8472524925152535 1.5255975612719825 -2.799706885334359 -0.2183203398445853 -0.24932501575621577
Ni 3.7022513840264297 2.5098623158775304 5.091533458352039 -0.8347832033031429 1.0531166557738507 0.5383859166494728
Ni -0.18348101617381257 2.547514256141253 1.8386685075217069 1.5526182366533003 0.11720116650405621 -0.07680527918551289
Ni 7.338467487367671 1.0483764515043783 2.317702350484591 0.14436718539588686 0.5200061285907044 0.977553219415239
Ni 8.204871981165017 1.6070541153630578 6.916690303490635 -0.29925095405238145 -0.004280372542908757 0.07812862598262674
Ni 9.37861206752075 4.648291315061422 12.869409894201194 -0.3025648489169628 -0.7538477039993404 0.07378166186784067
Ni 6.74788534666504 5.757458603320143 -0.3858392359459513 1.1857608963058546 1.2696125408151877 1.3242873066502485
Ni 4.812070734585612 4.492019927168246 8.510933257684792 1.814135937820966 -0.08232260945931628 0.06051682643813448
Ni 0.4704769225457006 2.0037129279087895 8.838523768330623 0.44628977274316045 0.5093442780014841 -1.2470796498199943
Ni 2.3811359025909424 6.732943804808778 4.799199024774525 1.5831012357335057 -2.5594185258591144 -1.478879512208253
Ni 2.269232696656231 7.840937380926672 8.548643883555556 0.06312212527146548 -1.356787850381115 -1.31099804574051
Ni 1.498588209269344 6.587161304777293 2.60207324033834 0.35754326203537135 0.9287904481892393 -0.17731175864270754
Ni 8.561363756002393 6.587925149186404 5.085547526433814 1.2862619764464105 -1.179153418291666 -0.047008764649370656
Ni 7.045943024205452 8.53278479689079 8.15568040121829 0.29822534100134446 1.0902549553870449 -2.4680579745672464
Ni 5.878341638649765 0.83817764832799 4.181510654241759 -0.5044121308071893 -1.5672043619975913 -0.132352677433514
Ni 4.389823134334672 8.08588924168245 3.553556028547031 0.3832352674848368 -1.4439472191074423 0.10883531103786417
Ni 8.145357323484431 2.0537726822327005 13.281024221366767 0.45241619735587246 1.4506737391979982 0.1348633596705097
P 7.735722471159539 5.880521389768447 7.330936167797355 0.718876330130478 0.2519043464476178 -0.6486106518356959
P 8.881340042013992 3.3999087256544223 10.77033751243794 -2.2216501324578255 -0.21809562542828892 0.00982624206180243
P 4.5627593715924695 3.8317789024250115 6.615235381364826 0.4522125659854986 -0.5987657032891107 -1.619424238534256
P 7.793122583951489 7.543140528306444 11.967035780875312 -0.05747855383244295 -0.13528399214769607 0.6490266563271919
P 5.461552731371251 7.052091040181221 1.6355809094906244 2.0265216573486713 -0.35019196387662266 0.44217986433984496
P 1.1188830165355803 6.3504067986558725 9.899199046339255 0.5312490484943755 -0.2852962916445022 0.6864565190388757
P 1.0906487189256484 1.9490514767787734 13.521482441354802 -0.599610053567277 0.08897328200661452 0.05778682910148113
P 8.188011513110258 8.931353220459298 4.189445320920789 0.1550560325683007 0.49460748601194177 -0.20127264033367917
