# total energy = -340859.6136018101 ev
CRYSTAL
PRIMVEC
9.39214387023521 0.00000000000000 0.00000000000000

0.00000000000000 9.39214387023521 0.00000000000000

0.00000000000000 0.00000000000000 13.74635192654093

PRIMCOORD
 96 1
Ni 9.02896859180408 7.895477691155944 9.319133245911747 -1.1976910720845373 3.2000806122716954 -3.0273418177116507
Ni 1.073794433278377 1.6513455452935897 2.2143313203677977 0.7223069530785818 -0.051561931237691844 -1.2020475492810203
Ni 8.914468964097228 0.5678556017468356 7.240959837353173 0.6026496117245491 -0.5678016508074286 -1.1645125284500397
Ni 8.593858735945222 4.629406570089642 9.353801527905967 -0.44411024859333836 -0.5782272170161267 0.506554888181805
Ni 6.934821024702006 6.536631686972558 9.530896038626116 1.7365251320150221 1.1002035819593246 -0.04914612270734761
Ni 2.222077960752722 6.122362998686622 1.0797349643689014 -0.8680329664952082 0.6705796999076193 -0.9101741186396324
Ni 2.92580313548747 2.456289856095661 4.794562726550238 0.6790687112152368 2.511350209596978 1.7689410864518826
Ni 4.7705517103716994 4.597708084033483 5.599398088481717 -0.8165404550428712 0.5910948170074143 0.08025004320100372
Ni 5.149543505731137 5.630787572999727 11.438257341597273 0.4289983326525644 1.7431125554245528 -1.0995908880759901
Ni 8.12921997929805 3.6643449880918997 0.08654485025572631 -1.5135091864669805 1.2236203903557896 1.168747906687626
Ni 9.086194925297464 3.443808054437188 3.0665500488632222 -3.5269470140485 -0.24937515226786083 0.6006048133803786
Ni 3.5006962707459732 4.354320063986287 12.125437315432308 -0.9108402914687217 -1.437668328077266 1.3906711333921211
Ni 2.4086904702193324 2.0843985216128034 11.559788867529383 0.6470687612698728 -1.1501385191165547 1.070278512265118
Ni 1.5502954678185652 4.011262611634513 2.0380069654570145 2.291428586703544 0.24340479361703884 -1.9839493312040994
Ni 3.988148545209563 4.362453660704697 0.6757215581347353 -0.07772033480061454 1.4464954394505927 -0.5041300807903963
Ni 6.040717090749975 7.65241839614933 1.410128049728639 -0.034878042824107676 0.13946846254268883 0.528027199122968
Ni 5.933148865327403 3.925587473914727 12.762910306273682 -0.19135152456522528 -0.9898446351880823 -0.03952428334686742
Ni 6.212565149822429 5.362519763452454 1.014479286955692 0.2858645054431464 0.14374292154832663 -0.17065542966845448
Ni 6.097445640610478 7.044380384656105 7.525866769240325 -0.8825183045955769 1.517225201865987 -0.7890167957013057
Ni 1.7731804374774371 8.560206683933604 5.444861629260734 -0.14135796625591782 0.5266002368684544 0.9495649617324291
Ni 6.149121216990029 2.5899024968763746 6.075668076279095 0.9913353608009957 -0.7473826651002871 0.8088515710390457
Ni 6.122841998031471 0.4445790154564339 2.748541444603825 -1.3527679305884446 -0.3937955594991863 -1.6158763732819976
Ni 3.9545246696299934 3.5131784301440874 10.010286096665823 1.489674803051544 0.5732194793888902 2.7698157542018813
Ni 3.1878721299837616 0.7379867768930468 3.6629079900573536 0.3384875309555009 -2.2558553175846243 -1.7852665630847833
P 8.59104109274023 6.1415417567686 7.829976878783899 -0.8547295645180828 -0.13916970035534743 -0.8857604656819583
P 5.237247346558516 0.9631925453384304 4.640726921272897 -0.17919869125277524 -0.018829216891361123 0.9465436584076019
P 7.614596232194323 1.8035734155152827 1.9015738638281043 0.7485995682265236 0.7699736630269255 0.10857434406699365
P 0.8166215634579593 2.1212345104460635 4.466767508225503 0.16370573782349873 0.8539086112786842 0.9253829651695871
P 2.5407534072373004 2.283897052670243 0.1517319650176144 0.6650973366368095 -0.1471411485965982 0.6311199512501002
P 2.9795261992626476 2.0477409835158595 8.954401542812775 1.2445913361805017 -1.0323079465586156 -0.7779145151405571
P 5.113224084818792 6.867019137045886 5.625378637260545 0.11673991059692153 -0.997611937838327 -0.040665081819529963
P 0.010130366536347362 5.475967471029443 2.0445777094110555 0.27579272302944113 0.795861843647597 -0.201526151105382
Ni 8.033861541097108 1.3501207023919275 9.23540416043221 0.9953820200665436 -1.7416416273059812 2.2849272952499167
Ni 4.664476835847774 1.0122946742574217 10.312361867815392 -0.9230720576482233 0.6522076251583349 0.16234639558212688
Ni 7.811793687967684 6.122447527982772 5.56978841525486 1.3618351829970352 2.2124558675530674 0.17141750464545963
Ni 1.2282482416320135 6.303941318960314 8.675020009250611 0.12694616170596199 -0.1577243234290832 1.5602045336409904
Ni 5.622804250585584 3.1393710982818352 3.9419175947164584 -0.3570861198932947 0.09034290866063151 -2.253234849242642
Ni 0.6160786259858695 6.8411625645680765 4.1000831783854705 -0.2655841579275555 -0.578873592350874 0.6060799775623369
Ni 1.44961168396019 0.8823862950768708 9.592424913293524 -2.5103737046163217 -0.8053756966753033 0.2679827400667191
Ni 0.7440672509294192 5.036884738251546 13.139574728345796 3.0921343887070036 -2.9854927428863487 -2.0022841249575447
Ni 6.30976444825063 9.04101871257743 11.306649923564112 0.825941950862429 0.39407786662629546 -0.791746793037959
Ni 8.521407737000866 8.476240916424846 12.707416823351366 -0.47178406035952297 -0.6087492968643838 0.4601058526906463
Ni 6.641692209942686 9.220493192591395 6.442612568508389 1.6602294454760762 -0.21366818578455457 -1.3863221123948057
Ni 3.0127180362174513 6.122832605887455 4.88916509715784 0.2502339007237303 0.6013303786924934 -0.29045495302730623
Ni 1.4697766171639148 4.318376328834607 4.40948576108242 0.204475463541693 0.5979758603979638 1.0210627126620997
Ni 4.171811921454949 6.629604520593272 2.0920709640599964 -0.6203753111390864 -1.6651644208838483 -0.04218871755290799
Ni 5.693630408615062 3.1902201659879212 8.660490362456871 1.684118593388848 1.0212059231081831 -0.6591177220146068
Ni 0.505475798831521 2.537794881872059 13.321204705411578 1.7378970726618845 -1.0845982713218998 -0.5028740968961082
Ni 4.435721776178501 8.825994967460485 6.177665821085399 -0.7807548128028295 1.3338371551222126 -0.4598189175778468
Ni 0.547438019869063 7.735247714232073 1.9511981959544207 0.1741873540811129 0.15553014399124182 -0.014162407543311092
Ni 8.276667248215274 1.320882958068129 11.922197893413042 -0.050512149816938814 0.14115587754744077 -0.062481149253356905
Ni 8.737023187190859 3.6770337746583794 5.998027917765546 -0.10350104330914434 -0.3599336166444188 -0.6523752610844507
Ni 2.763694729760272 8.597784652144178 12.24441229976309 -0.1309642817264196 0.7943096686691288 -0.8175300726496502
Ni 2.3545071913873388 4.14263052999525 8.679144099688317 -2.0924925649228414 0.6033001008243545 1.6448650472048638
Ni 6.691132456046277 4.854836810777023 7.091591874984547 0.30670972432327176 -1.4689460551446252 1.347113046295512
Ni 2.5104355663515876 8.148680501700527 10.025764350005243 -1.8830741555535762 -0.9523620648615923 -0.4563841808646849
P 0.5838316387191395 9.229180925806785 11.374694128535863 1.111953266296085 0.0686811074164817 -0.08142683711792428
P 1.9921019223612872 5.451106465817397 11.277260026507244 -0.6378320731629531 1.206785835296954 -0.6880549738742473
P 6.919117359906185 8.797884280418682 9.184102391384522 -0.330647723196108 -0.3375174537327477 -0.9450573036700626
P 2.4563931696798442 8.10739263660338 3.428986311964529 -1.4032510269396605 -1.195251095184477 -1.0679804602595606
P 7.314404525134491 4.622991735726277 4.154449604025789 1.104155367518221 -2.612465526282765 0.514706570754662
P 7.662261363078768 2.5294264815532332 7.669832370370581 0.20360360245970097 1.9169425261662472 -1.8094192490715868
P 1.333073961001727 8.746546821223731 7.754523211397422 0.013232696640190111 -0.4583829564622686 0.16494886620198043
P 3.780873318906346 4.670018200817591 3.276937831693554 -0.32014888054731316 -0.2262138836600491 -0.07263392141664266
Ni 1.1022150610727282 6.152746584580451 6.474641658033933 -1.3150878995391675 -1.4417198724388203 -2.045706457807238
Ni 4.579853618257851 8.00968616239828 3.836909667752822 0.6242579340229443 1.5876253488561045 0.38469976784550525
Ni 7.517199698741772 1.2996379283024904 4.307350890973475 0.7172714475372034 0.7438150023536867 0.8340717790584152
Ni 8.774742037561683 6.314178755938451 0.05414289261272171 -3.745588998898562 2.6061313565346214 1.983209110603965
Ni 4.143250411500348 0.6786425149239101 0.7316066934625436 -0.9591526054208642 -0.2684694498951505 -0.2147349364861721
Ni 1.0803595419460081 3.6606444833493437 10.581666570062103 -0.8066764177645979 -0.21609145051406656 0.48430764674783044
Ni 3.381087316694069 9.26189376341674 8.305477649986315 1.3503310390121777 1.643765386382782 -0.5852563559487663
Ni 0.5348309449555279 2.8102985483708367 8.276719844221766 -1.5326397366488445 -0.3516508078103363 -0.005058388359513869
Ni 6.212593326254479 6.268251171697084 3.6346864757161557 -1.8159858465455112 -0.17729170403804953 -0.5507313255887031
Ni 0.40522405359791114 6.9394043909821255 10.994538646532764 1.0514626651101955 -1.5630618005841275 3.2991264480229634
Ni 6.249222687919373 7.361693970258271 12.731307620086493 -0.873514815545386 -1.4683968675093744 1.535580307334407
Ni 1.59821418659146 8.983275811163129 0.29210601027590666 -0.7536273604584183 1.365278147240313 0.9339434531450884
Ni 5.75356167958524 0.9601025299569559 8.076051052019855 -0.6599111644501796 -0.23186002620223295 0.9634504614652699
Ni 5.922357291852284 3.0529633733287516 1.3304845468963393 0.5572331312629628 -1.0048902166672953 -0.2579819201002654
Ni 1.9684431115833723 1.5418988910676896 6.948588968615998 -0.2401744596051993 -0.8965979226170945 -0.8062421584406567
Ni 6.381501644249723 0.1698541068977203 0.18160555749133964 0.9829340241111783 1.557112782089544 -1.0687841871077788
Ni 4.08256776900884 2.7103661360337927 7.085419357936812 -0.9663156988282067 -0.6354990541544023 0.18288796717890438
Ni 3.661245580566409 2.763065456111157 2.1282786184585434 -0.4397974801505974 -1.6652330693382547 1.4292978446253837
Ni 2.9780140640759685 7.2656686898321485 7.137340069275196 0.7552787800189121 -0.8016805072119031 0.6550435519452332
Ni 7.539027041436442 5.889109102033381 11.490616666061236 1.6420774571573977 -1.5509575611214255 2.1758682982370203
Ni 3.477441322160774 6.023369800751242 9.379713514033474 -2.0380481699310318 1.6543699013715059 1.3961738083779052
Ni 7.729678172830206 7.923156339572979 3.3087330568330837 0.330921802793101 0.34215803782855264 -0.42443102499685614
Ni 6.832136714168087 2.689919438509569 10.651594839123591 -1.1870083955597104 0.6787840900952826 1.0054566306937265
Ni 0.19106532494489895 0.22458964379789198 3.821761078668384 0.5827315326443835 -1.3942650213909664 -0.2499181692555244
P 4.072302155598654 7.8239940830453 -0.08062592109644011 0.949938285911448 -0.0499220816414237 2.0625839502888668
P 2.7653477471072008 4.381763908802908 6.850439185213311 0.2839899141282528 1.8752528597369447 -5.8905570080123
P 5.289373745850865 5.351202229912403 9.241837779083609 2.5889363328125734 -2.376658342507326 -1.3990655281034035
P 8.3830238870597 8.535411423729675 5.276220987369963 0.30462970186579147 -0.2727426233492077 0.5871466309929437
P 8.492602031301832 3.674836012958486 11.62978476002779 0.05681160967240538 0.4803190944137276 0.5298668234348681
P 5.673643926147653 1.566506308391285 12.317556438935874 0.20191978699937482 0.7548614899758355 -0.19187114451412116
P 4.364322697364008 7.952544358201044 10.944048358728113 1.2047340949742478 -0.23233053808074824 0.18738148417388376
P 8.03377701180096 8.47855138385294 1.1389796696114618 0.7407456193997436 -0.32116318074444045 -0.09680151980178167
