# total energy = -381162.2142563518 ev
CRYSTAL
PRIMVEC
9.28516549919788 0.00000000000000 0.00000000000000
0.00000000000000 9.28516549919788 0.00000000000000
0.00000000000000 0.00000000000000 13.58977826699158
PRIMCOORD
 96 1
Ni 4.931453561593828 8.318421970400468 4.852515726651809 0.39394005549685057 2.0628785987111504 -0.5037906951731065
Ni 3.3059924800259153 7.059817779799928 3.6689003900839374 -0.5666310275380951 -0.37599864052708143 0.1893398934518352
Ni 9.39565902226991 1.7351374570704838 7.679067754873388 -0.06603672781509919 0.3648770766926232 -0.5063450861638441
Ni 4.0192881829113745 6.294738708629856 9.624484499171405 -0.781621531678499 0.7226684501830586 -0.4324430966680552
Ni 0.35909727811539993 5.440735606966377 8.427483667943484 -0.5500011322908979 -0.10527227627695418 0.2383577181114347
Ni 8.163127576539944 4.80979932252892 4.231421717699684 -0.8556510478910877 1.0313373551152303 2.5508163860124005
Ni 1.960200584890229 4.4102122229900464 2.0935736313985673 0.21252687309125975 -0.1306881452468975 0.045715756869559976
Ni 0.6535568047557234 3.269278935432521 9.392399000644533 -3.1861208076574936 -2.5410778185683975 -0.10156603106996057
Ni 5.826961353275635 0.8299443092011773 8.254214122090458 0.6319190501126278 0.17658876443375393 -0.5178870253651726
Ni 6.0076785304180795 3.16028037701526 12.409166001851899 -1.323696981364417 0.6819113228703546 2.699042025922429
Ni 1.9917794329332572 3.697538626196584 7.695238799199097 -1.9812285898388267 -0.7436813049893 -0.9434889307416784
Ni 3.728031109870005 8.539492477032768 6.989508649205569 0.9275810012621701 -0.20789683051841615 0.8142022938279978
Ni 7.386182063794162 1.0650827701616137 13.193894340363533 0.2091949805045494 0.509457920761213 -1.3734249447171636
Ni 4.4971120873930746 6.285954942017476 5.402222597288967 0.1828386019982077 -1.9387655355786095 0.500102447688242
Ni 7.894906999233579 7.261240876123775 4.577036935433291 0.5467774831472777 -0.7659203188931584 0.6141450139586584
Ni 6.704344501799552 3.126872351358449 1.548813896967622 -1.0227532129906451 -3.4932948732116937 0.9591353790296836
Ni 5.0396535957736 0.3617695487613227 12.385452617548138 -1.8730111148906194 0.9792074671892104 0.5201272275496011
Ni 7.415653179256841 5.751900074951661 12.286028921848304 -0.7135538894763002 0.007954993181018558 -0.2745758199032045
Ni 0.9360375393171554 5.674656782722919 3.7564595012411712 0.32227235464821913 -1.9144629542775027 -0.0267214751552443
Ni 6.2779139886492725 2.077128674689068 10.61295072577905 -0.5019538990746838 -2.8482053471553788 -2.4510007619746434
Ni 1.8749441947899403 2.1685689850471213 2.7759293056309904 -0.8607194635529305 -0.21824526363227573 0.41677582244444344
Ni 7.790346749950269 3.776527529549139 10.910362935064976 0.8645761182948595 1.020905875369261 -1.1982713700680394
Ni 7.341928964772382 4.554652258320051 8.310041179973053 0.22501060738056733 -0.6999095592199881 2.167403455299119
Ni 0.35255587898387586 6.360319832925035 0.7121072016947783 0.7858368553114273 -1.4651806745649218 -0.14189121305156852
P 7.241797739457471 5.757944717726142 6.654900995234093 0.9217327700115093 0.23296020124494718 -2.916893653660712
Ni 4.692917658557842 4.798972819495056 1.019396041578575 -0.344965939590993 0.10658199622731321 -0.8478351513910946
P 5.280891481985274 5.197947098107483 12.479058228512963 0.09124176632581706 0.12062047659825034 0.9395358596312012
Ni 6.469866216109876 6.746851989697517 9.351601840241283 0.674170245472355 0.08126922849413745 1.1392411554777606
P 3.560953840923741 4.539916700588711 8.75445334473172 0.9456178041592231 -1.8620700424980834 0.263257823787224
P 7.770160800039789 2.403604380669928 8.823068861129359 -0.9499300583813317 -0.2816653797601342 2.230988636249932
P 8.941521575111869 8.85749082686447 6.668150926477081 -2.9188448638498117 -1.6454558867113276 -0.31231241522202985
Ni 7.037904789096739 5.092449047103401 0.8610848974301416 -3.3500977968645076 3.712389629328458 -2.8174241001084637
Ni 5.2128683591498675 3.1845610849342596 8.446985301152766 0.33406420507682466 -0.5126738565953494 -0.60446661032863
Ni 7.097803392073973 2.4001688694156145 6.8310517279579654 1.248105005760715 0.4447571381487179 -0.9072582305444182
Ni 2.0200341917085978 7.86281746708518 13.115630608440606 0.9841501559064664 0.054997953502434305 0.20439318824053185
Ni 6.984728645979296 0.0337543623319081 5.687798077528946 -0.7800045649003663 1.8679545263033182 -1.0204155659964038
Ni 2.5445903344145138 0.9941533905083674 0.757544159324463 -0.6863320776458697 -0.6034065444952318 -0.4677317446670202
Ni 5.508424463841906 2.111985186172022 3.849834840100303 -2.213059048354705 -1.3943318700731602 0.8254426426285074
Ni 1.5543088579414133 2.6917509232513117 11.507076884826693 0.8601173111925574 0.07729018924173142 0.5841284129919101
Ni 4.922660509815895 7.037774796779009 11.439508735103344 0.9945754650048485 0.9163933600764669 1.1243053601035347
Ni 1.098082248534128 3.0453114571479354 0.4545942773032088 -0.2893943729732758 -0.5998090569519605 0.20810843230858997
Ni 8.484635718950377 4.500946860766133 2.1139304283552076 4.328580984293184 -0.8775879571734951 1.4648505449190126
Ni 7.851350287628215 8.613170265689465 9.013162198446413 -0.970115275079955 1.586794625424693 1.3330532257683365
Ni 3.057586446007942 1.1806087999620705 5.631359127236462 0.4960653015043908 0.7265623859208261 -1.5830333586100478
Ni 1.4631656728810303 7.5596939524681 2.5095425485211846 -1.1398785319514433 1.756467379464904 -1.762485560634526
Ni 3.62598714045134 4.410221508155598 11.398141465535186 1.96202450610655 -1.309932323480157 -1.9392514740760922
Ni 5.328134404314863 5.744165532046679 7.639711652163839 -0.5728996341556263 -0.23903880333885932 -0.3506426782607961
Ni 5.310910422215533 7.267824058500284 0.13496916646676096 0.044857265524006616 -0.6924137650635753 0.5476382884856763
Ni 2.3613754477385283 5.0452432654360235 12.961604568194511 -2.7183468968986277 0.776758804269559 1.3856996483194586
Ni 6.722302011977504 7.797134205968925 7.165631526432785 -0.8228445428840281 -1.2727778259170468 0.6709753926841412
Ni 5.459937329328324 4.567419360954323 3.3228914813309167 0.3990850900328998 0.39109770095204904 -0.7174159435348677
Ni 5.2121626865679005 0.9928163266688508 1.1755864539148861 0.02251155083895478 0.5287319384994765 0.23988341072734168
Ni 5.858995174430721 4.49654569229439 10.128474928695757 -1.5538593081492529 1.6231988750853399 1.3330511688858075
Ni 4.841842428849557 8.529353076249766 9.543299654165756 -0.07901488524232197 0.6912441702355063 0.13718429449420247
Ni 5.269823564647054 6.956863864157149 2.674196389258325 1.1950330656364 -0.015379310669547707 -0.7257128934363373
Ni 9.097289512415555 9.297329119072124 2.985864113216538 -0.26059364669149965 1.1529199385164337 0.0731856801550546
P 2.6349814210651683 7.89694045048951 8.919215821905823 0.22284985228382265 1.0077369420874707 0.06481134004843032
Ni 3.467647212289695 0.3384851391060739 2.991640414706561 2.285434316793322 -0.6197875569564165 -0.5747099478914877
P 0.4623687464200648 1.178677485527213 12.867753828859108 -0.11284443219725726 -0.15167888856595169 -0.38962780127474184
Ni 8.88223579306108 1.2817242528255146 5.280662138396135 1.0904120497901995 -0.7179674451629635 0.2381756840076156
P 2.2189502933333514 5.177612585548168 5.562717612375278 -1.5027676316797602 0.8575199827790264 0.08476001525621532
P 3.8460177085417944 8.603866529806162 0.9107744608827331 -0.32266110544620563 -0.7554937242431956 -0.018353819916839362
P 1.7101232210728605 0.3297217998579088 4.004581409193247 -1.1773143082003983 -0.11668694587179904 1.4116019700075173
Ni 1.229179500965622 7.577001501057398 4.738116915949391 -0.015571886296328023 2.774093812751945 1.913237566510834
Ni 7.528003682438445 2.669011552813977 4.042442600248894 2.2557846122476897 -0.14174131773726556 -0.6312672754612418
Ni 3.825339644857048 4.102009722815914 6.593651400669014 2.1289649488172624 -0.8114980075229573 -1.4090051558146186
Ni 1.516638941296143 0.09267152331027478 7.053896629727291 3.0079898955476003 -0.19609083902242358 -0.912534648452009
Ni 3.83797675517359 1.5549866750267238 10.263448737745295 0.7781916800613436 1.2585285150868841 0.12198393260468023
Ni 8.630366392292137 6.444294870179122 10.430168527817798 0.8644354789519371 -0.453740829704567 -1.1210742547607466
Ni 4.121490000144426 2.8726166630425913 2.176701861554292 -0.7232078676262964 -0.20468886510407974 -0.47984703987331545
Ni 1.9107477931592187 6.724883288001015 10.906897711280894 -0.3783954228940322 3.010045492525048 1.6080157395869985
Ni 1.8061504032136997 4.8873490252208835 10.044992933732493 1.2835924000340473 -1.3639167481164123 0.10669126811166786
Ni 0.4890264567204274 7.7642275792519335 8.45470405927631 1.3400319710790147 -0.603053274920871 0.47640124741656015
Ni 2.8212418420422756 6.279706025600847 1.3282447892751408 1.741217909505001 1.358613076515312 -0.5664654484945083
Ni 0.4654022100059681 8.756681784464249 10.821879949935298 0.24055729686591476 0.8100605037454823 -0.47745668526426804
Ni 9.412279468608345 8.756338233338818 0.6645634400012999 0.055834847581432874 1.151412757843288 0.376405646157513
Ni 3.280811111048352 3.999111518166447 4.266307013195849 0.30595767664859563 -0.8280916502155804 -1.3664850230642207
Ni 0.18740156782347203 6.431063509267238 6.398950764204959 -0.501662335976194 -0.08715088408589507 -0.5757360751631568
Ni 8.90250530946153 7.56083602783102 12.42354408070948 -1.1169278366925408 0.10685196205924823 0.16443618823162004
Ni 0.8658983272524013 3.076871734859859 4.891206082991267 1.1467030110724445 1.2633634745816822 -0.7092190095463722
Ni 1.705712767435566 0.8052466973488839 9.248374012214713 -0.43576393351117215 0.7728119038066691 0.5327307752462245
Ni 2.8706760634421813 6.272315033821296 7.382661129016768 -1.1800826149741548 -0.11276112845483162 -0.029543003764439444
Ni 8.715399938419173 1.7517950440711283 10.882110033322745 0.4111307083435243 -1.9431657215288338 0.10763666274407269
Ni 6.029415102975777 4.100459100168696 5.452885246091428 0.10053810402607846 0.33802704637931463 1.149839499818897
Ni 3.5256516414942807 1.6694356256231255 7.898976687295107 -0.3754484244505663 -0.38142366819739476 -0.612628577314132
Ni 3.3423439031627735 2.879181275087996 13.316650728579488 1.3776035015748855 0.20388848068997142 -0.14560568578867827
Ni 8.90245888363377 4.044710966193295 6.659535221361195 0.3225821725791541 -0.19734322337228594 -0.7912999353085275
Ni 6.990011905178498 8.718946871660114 1.0720958557031894 0.2171003513945551 -0.9749162960130243 0.5695204332707483
P 5.290232358530787 1.6774301531635687 6.173360238981848 -2.148980729817557 -0.6400995290408912 -0.6836167355972356
Ni 2.8755507753570857 8.918160098582538 10.884026491492717 0.3636691724274511 -0.7500874656259597 1.1342606715440335
P 6.572021607515167 8.664173680067693 11.594132740010997 1.9744560470016834 -1.108436511392078 -1.1277516667809224
Ni 8.236071837118017 3.350459137855395 13.259778161055715 0.34649163220690005 0.06816971499770196 -0.2900062955256618
P 7.879660757396868 6.8635293800264465 1.7224771338400608 -0.599566087703219 0.9154392236933138 1.2909095025207509
P 8.900119021914614 2.3543837180777225 2.2137617428227827 -0.07207264959653394 -0.34008315757739493 0.4052935328364568
P 0.22578458518315123 4.621579731620299 11.735534669172322 1.2068251731753217 0.9523756917083469 0.6698101687314465
Ni 6.830836312117155 8.80490893434237 3.3876462258919506 -1.2763328902581568 0.9993294347500661 -0.49008800087503335
