# total energy = -340864.56705682096 ev
CRYSTAL
PRIMVEC
9.32256379116737 0.00000000000000 0.00000000000000
0.00000000000000 9.32256379116737 0.00000000000000
0.00000000000000 0.00000000000000 13.64451444756522
PRIMCOORD
 96 1
Ni 2.5830213317678976 6.233588062361392 0.680966655522702 3.269497312302621 1.844929526163055 -2.8690371962990655
Ni 9.322172016197824 0.6899079262368073 12.71666004502451 0.47220546416765774 1.3942408530212504 -2.2678947652476618
Ni 0.46689635743103797 7.420527532749438 5.377480269677023 0.8074557191327836 1.446968008211637 0.08462606078151232
Ni 3.357698396234596 5.922279697273164 11.85476294036698 0.13683539579521595 0.4674666639310917 0.31367844233162107
Ni 4.293609197538382 5.597388357072381 2.4402807642724533 -0.4288857183341001 -2.060024674202123 0.21874354342493293
Ni 4.704846121467706 7.608544994705517 13.094517530113405 -1.0780648410787563 -0.6252123275164135 -0.68073812849786
Ni 2.098192091065404 3.3936089110826133 6.268862778374354 -0.9401066445330067 1.4334224083167184 0.7411654805459816
Ni 2.572151222652428 0.2990790262051462 8.881200775781545 -0.07938229588406974 0.9753626395218233 0.7094714918768104
Ni 8.016341892679774 2.0819521853371468 3.2216066810729016 -1.222465707926056 -0.325623016288007 -0.7402599380125767
Ni 7.476630720276792 2.9693297207274396 7.389773327808595 0.5034711070501587 -0.6286560630906398 -0.433442484466847
Ni 1.8098265549078545 1.406112939774572 11.071841000684397 1.006175254027306 1.0468825019386812 -0.220761088075594
Ni 7.322463486621117 8.682653478280077 10.694337773010929 0.5112072993521518 -0.36113946402706193 1.3050104606985073
Ni 7.0966523519771165 1.7347426279644655 -0.0897473871729961 0.6271879631855457 0.5730718980674324 0.6843744396988666
Ni 0.3876256671911162 3.205060063003393 1.2833851194816819 -2.250947595870362 -1.8067681846019854 -0.034358937095844054
Ni 1.595677947282254 5.779029185550776 8.095194932072035 0.01287094242539719 -0.3196968806115591 0.1864872544943885
Ni 1.6377413540824242 7.475017916780244 10.07681489156577 1.4610118878992129 -1.3653737922779132 0.1529559555061624
Ni 0.7123808979638664 0.8329263061264551 2.396590570130388 -0.28789953359530424 -1.5921641172667225 -0.9740945714426773
Ni 5.75100555947779 4.841636096640333 12.008482690971592 -0.09897847284844244 0.8141228467403141 -0.22937325522463725
Ni 5.7312790149766455 1.0490494327148827 7.211358106323299 -1.2213791597300965 1.7221272114221375 -0.19505982665474791
Ni 0.7295428052285899 5.427773635591376 12.234980898550246 0.580656909503542 -0.5272664096975436 -0.3043792764178822
Ni 8.719039443869852 5.886965826493234 6.77125386431846 0.24420080715577297 -0.9688351228159506 -0.46282813671781586
Ni 4.371778893021411 4.197372373868578 4.813797989582269 0.005346866134210147 -0.5389734137218266 0.12482294471537213
Ni 8.764701360205674 6.874728726339251 13.62322900976738 1.9248296422238074 1.4045561189043296 0.729127575544841
Ni 6.259411563433304 3.8385655474224456 3.383375533058556 0.9700250293589939 0.4713107202675303 0.04556251912114734
P 3.5989197284496677 0.2205429539740572 3.351488636644704 -1.2187396652247204 -0.29438436998869943 -0.10941689457294704
P 3.289233489421553 2.0315357615837515 7.5581052645432125 0.7695052080309392 -1.2638003050087847 -1.6620564713824857
P 1.1847113776962828 7.853075836985763 1.5466328726291034 -0.9700587108104066 0.9396644147892654 -0.19683723027014488
P 1.9457495316690427 5.035498805950959 10.383106785200281 0.6421376425168425 0.767065231130879 -0.5897547580397521
P 8.37450546224 5.793609674964665 4.497477814322107 -1.0532166716868248 0.8028760701819011 -0.1219620782278093
P 6.822830014979201 8.168989548474542 13.093343819360715 1.795653305635746 0.7927598076835056 -1.8255086984342819
P 2.6408585161181315 4.14002928538723 2.68105181666739 -0.4888821534923903 -0.5968952257392753 2.101937512385825
P 6.491552718737169 3.6942615860173404 5.608986558402188 -2.1199894847915295 0.437265457757363 0.26739627143562983
Ni 3.0938698473771455 2.048400279070788 4.851798623181305 1.7351627044498568 -1.2443789630593796 -0.4953441070676502
Ni 5.341446696989962 9.30350824394296 9.613283047324932 -0.9415158661757076 2.237678903785914 -0.08078226155538991
Ni 5.751154720494812 8.208862152837202 6.577979408768716 -0.5136385345014638 -0.3876717059896356 0.3843850648185638
Ni 3.1900507356655665 3.2871545577468106 12.003665722378141 -1.6558009773910776 0.8422797687905041 -1.5810124715252771
Ni 3.057884752020617 6.160368648130776 5.212613529819095 1.4716423710298656 0.6101042682303814 0.8769989174392445
Ni 7.635944009019725 6.226139334073862 11.483291411319334 0.13194747157529532 -0.34157336896967627 -0.12609024146356992
Ni 7.680030412113254 0.3865442498177076 8.47073296334624 0.4084984129269997 -0.5298747938546682 -0.3621900167787634
Ni 4.407810601195759 2.676526644313489 2.708422863290905 -3.079776124251967 1.4324811274493716 -1.9479014364416067
Ni 5.322176958103448 1.2841365181049298 3.942322883119222 2.7067872170854868 -1.7154693397859875 2.162108782559083
Ni 5.775048450909003 -0.06366938011578951 1.021507783178149 1.7791997880654133 1.5795471998336603 1.0191392703871416
Ni 1.0653173061338315 2.5480803635305223 3.9462122566380673 0.225909722156069 0.7201086598756824 -0.6186411020567991
Ni 1.8034312763030413 9.361158977021917 4.7975068097544105 0.5297051010460232 -0.23766146337535846 -0.5371823832596748
Ni 0.658530041793542 8.371494274208871 8.008360846012748 -0.17406162713652604 -0.013834077669614885 -1.1441658464728877
Ni 2.4535309238657783 3.3499140556587665 8.870120908985887 -0.9321225978862657 0.5368594527026174 1.173820950335159
Ni 8.658778392993012 6.80233902026582 9.311999234836932 0.6042475523392883 -0.06165196848384221 0.951740115006877
Ni 5.707506477888784 0.4767409845544821 12.344164898497551 -1.401733818964186 -0.4723422468558381 -1.8151312118547
Ni 4.876185517208026 3.505255932323491 7.515684803558546 0.31319276094445414 0.6173061852954593 -0.47427623065375746
Ni 4.497549598061548 2.624516062190672 13.643558724131108 0.8853498605071011 -0.6492179464023915 2.6263248007633604
Ni 6.514346386650825 6.337618549170588 0.2200162291326987 -0.6902386117891274 -2.98441210822766 1.8923468391047538
Ni 5.435502040785821 2.61127802192998 11.577110894257027 0.7873712896780827 0.33622393173230486 -1.2497826505734542
Ni 8.86993445771461 0.20090310931405753 4.240537707681997 -0.979220579815333 -0.9211956665611168 1.1914276076733288
Ni 0.18135369352062738 1.5454013619823166 6.115088956901071 -0.1181398762682417 -0.30322896486352297 0.8885125745057988
Ni 7.664965149394044 1.952405842053644 11.014166028940174 1.6357510007187377 -1.4880467805298179 0.20310737954957275
Ni 1.1069705201371915 5.398081270640458 4.50503654885969 0.5135063797989736 -2.3446151980288525 -1.020716899286907
P 7.357218003587214 0.5766527627811628 5.919550050661663 0.9014287683468346 -0.21631719337162744 -0.04268031247734585
P 1.0387293548496814 2.5964644684269946 12.721353955778918 -0.1789220405526209 0.6520947537295544 0.34988188883537163
P 6.150542666134459 2.8406130856011207 1.468272064593015 0.7392530940146171 -0.32832113194546036 0.4747662829162985
P 5.045250207438764 7.165863063875269 4.541740413866993 -0.19294843673869996 -0.5558339369225911 -0.3343485690864629
P 0.11836672505771295 7.563078852204536 11.583974165552746 -0.3510309148381503 0.34110671374590285 -0.04067768022502027
P 7.561167726673943 7.423389559763546 7.6454716689819975 0.7093794463836363 1.228642011940097 -1.1786579667124861
P 2.3615451891810975 7.499405743063321 6.781978541442333 -0.7707578494911178 0.6690108127586026 0.18077246349779835
P 4.571636010703603 4.951539798494768 0.09318554861535043 -1.4608815329689357 0.827447074653046 0.9497122859435708
Ni 8.22625805644738 3.606909165423902 12.8236597683288 0.7728221882193143 0.5877963487618006 -0.9969887024320314
Ni 6.0014469070575265 7.2146666841321165 9.019651099524898 1.8702986010554625 -0.30137262838107454 1.4928310892923387
Ni 1.7164610808157215 8.466882744594363 13.14281866419416 -0.8577261852525615 -0.7281287019666816 0.903319043391012
Ni 6.449088441703753 6.339249997794266 2.957367007162284 -0.4001510694035689 -0.3378311283184246 0.4051896602687409
Ni 6.233466869035061 2.2749292511092043 9.214454455499116 -1.0137592370221509 0.6159689545412746 0.8781312312714749
Ni 1.1178033389984054 5.672052768655396 2.01424427068549 -3.5632322216327794 -1.390251015135567 1.6146581846041803
Ni 2.3532014947914357 1.851600962237545 1.2328130089167697 1.4639457737165562 -2.3746755077493424 0.22189468745940497
Ni 8.66299219172388 4.274740328885114 2.9665357484273485 -0.5773707825531025 1.877023321373806 -0.45218402674040836
Ni 4.264858411507415 4.518413495317484 10.143263327879948 0.17894955135644666 -0.5540555048659296 -1.6479087191271942
Ni 3.8607998615222696 7.55477244806913 8.618284905896997 -2.290854973588261 -0.19386477790538223 -1.145532387803111
Ni 8.586537847936603 3.5564368062891236 5.182431730281074 0.12483477178991405 0.7759159966532895 0.6956572117015374
Ni 3.32687800109245 8.939312975756913 11.699338092886538 0.6669850405778255 0.894791208425659 -1.867933957478028
Ni 5.561328681207342 5.817009309509972 6.326906923635705 0.7760782332627667 -0.7141141328551444 -1.810398839376037
Ni 0.27795782619484805 1.8025269876373462 8.918859271297787 0.11033709239437126 0.6171035823663502 -2.11993831983862
Ni 7.242858116349251 7.70964819655566 4.884777191788488 0.35499092792716286 -0.18744113376722557 0.20728902173108815
Ni 0.3617732661721552 3.5194262289405693 10.35689546548411 -0.5522158805540296 0.685287181321123 1.5884938675039868
Ni 7.029492604063016 5.201123470226629 8.391894840055683 -0.07744676942425371 -1.535375647522769 0.6270768915289782
Ni 2.2482294290622877 3.9206600421658626 0.6035856489171761 2.685402580762124 2.418034591461268 -2.564223403446926
Ni 8.369601793805407 9.086581512375327 0.7216437971209251 0.04996399062295266 -0.960267692861914 0.9278111149951053
Ni 8.50238306664557 7.354467847335872 2.8054893951178936 1.7696337416435328 0.7287221125763064 -0.8312278818517169
Ni 3.450700290347738 0.13628096320204075 6.5758510675070845 0.10439090211326538 -0.5076578914379967 -0.3016045418862225
Ni 4.499470046155705 7.688485977265682 1.7832152972147945 -1.0796589250387536 0.5017518103662069 1.2133012678179684
Ni 2.4893948258959764 7.250334812327473 3.1360963990396833 0.30385322871108317 1.0463099172646626 0.7005399937151354
Ni 0.31379003150892915 0.0320006316893316 10.234641231420266 -1.557330297416989 -1.1491668992319048 0.3689867279856226
P 3.8314710765503426 0.3260016575212392 0.17492578594334074 -1.3391814501532615 0.24790936635561175 -0.31690671946093163
P 4.670725538823952 7.535828998907352 10.723824109307085 -0.5946763637110856 -0.6925441199938525 1.3175857262603565
P 7.438100565067328 9.367405094609708 2.4950899799771427 -0.6093553058794989 0.3986462027232683 2.3982039298885858
P 0.17251497100572458 3.805535704715663 7.343709608983169 0.728109932913604 -0.34025233616540757 0.5684274573168855
P 8.328181643891142 5.001611287396301 0.791668368818203 -0.048829362797877196 -0.4247518986713846 1.2880352662967494
P 4.8563098116898615 5.6144952612120775 8.232881737859508 -1.5153884057675644 -1.1162418663691098 1.5955528312332974
P 7.341845096270396 4.038991341482033 10.728176814235054 0.08886246746036308 0.46116617563436063 -1.101248221173755
P 3.9931056836206773 1.6503081697665176 10.369598390596236 -0.8911019324995298 -0.24295793588760736 0.12005046302739324
