# total energy = -340875.76162503764 ev
CRYSTAL
PRIMVEC
9.18784239642869 0.00000000000000 0.00000000000000
0.00000000000000 9.18784239642869 0.00000000000000
0.00000000000000 0.00000000000000 13.44733606851521
PRIMCOORD
 96 1
Ni 2.2822049387925096 8.611195086934524 12.610172276853152 -0.4814784048291515 -1.1485709175191186 -1.273822208021161
Ni 1.0459531729312226 0.6013727709980112 6.354498355150112 1.2656566414912331 -1.0800669591104495 -0.061474562365713484
Ni 8.200222893917829 3.310407200100476 4.7103063842823145 -1.0866692949183154 -0.3967770107250135 -1.3935649100001484
Ni 3.4557496798977283 0.24826560976354614 8.479688579090409 -1.112713027280245 -0.9961561792284069 0.24258718281174993
Ni 4.191870429558015 5.842383636034922 9.131386838351995 -1.05878568113417 0.3357539340744217 -1.4234616975595806
Ni 6.241521887969447 9.016231933725225 6.936230275331853 -0.2651550408099369 -0.6942433620731463 -1.5113972823303004
Ni 0.479232349752627 5.8433851108625285 9.040994087925968 -0.3891007251266783 -1.5891698105250889 0.4761683054701476
Ni 4.528476225743117 7.569670454066661 7.553973944016365 -0.4178430873666933 -0.32940433770731015 0.4290181301469063
Ni 6.262249660548156 7.832139549481549 3.1268285951420727 0.8526600835835637 0.27968691587752476 1.5020544076628195
Ni 7.751709176629588 4.697229328115968 13.386500862665455 -0.6395480274127954 -0.0706621424022525 -0.4361603976186424
Ni 5.8110255297356606 4.043468398223213 1.2250628113194642 0.5306854626814216 -0.6483160034134124 0.08487494356752479
Ni 5.901553341445776 1.6816691802421582 1.3858289222460958 1.3785527528620323 -1.6257702353569419 -1.0668046947839047
Ni 1.5622272283258372 5.116746214615907 2.8829878503049033 -0.14259929486218667 0.6414596426132113 0.28699476239284766
Ni 8.718371269173284 8.343176534676754 4.642773904668826 -0.7084924157929927 -1.0400577657073637 0.7288522103962674
Ni 3.849310911462006 3.641261406908685 6.338187178439571 -0.4261184400016081 -0.16408600398105289 1.7299459361356075
Ni 4.739373961457519 4.8706314787711005 11.142690998708568 -0.7918552935913653 -0.3752612481404247 0.6614309435288157
Ni 6.730232415998757 4.50661834854243 6.43551858748769 1.2833723136034414 -0.7938291294882844 0.8675804523388219
Ni 8.438684156997537 3.2956147737477623 8.783718879850948 -0.8024855196117018 0.3882646023786281 -1.0010060511215406
Ni 1.178276479969596 2.9853045826691607 5.747754371452849 0.551132931902496 0.19644050905235846 -0.10336117529717039
Ni 5.1552984015575145 2.550122424783273 12.690856234156874 -0.5047497166522662 0.3793793840738563 -0.7246217172546876
Ni 6.955114047929824 6.761167881545084 5.8389813779737985 1.2079225200045585 0.692814857156736 -0.6503906265542541
Ni 3.4491252454876 0.17271030611826357 1.0184282345042293 0.013965203930840464 -0.47734715626959723 0.41920757181438767
Ni 0.627536989957404 5.304949979466209 0.5996436190479612 0.5398082509182961 0.5026157010283989 1.11053967377801
Ni 3.7002197919430717 2.431498190845456 1.5899056037218307 -0.7764633845163272 1.1924249385895915 -0.3266542857659987
P 8.182940562259782 1.799301127194824 1.3822916029008816 0.8692215874866707 1.0598580882627426 0.336950011265052
P 2.778284116470811 1.9858143290333867 7.246164683654041 -1.7775990192371964 0.15878670325532654 0.4334640817334019
P 0.18475373000841078 7.598694848382327 0.7976030350170895 -0.5153403476839189 0.34883802095188954 -1.4897182546949699
P 1.5588001630900843 8.68906205174151 10.414921079055725 1.501809381531549 1.121602873570707 -0.2558946985539335
P 2.2845386507761054 3.7331949585144315 0.33556389485069416 0.2984569973961763 -0.6012000237622163 0.17238783897852894
P -0.15831571334385586 1.2329165790500853 4.387354640769738 2.626871931516083 1.4528200961170399 0.1981189251960459
P 2.611120510842692 4.480019544634911 4.653961940426403 -0.7600875142614651 2.6895500272715935 0.49244441692235186
P 5.90803995821908 9.104802734992402 4.77055014847617 -0.3081487707626435 0.7491533838474645 0.4920983464368428
Ni 2.8045705337348568 8.930610429886132 4.525714360301113 0.4483571967951504 -0.22300617535602885 0.4609687149115738
Ni 7.487926219743621 1.7304198723089272 12.7549735927298 -0.3772096301160471 -0.7501651129414306 -0.3870415286048044
Ni 4.517735637913103 0.6022593977949285 3.1060659087620337 1.2498317586438348 -0.27599121219349243 0.9325144340080457
Ni 2.48432828496229 1.816767215701972 9.9545247251203 0.11778892068672618 -0.7126642877824952 0.12264033524175655
Ni 7.529565521750142 8.671816471453285 1.1154886021999224 0.2101951396342896 1.2121041621860738 0.5613564094027171
Ni 0.16401033809752785 3.1029640931491915 -0.197796791157673 1.4367229334448612 -0.4915298755278826 -0.2617933234265556
Ni 2.0694328832172664 7.055720922813187 1.4041981756665805 2.1766162321466385 0.2584974262841032 0.31028612882062045
Ni 3.353828943543286 2.6303322894163097 4.316379476588324 0.6492233457190303 -2.4526097583329762 -1.7154749962129423
Ni 4.2108616999127095 0.6215851056149894 6.1445047031332924 -0.9961276399833167 0.2004275187245645 0.24194183591826718
Ni 7.301422205747514 7.138815769977126 12.79869026591542 -0.26338612183497223 -0.2610934691460535 -0.9206899305692918
Ni 7.428003111251448 0.827989986368847 3.2136978079865672 -1.5512300980565221 0.23491321120625994 -0.3912704790844875
Ni 0.6733567602809959 1.0978369192751813 8.855111172079825 -0.40682488187931864 0.23826412995636384 -1.2268900622459966
Ni 0.7833435035267718 0.7634821444915786 0.478737125044297 -0.5155761178438087 -0.5758708009688083 0.6601903862534952
Ni -0.1603710337010621 8.046427599061884 9.23709664093492 -0.5043560807582734 1.1708544115076676 -1.3690535551223453
Ni 2.3010951428801985 7.450485761739083 8.755601325585602 -0.5714801281002803 -0.5124949078153238 -0.24293453884883967
Ni 5.752976741104329 4.29723660683312 9.041289936453023 0.955560774304548 -1.1913867271330643 -1.7906046874682453
Ni 1.2874831753909337 2.9677741792648265 2.2275381949689006 0.5158774511343115 -1.5287686837292123 -0.3937865606381218
Ni 4.648644017213391 2.1164103216902013 8.554482210596165 0.821604756939656 1.197686444098847 0.38776735102723536
Ni 8.182462794452118 1.6724170228898707 6.259976588324764 -0.845350694406344 -0.3450654412833348 1.9241542134233378
Ni 1.595413715273664 6.861756380743536 4.635941825019213 0.8362834419977533 0.1693184560245858 0.022716467760909263
Ni 0.3767888251624895 1.2682805846597713 11.23659442373669 1.126293594178157 -0.7877327867825595 0.9778686937731287
Ni 0.4646016294271232 5.883186844378029 11.717322554241006 -0.34930133374155325 -1.2004925460890743 -0.6881560182284857
Ni 5.708112506396068 7.280455549264972 10.447800692065552 1.5583816214996387 -1.1980438274382657 -0.44607405718792853
Ni 8.43051616505495 3.9968217220786624 2.3664087585407794 -1.1873966321370646 0.3846637724012472 -0.5059547927039609
P 9.184718588666877 4.596944027718535 6.822963472329607 -0.4172057108930105 0.21621460635549217 0.8068916190991976
P 2.4127641800795034 5.667538994114339 10.378573055519096 -1.4176193798461907 -1.2671224274034822 0.19608723947799778
P 4.051480196844062 2.812444514718879 10.707253418802429 2.039508813636959 0.4916260347861146 1.2590332226374445
P 2.3785670304616153 1.0844777963454635 2.8688679740199037 0.6843363873720795 1.6854149436027683 -1.0914320064142815
P 8.299010575995082 8.666441583617049 6.837527121405189 0.983253869344442 -0.6134577580836468 1.4599389665500082
P 5.88228643581743 5.432688553119487 12.803948468152473 -0.7889188366708606 -0.12253646267404057 0.8432925263257347
P 6.431820480899511 2.5047712344248914 7.328986651897064 -0.22390529013153054 1.3185285497896002 1.1809686171235338
P 8.390144785307234 2.9028345087921683 11.041755199065316 -0.6455358695651141 1.4998548289083395 0.5632250871803397
Ni 7.385445024999418 0.9419376084970172 8.453533547973471 1.178479532153093 0.278099773896063 2.1409897411922802
Ni 9.08252221703878 5.364781209533831 4.719450125093632 -0.22068061254664573 -0.05623696811585798 0.5929771216317916
Ni 8.643416850424567 6.668600368809935 2.7520647704566876 1.1192901662771304 0.7954484102592623 -1.4188655935484662
Ni 1.1595700327310092 8.654598454692424 2.9797275622989137 -1.8654716119804648 -0.8709162015802743 -1.3442264687763366
Ni 2.476445116135813 5.786255106476707 6.860158614940595 0.9199327406882931 0.10699748649817702 -0.7607680852682576
Ni 6.481104067828677 2.3165490938896798 10.369523030700822 -0.982120012850315 -0.13156463431457988 -0.017769408168279075
Ni -0.04421557303093099 8.178888723737083 11.741084152398392 0.896683026131733 -0.03635231337678901 1.4149757715757567
Ni 4.8673973582269054 0.32301605840976183 11.33389918804169 -1.6031375855590906 0.8107297618983649 -1.265569995314698
Ni 5.088677355915572 4.7425529549469845 4.711516423133651 0.6365663190766521 0.16342008826227986 -1.3236980098056816
Ni 3.7129265780584775 6.401390346688215 3.4785842247513923 -1.0603481405252837 0.07249405340466869 -0.8659812261725022
Ni 1.722509139955085 3.9565054693856765 8.060629247144734 0.3190880433829666 -1.6137850379706078 0.04602403213859816
Ni 7.270532679413463 4.778890871856912 10.78464261580175 0.13990683563168807 0.027308715117282 0.7248785704605
Ni 4.824958713926791 7.236381469007849 5.242887941250489 -0.771629967683426 0.7276335074978179 0.03983127306432495
Ni 2.7405404596652536 1.7248612276235908 12.549484739868717 -0.2251317063394639 1.3364542810300855 0.09326265341058777
Ni 0.29282297053380696 6.817425040897671 6.758913185006602 -0.6444686046428643 0.6134261335147629 0.3858907028298128
Ni 3.618512308989853 7.31735392456466 10.956566442605856 -2.3968271041457174 0.6529720141281852 0.682914053103256
Ni 4.427648842640832 7.55562224295281 13.206346566590069 1.0593608369113496 -0.6028064490173877 -0.7912171457867342
Ni 1.0575298544246505 3.6406090700943725 10.327634738163768 0.5233773590557825 0.9070348016797023 0.9087019049694801
Ni 7.112896866411283 6.540429966561267 8.247197576038028 -0.1658808910979466 -0.29571157344055526 0.6670758005194188
Ni 6.460955129324639 6.336092350359809 1.470116351360707 0.09445255995363089 -1.044939262169381 -0.7279785495420623
Ni 2.7075377295665284 5.648345591225631 12.876658296989412 0.3682431649513787 0.3825796361787088 -1.3812760653304663
Ni 7.191958250737434 9.082549780566147 10.82281993877119 -0.04840435944531663 0.7510320889274162 0.11440894847089975
Ni 5.79151974020348 2.1943783527641934 5.279357244307524 0.5360022469086446 0.03379020907656761 -0.7764019351507725
Ni 3.7720779077844218 4.942250710708618 1.6047375377971014 -1.1266306658026015 0.5845611296539546 -0.2519105170952049
P 7.106051923782233 5.760225948801405 3.8319532394958276 -1.2435623806953553 -1.2171977746588973 0.3358009852622733
P 4.639805312771584 7.482854530708405 1.86806385891305 -1.9836860502403837 0.11844326644127344 0.06606423861892494
P 2.4913202330706223 7.9813409231099435 6.436675336852787 -0.0002067166941673859 -0.2881327326520328 0.7817076636344021
P 7.847299489532466 6.786278254974877 10.471857219965745 0.7989278841674305 0.44645766577959234 -0.1680969249126589
P 5.542244386554118 8.969327997991929 9.095038814815366 -0.138209136214291 0.3157702918636433 0.3879696968460286
P 5.422094970768756 2.779478535989974 3.171419950929417 -0.2200725466490016 0.9498498399626998 -0.2648925311771696
P 4.808025520282039 5.520450824250617 6.87504475728635 0.8826625434829249 0.1965829481674937 0.8349577812077943
P 5.9847400670342665 0.030543144673494286 13.025251435447279 0.5201994755484332 -0.04031129802453703 0.7131486836180815
