# total energy = -340896.99871175166 ev
CRYSTAL
PRIMVEC
9.00637328260982 0.00000000000000 0.00000000000000
0.00000000000000 9.00637328260982 0.00000000000000
0.00000000000000 0.00000000000000 13.18173767726831
PRIMCOORD
 96 1
Ni 6.352258134917543 2.0387006735169293 11.548718476905316 0.3123376120330105 -0.7649576978695729 -0.3380751260084307
Ni 4.467701540474143 0.31954972732459536 6.141543223855895 0.6096003320107696 -0.03004539732215471 -0.33693304198418744
Ni 2.8215796728430487 1.6300905231525147 4.908048349082162 -1.2559604972493918 0.10006707792693088 -0.13627900907111368
Ni 3.3241713286198076 4.278351548160858 4.71688717509773 0.23609411888823856 -0.27882559631849396 0.3218123842926651
Ni 5.2188781057752065 4.277577000056836 2.948728048579447 0.2596914465922044 0.8528066364637571 -0.4593622896564024
Ni 7.312841885876721 6.108014297325077 2.5299442989324468 -0.38374691701393265 -1.1533755379966135 -0.2615734941062656
Ni 4.965898086079246 4.482363916210731 11.497507337669559 1.211489154309894 -0.27706001977763894 -0.7531486210497869
Ni 5.578907878545545 7.920573943587713 12.446881756416355 -0.4488097109515367 -0.06874255678203645 0.05471513215469287
Ni 1.9529329805565308 6.561638301455749 0.14720737035588793 -0.6023115116588401 -0.32445882077657673 0.6675450268463535
Ni 2.6043279360383935 1.4944545412157721 0.598552762041009 0.6248235767184271 0.7711052055282075 -0.9425466214330671
Ni 0.4096179635369722 9.009975851893586 4.608295530913952 0.7396138197881457 0.36380209846088957 0.5738383439198118
Ni 8.579561271763643 2.4226783928988076 1.277931420011295 0.5010990072735563 0.26088906644473137 0.5294135379475334
Ni 6.911040553729052 0.7616284615186996 4.736211249655729 -1.2058797785429167 -0.02578456516327172 -0.6035677526634444
Ni 0.6309216676904548 7.298143484646923 2.365963458937848 0.7433426907029584 -0.5193834074050411 -0.001766604982119538
Ni 7.569505512253434 3.80738126904943 3.8832077271584495 0.14043288333848716 -0.0017828029320356392 -0.07286300670831322
Ni 7.628983601543623 4.0031257864075425 12.517470107812597 0.5877937776586393 -0.7449061785353365 0.6224694746639537
Ni 7.87778466402719 8.97232020511553 6.782360193893886 0.20176500658906543 -0.8264978233658992 0.5126368327098267
Ni 6.916408352217386 0.5984086600681678 0.44880919696311666 -0.21442151901081136 0.534759375640479 -0.4873762583708252
Ni 1.9983701338680093 6.512463503223704 9.363766009239901 -0.3566649731954761 -0.6207033839024665 -1.2021809895350908
Ni 0.2233643623651112 4.855966293548046 1.352459159090083 -0.7998910194116482 0.19777491159306582 -0.44617330176995423
Ni 6.378466681228028 1.918393538941165 7.06115338011235 -0.6399146667235946 0.2773176443143998 0.4018693376462562
Ni 3.721064187317575 4.298354703265871 0.7099039590046952 -1.2136506807375873 0.4672288368886727 -0.4327513719370934
Ni 5.97208110506935 5.554545638762086 4.924539018599173 -0.21252404487778237 0.3614127722931066 -0.5783894536256038
Ni 5.263045360451023 2.815131109558407 9.348119236901343 -0.0467547396570356 -0.2123384112295375 -0.2704065190168633
P 0.1574278027796473 5.650292393341735 12.225376309500895 0.5660160196619155 -0.6031265513609677 0.6468170502703828
P 4.005476449839514 6.078572462998968 12.545916737888774 -0.17021319992471332 0.7503052380637207 0.6321458214114533
P 2.2357240958840063 8.469224192433828 1.41718165955436 1.2739546198339673 -0.6489317826205405 0.04751167242771817
P 6.177993817886065 7.896905194548551 5.788259224689183 0.5144965116263849 -0.9966022656268901 -0.2478695142566118
P 4.58962982224437 1.1606693402491304 12.655192866443546 0.26851778663458276 -1.4568045346860845 0.23734676034841706
P 4.002054027984536 6.1945655447628 8.153563417101282 0.38690937390231434 -0.23696803685275966 0.10853629174020664
P 4.648882752201994 1.0446492393653908 3.8859105397865514 1.309008783224623 -0.7828543756443356 -1.4427223455614056
P 0.1888051067284798 5.525031753449555 3.623804362023094 0.3004025511583214 -0.11986328671725163 0.005150690963004033
Ni 1.4449284944249257 1.0779548078383043 2.6924625039027084 -0.26491644243656953 0.6646656484160295 -0.04506012556343208
Ni 1.8874026084070128 6.51021190989806 4.769667224562795 -0.43796119827280705 0.005804522496919036 -1.2245737554079943
Ni 6.01129485442875 5.32566667402381 8.878018973450944 -0.6961513777291366 0.40211950598384943 1.2088792274908728
Ni 8.576904391639385 2.289122883194959 10.315012852996304 0.49227035323833285 0.5600502889967839 -0.7011879117117794
Ni 2.236777841560407 5.368969316862579 6.887220497618408 0.10395432879647903 -0.14060926101535137 0.7213728713000866
Ni 0.4891001085695053 -0.13360864730633362 9.181159088618251 0.6018602830540345 0.9227031043445786 -0.36374244886754775
Ni 1.580024093963514 1.2114202538091268 11.312343507667308 -0.5949782112222205 -0.24389998808590255 0.1935426186792731
Ni 4.019409309338593 6.745035081016034 1.523018254144881 0.6485867405762958 0.8348955605112911 0.1977036920354982
Ni 5.756711700284932 7.848225746848146 7.970891650591855 -1.1581349070584699 0.5640650665831317 1.1116444768064144
Ni 5.184050460214159 2.717132761653115 5.040300636569128 0.2697658001090709 0.8195468459693629 0.0036211416923550535
Ni 0.6131809135590475 7.3766790598453555 6.624297441796407 -0.12128664942733951 -0.1125929783080835 0.8565681603887184
Ni 4.7358663055582415 4.576390453489589 6.8529215261702205 0.7637526218178782 0.1091304736807798 -0.036840565867117196
Ni 8.1431934788807 7.035013282238963 9.186484557152065 -0.7295410089331759 -0.26258522320023164 -0.07438844221390414
Ni 4.634904860836402 0.4247837955411741 10.472718952711 -0.021760017384910908 -0.3557118652535874 -0.2785170639391397
Ni 8.007620541557076 7.142234156406089 4.602324305414346 -0.4363861404762033 0.044097504539846635 0.6618245794228086
Ni 7.149988643819603 6.246343184879289 6.95616158333761 1.2776737205567672 -1.077782791061963 -0.35549486414677484
Ni 2.3411256826440128 5.297125477027958 2.4247282434624733 -0.9820048274286893 0.017470388870621526 0.9900919753121981
Ni 2.46984476988438 5.092779873165888 11.303221852786463 -0.8583293660541993 0.06397084642500596 0.6597625546874574
Ni 1.1251842294369947 3.3886299423463195 3.851466565728193 -0.6628046839478908 -0.03292426153184653 -0.41828017490411185
Ni 3.6709527262620614 2.5784886510333127 2.61541478157386 -0.01888963781565134 -0.2299070162409202 0.15639532020501454
Ni 1.2280460189256759 3.3192448424233003 8.068422567722743 -0.6039631883296502 0.334028980963515 0.7109023107860659
Ni 3.5611290102104918 2.6106684228434043 7.205269763150795 0.07377626255120197 -0.09701235026100713 -0.3761081695217523
Ni 4.01393343437063 6.834198176711503 5.894029172117265 0.7908584768957347 0.5790486844761575 -0.17831011800023486
Ni 0.8979300144425023 7.470381367685321 11.262924636718761 -0.28926401804299856 -0.1197190478299035 0.4832465524731678
P 0.2839979693500204 5.6407906695075205 7.965117664667576 -0.1356269773094116 -0.4002235745127172 -0.15961871223831864
P 8.523541629821642 1.6089795841312848 8.056519744766064 -0.2016955868037107 0.12196773465476414 0.5019377011247679
P 1.8237545682777325 3.270979687894814 10.257738623253253 0.16139225919897365 -1.4056542370645146 0.2665058984108765
P 3.8975800976746946 6.058641358880375 3.688711493140074 0.8983038495646077 0.6993644853497956 0.40375035671905307
P 6.91974971671264 3.8097589516013097 10.426253271568367 -0.4245325835717269 1.420452992640244 -1.1891601517953907
P 6.436611827269437 7.90277734994183 10.37259059751965 -1.378914249966509 -0.555537745838411 -0.983775546175867
P 2.330912455318896 8.562142945796468 5.749794805588557 -0.2624476691811029 -0.5377613956915965 -0.6640784084539918
P 6.915949027178954 3.962101756014324 1.576232410803131 0.31090576468249037 1.1784911021173188 -0.014602580404523238
Ni 5.404742631620397 2.8758971102308637 0.41047897282469814 0.323539651396417 -0.05220316436611654 0.18672533864712357
Ni 1.3189293319219355 1.041614091562424 7.020197798156231 0.5352653687426201 -0.15603845108622805 -0.7412906932699362
Ni 6.85337274547268 0.8228141591870565 9.245789724074843 -0.5676419853011127 -0.5860467130605456 -0.08906789860294982
Ni 2.5591969994192025 1.3744085914657824 9.02843621525187 0.4343976492912648 0.21491259971461696 1.0791773574166446
Ni 6.4152667225423405 1.987004090760163 2.4842702780031103 -0.6263904069849147 -0.5145942135465137 0.797261295098285
Ni 4.200725616665984 6.75618497116462 10.490066128329087 0.9591490058764385 0.7721531871767476 -0.7788758506125618
Ni 8.026993250530909 7.31609318663895 -0.0017130122021493002 0.027362708283669004 -0.5551011725216247 0.6541074132842091
Ni 7.7928815829038385 3.736978448943221 8.27678681535242 -0.3454523923091083 0.0341650759174831 -0.8073299921881967
Ni 3.085952754766763 8.50508757092467 12.316989138734662 0.32502163525858213 -0.3773217302138792 0.4910843033500317
Ni 0.2305136214926933 4.739198663680193 10.05541134764829 -0.5599001365721648 0.719112100290368 0.5843688111374904
Ni 8.564934921520265 2.2747937432705663 5.86516104377053 0.1755605802795557 0.7167135181512043 -0.6251688758729878
Ni 3.5840772493854467 2.6654541916429535 11.462364469042921 -0.27467789269870757 -0.05329742587155983 -0.027457839100636584
Ni 1.1418820455399643 3.295359940424878 12.646453982428062 0.1379247722046528 0.6688586034514544 -0.21526329818581638
Ni 2.9557926477979852 8.104096812374234 7.828646791925684 0.20537046455213664 0.7112938897975299 0.26803801878468675
Ni 5.467363945193184 7.737762578292094 3.623198233099831 0.5277837156535943 0.03926125949346787 0.2749650849218232
Ni 3.1594447609157554 8.409953249729597 3.5753752915005013 -0.7809805556603905 -0.33389348382691525 0.18786279468567646
Ni 3.452773333007241 4.3128279451631055 9.150274433289072 -0.03765611978987708 0.09760678931189641 -0.2510857072010644
Ni 7.082611965143059 5.983582243776735 11.26322815149906 -0.008655875902785094 0.07698345663459 -0.7082540745299415
Ni 0.5160201583708947 9.13759616159104 0.2736361368654107 -0.004222779832095954 -0.46912708235265016 0.12687751325155566
Ni 4.591286994932043 0.1374525674318716 1.5931977161931867 -0.17957407231432299 0.895894725902483 -0.24013743571967675
Ni 5.994912261391372 5.662108755114709 0.28482475441919664 0.20289294954592155 -0.07705339064057697 1.134717042355162
Ni 8.043934238713048 8.889245417772601 11.232580363787736 0.3529407302663535 0.8515673647400174 0.8426703193607036
Ni 0.04275145279265141 4.733830865191859 5.771518177994362 -0.5834537555223887 0.6310703289590873 0.5853566289720563
Ni 7.956221169119295 8.805197942112994 2.551997304601126 -0.4157916041543033 0.3562268572167929 0.21675890889473637
P 8.456155944771794 1.7575757372504293 3.3873510373373543 0.058208747130248144 -0.34641964131838404 1.6844374101808475
P 1.8352467006118152 3.317830841814797 1.701050837766154 -0.0008484640432243453 -0.8096013047208767 -1.1396995831714178
P 4.5806594744350075 0.9520186899484321 8.271065967030626 1.077388383837022 0.13446123913608454 -0.23410639903424843
P 8.5244422671519 1.741103080480024 12.404107787690448 -0.4173013559306103 -0.32016636404880994 -0.07494842848243222
P 6.332606228371329 7.732079556738172 1.5358703488476522 -0.3828465166868503 -0.2260022818698753 -1.1382443387821302
P 1.7785335679255159 3.319298880663116 6.00670700786842 0.43875592625996046 -0.6561388418919409 -0.6566180955212046
P 6.7954797778837435 3.8835931999357998 6.11666942206885 0.3607972501962947 0.5283280181928386 0.042619120222107246
P 2.5280349477923014 8.486723575760726 10.145403930324926 -0.3071229006012904 0.07099021516563257 0.15868797289393313
