# total energy = -340857.36561782344 ev
CRYSTAL
PRIMVEC
9.46129422837683 0.00000000000000 0.00000000000000
0.00000000000000 9.46129422837683 0.00000000000000
0.00000000000000 0.00000000000000 13.84756046550594
PRIMCOORD
 96 1
Ni 1.187269431341579 4.968948742403515 7.064886550132322 -0.6675956775786309 0.18179550544567402 0.030488398396844266
Ni 2.7044163479458185 1.3167850883071204 0.10136736044730167 0.5625015787507538 0.7629075002087636 -0.41246022578822517
Ni 1.6769670990472176 1.5124541146570625 2.3775844533016994 -0.22108144752949024 -0.5109134222608169 1.4935129458507117
Ni 5.6045584900070695 9.319119379671275 10.873021532171471 1.040872548299175 0.12948255497457054 0.06670058665134318
Ni 3.797243140100457 1.314996903694184 11.115021570326112 -1.3898586647931546 0.9262018615264566 1.6593586128353488
Ni 3.599880542080062 4.897884961304225 8.009761407349101 0.08346700747640463 0.3369726369728713 -0.6558524209997737
Ni 9.408320461844633 6.118240538632253 3.2147386909834164 0.4926012542151904 -0.8510821975734826 0.24767179642350892
Ni 7.048304685832679 7.136313644930748 9.016174414615941 0.3502521276905968 -0.48617221076039496 1.9876527481976154
Ni 7.278195213478872 6.672521000877068 2.455075291583887 -0.7607542013111867 0.6399732878756721 -0.15689180022545882
Ni 2.057273282653536 8.53042589112956 2.479723855359665 0.5496044110731115 0.3028289012116268 0.55704338384966
Ni 0.5808373690704833 0.22666990308405663 0.5048792604565265 -0.35696090716934004 0.20174212377092995 0.033633371783729174
Ni 5.344098520644487 2.9340987271185472 9.868463884706731 -1.678088070924052 -0.0948870763878882 0.8647761501208076
Ni 8.077627270992453 2.1996089933255796 1.7108110947029587 0.2819983376195208 -0.10049722348581402 -0.8364672758737851
Ni 5.234423197717718 6.905107997384037 12.719136703661103 -0.6593840883021159 0.9252402689441357 -0.9255858252090124
Ni 2.8190493890587196 5.356303590224847 10.556756957073322 -0.29684645837594686 0.21561862464270606 0.8845013964638768
Ni 0.23579815977485613 3.104420946177184 7.270620501303649 -1.3252838662355628 -1.9120633436970749 -1.7192907704146068
Ni 3.4506475479009775 5.074470557155264 1.1585903562160076 0.8100972705206887 -0.1409275635867186 -0.34384133906824654
Ni 4.9547851849137485 5.631674559322816 9.715573154171237 1.6098057416078855 0.2248149464299935 0.2075908692422231
Ni 5.8984168280662965 8.880086942665502 5.751168813420514 0.35414272099425465 0.19735273645398269 1.4305057488905557
Ni 2.879431368951632 0.979840016240949 6.130287604598666 0.19315618187413186 -3.5129134187735693 -2.9245293158290986
Ni 8.416615982616266 5.302951351958453 0.8127355833561732 0.5917062253391681 -0.03837577156472101 0.016947940708248233
Ni 4.725093344446772 8.049479920603638 9.197507687920798 -2.7986923280269154 -4.734948981140742 0.8520797856000616
Ni 0.12405743631367327 7.890312567463795 8.463351937814796 -1.006129488391035 0.9443494789697607 1.3652845749982165
Ni 3.011094739711547 2.698540884217599 7.297900251009891 -0.5379909952038991 2.58325033817139 1.5765179260890334
P 5.522008697690294 3.976704969402991 1.791071253811636 -0.30927491394728673 -2.5665569366761085 3.1423680880515756
P 2.4886042261411583 9.006357375703862 8.50958928280644 -0.9898068399716116 -1.4013486677106253 -0.7314012020703662
P 7.965378476030133 9.138616808001423 1.1375323536074748 -1.6773141688725046 0.3178366874743688 -0.7979727193430127
P 4.293478562131699 9.111803500101624 2.5513572063727055 -0.24784277478373448 -0.7793242510038901 -1.9951277164184222
P 3.764223223173747 2.8997636902913175 5.034696222264662 -1.0913541019884945 2.488261960318947 1.5698279156633674
P 4.398867918763971 4.959951051573343 12.536016191872736 -0.17180831232597504 -0.5424261481571174 0.19554447960065033
P 3.066793378951531 3.163847335351014 10.143656981472828 0.20091114322920237 -0.0876843879918619 -0.4041938720143749
P 8.900324651062704 5.865160378783377 9.508967817799636 0.6619443928301245 -0.12093209430139819 1.0731185528170744
Ni 6.2243867988043915 5.2497599556942784 5.685752478858059 0.2961597167215673 0.17059809406795778 0.39972760871290514
Ni 1.584974935070597 2.8399115428763118 5.047075379659192 -0.5763438839504847 -0.34895294926319903 -0.12016590555933498
Ni 4.8173504246623455 6.6315725193702475 2.3908368881553503 -0.8353082225686775 1.200535483511868 0.05039207929930675
Ni 2.0157098170205736 6.832738557678476 8.51277395445043 2.061255975506063 -0.9132021068326789 0.1101771697777393
Ni 1.400044477692522 8.119701646514825 5.795633111870017 0.11704612898343068 1.759112273286919 0.8031961725254813
Ni 4.507578189677409 2.965160156135851 0.18068328238999473 0.21267316886113696 0.648812740544173 -1.00045686348629
Ni 7.955037281416697 1.0472422764661309 13.036107091310178 -0.873067186485006 0.18229327101769896 1.2087475870090152
Ni 5.550260122315841 6.756215609797893 7.212917013812442 1.1043003777365175 -0.8230592299979953 0.7767400352164816
Ni 1.221273322870117 1.4884318885605246 10.092614245132452 0.8475669853313725 0.7889134373542219 0.23631523376010913
Ni 1.2820905222984535 4.118529770185624 9.22771003142035 -0.43563692101500456 -0.4376166704491947 0.7415748001692584
Ni 5.953282873412427 5.455107886060273 0.6390810964632713 1.1585252005183533 1.9929867588160193 -2.328818083095596
Ni 6.857933984261808 5.034666892252492 11.373139869362232 0.2110469461116236 0.20549387750387837 0.4563188748443883
Ni 4.219349321695947 1.2762623650414755 3.9391322776839788 0.8553687407639785 -1.2931659026550955 -0.6064576726167297
Ni 1.9743734224495715 4.469950622451758 3.017244580972969 -0.8038412623086478 -0.9553802828626256 -0.1343763927317621
Ni 2.2838712799013052 8.79546512690834 12.80594691677791 1.0219697978574014 -0.7022094109977584 1.2486950739362301
Ni 8.99821120135604 0.054743994650326415 3.0049344910264524 -1.8626688524243469 -2.4531481473349492 -2.038014488479619
Ni 3.8565086872720657 8.052479150880362 6.863099850921403 -2.3156828312652182 0.988578109770833 0.3718355102883274
Ni 8.125624416714286 1.9690467137877554 10.812577107736516 -0.592018100152632 -0.49997106431670024 1.5657478320567226
Ni 2.0946832401114768 3.6315474939292596 12.198399367914934 2.666838958827323 -0.8845047388979865 0.6383987442997006
Ni 6.958810303537621 1.580783581718582 8.557542906574731 0.1000321109239374 -2.1746871334447255 -0.8888815278094433
Ni 8.244770495183646 2.4563695966370602 4.054122955719467 1.0343509451305732 -2.2193183990008554 -1.385334551670556
Ni 6.883034797902657 4.199064306827504 3.7235954795419453 -1.099402169103952 0.9983871254414546 -1.99945128349444
Ni 4.122058832940255 0.7018047466826485 8.990514438485015 0.09732808172921302 2.5999956759505287 -0.7182152995077115
Ni 5.494760170255072 8.293288012089139 0.7981860050610744 1.0883705938801387 0.5033610638348556 0.0629989694300399
P 7.946020667998027 9.092511921129256 10.425343364481563 -1.243974271421793 0.0035985159845357386 -1.1461309406190585
P 8.535818828851115 6.483834409682402 12.729397477273428 0.06938816078583535 -0.8478490353481656 0.06504351066389444
P 5.831421403493793 4.0711003021186905 7.635544512721015 -0.7744810639789759 0.21051138532312777 -0.28403285155104635
P 6.019313245971598 9.113383536241097 8.254599833778247 2.524498574053478 1.8156600877749762 -3.1382756631497566
P 0.22766428510955727 6.446746136228905 5.326325479398979 -0.5122678794061822 -0.8908450792937175 0.446428869424186
P 2.4390081216913546 6.181300064797447 6.237689378517559 4.098866543679044 2.5584587330490067 -0.8559487816371645
P 1.014903572725301 1.2208002581577 12.279642555496013 0.38324760878001096 -0.36703577490683886 0.06050757046675386
P 6.105666478576207 2.385476118834241 12.177336634659275 0.3738160310534659 0.38953806977441296 -1.4877611309685992
Ni 1.1702201791060685 0.8143364343429926 7.568868879894105 -1.906363207988504 0.3982546237118045 0.11890117991429845
Ni 1.3365875771688984 5.3623682798380345 0.1572098113598605 -0.8433262077771475 -0.5022009820884834 0.3770782467445054
Ni 7.1223298520317 8.295464109766257 12.359972728182129 -0.6461704178253195 -0.9727360005322536 1.2175962956488964
Ni 9.011608394011692 4.335042027764662 5.205464068282396 1.6463843120628678 2.129329788355849 -0.5678147634335512
Ni 3.9102488386026435 8.216727219031563 4.502534373713619 0.031115747568198023 0.07405908389894342 -0.6297644656634702
Ni 8.350500458408858 5.523673885478002 7.55438458452932 -0.9223922579723791 -0.11368415448973325 -1.5648428037439501
Ni 0.06624135942091051 4.0765783914884794 11.780091895960153 -2.8863636033926547 1.8207477867105288 -0.8696532757074507
Ni 7.273720021299406 3.1957318969679234 5.876087227510785 -2.3153213341607417 -1.2165377724773951 3.041822270716013
Ni 7.803117279671083 8.288812819909673 7.2046923107223595 -0.464094147914433 0.8190447095219636 -1.615924967131746
Ni 2.2906077214061242 6.6292734248679 4.076181963259474 -0.8317032788262385 -0.7331307831669632 -0.1670144904817575
Ni 7.946399119767961 7.504972975317359 4.759475687745243 -0.3831406508885014 0.4033852600701504 0.37260864100892604
Ni 5.716504523553442 1.2688257877622793 1.5780539983279356 -0.13207782650557254 -0.04911526946941219 0.43753516647898194
Ni 0.10982197298761927 7.537141375761719 1.4329319364997557 -0.27522399501016476 -0.3499456521937715 -0.8815605686679978
Ni 7.310183849332513 3.63656197988088 9.14796172833051 1.3640208777944443 3.8642834621186934 0.20801432993288693
Ni 6.367999784199962 8.961283769904766 3.5124203380483965 0.1655826431312374 0.6172953866621821 -1.782721942286059
Ni 4.243305318732746 5.264670955429665 4.171965267841404 -0.21089833634890132 -1.7857051932840988 0.6900087551665085
Ni 1.2806807894554508 6.736460427407357 12.134270715499676 -0.4416468746545104 -0.41021873805221604 -0.4935821300712209
Ni 5.035253492495889 1.53556805650576 6.973410026692236 1.5848002207024836 0.6471816326986531 -0.7811271085405838
Ni 0.2023761378425912 2.6598252681533876 13.677872356951703 1.188098543300096 0.7406013805123955 0.5418713040949119
Ni 2.0949481563504304 8.778851094208253 10.61765836202047 0.14608133987351615 -0.8830366389928921 -1.192632169504391
Ni 5.179538229783091 0.7746472511006266 13.043210631031833 -0.41830305772224735 -1.0780368160542981 0.9706575207366702
Ni 8.458614667784651 1.0850306856940053 5.883690323568753 0.4000137724947562 -1.300336709371922 0.7940062784960971
Ni 7.448716119716723 3.5072639326830513 13.407761867455813 -0.5906479592779827 0.06146993438002317 -0.23345616704475922
Ni 9.28035645713582 8.77013724220553 11.972836436257934 2.6237832652884294 -0.08922345034420763 0.5222347608109069
P 9.093571586085071 4.013575633088776 2.8108473930748326 -0.008921470859345925 0.19443016349054904 -0.5287165118805087
P 0.5909448697159861 0.99340751219307 4.284684289127866 2.591218186868215 2.0197398585401474 3.747974725521919
P 2.3184523103789925 7.346723367719607 0.7099537594187446 -0.6138555077426976 -0.8990049893966905 -0.7573032666481087
P 3.8211329080775185 7.3266654239131235 11.049314774030234 -0.4643659135185809 0.0010875766372239334 0.9385328722879837
P 9.052746101403478 2.409820028935222 9.035478293270831 0.7882974010367778 -0.8033249847938616 -0.3773343286193695
P 5.839056667952204 6.868275178875245 4.29205179895905 0.2538624986152531 0.2009185994283701 0.43848081822170293
P 6.270964750388975 1.4461209806819433 4.713529750616449 0.7217222842197054 -0.03537760816834552 0.7722943407403022
P 2.021291980627095 3.1117912943966415 1.1453000761853627 0.8548833164871278 2.5263209719741977 -1.2082030273594546
