# total energy = -381167.3297958346 ev
CRYSTAL
PRIMVEC
9.23611122652840 0.00000000000000 0.00000000000000

0.00000000000000 9.23611122652840 0.00000000000000

0.00000000000000 0.00000000000000 13.51798238045366

PRIMCOORD
 96 1
Ni 1.1777057948804974 0.5977084810066189 1.960432058533681 -0.9815453712937676 -0.47335294750853957 -0.5250035818052958
Ni 5.464101949344699 1.2870613533137705 9.843389370142246 0.3109289046109419 -0.24900465630231958 -0.7534265573015219
Ni 3.3050500869731803 0.29150091044869364 2.317644206822693 1.0250785186897122 0.020872986794267277 -0.5662520469321216
Ni 7.201654633957701 6.058741270548331 7.372694485680878 -0.456100331075679 -2.4958554563954887 -1.5618209861984909
Ni 6.513536629738601 5.866907237722394 3.111677317995641 0.3757947520463915 0.06572151056752552 -1.092402854967983
Ni 5.021516729364631 6.1206324527325675 4.881208190950156 -1.512554278752879 1.1698835629539657 -0.08220305316231648
Ni 1.075656000528366 7.527495406421168 3.083276275581594 0.10214761460504343 -0.41894171974751077 -1.1246951393427855
Ni 8.234030216680466 1.9951663025032764 8.53379467595773 0.8473456133491859 2.741053080246892 -0.15374451284572876
Ni 5.312712848138638 1.9039504667695766 12.275409885530333 -0.4361681109281262 0.6691026011414606 0.0831510188978826
Ni 3.074387442014349 0.6577589061979712 9.390645351283736 0.1941080042644399 0.19001480803167276 -0.8066694757860623
Ni 1.3714055221999741 3.0536893164696726 7.191877286478186 1.6697692666457113 -0.042008226110985716 0.3062399837757048
Ni 7.058291713518406 8.093318060199815 0.1464173024641173 0.043062121296796804 -0.049916168104152746 0.17858291204564727
Ni 3.6881732220551564 7.125696854181077 10.440600024746876 -0.33637279860534325 0.07720662838898962 -0.05293849987024432
Ni 7.53562318441283 1.3453873965153007 12.772411502775718 -0.5248971381344185 -1.722738619753891 0.45986879697917576
Ni 3.47916002211048 5.190011108798601 8.84726275365116 0.21974910187131186 -0.46180792298341755 -1.097219045409704
Ni 8.115660213565532 6.662709064219665 5.210668595453318 -2.1136069783039537 -0.6890435630397617 -1.3231346811030438
Ni 1.5456724712302947 1.8491156736599192 4.240077056023082 0.43811675001406486 0.49021218515772347 -0.432370591558907
Ni 0.19137776892504044 2.5728481232606666 10.388826078939987 0.4316673948442953 -0.07673740206205494 -0.6314971320838608
Ni 3.011332509799488 0.917620593591849 13.476846944924214 -1.8609768094339045 -0.5234987151249952 -0.6027689109112329
Ni 8.34447563625353 3.4678642579243406 12.227177064816631 -0.9929554129029221 0.6123753236527454 0.0997588026578927
Ni 0.07052602268924242 4.222620805563716 0.6803522817925212 -1.0794123562455862 -0.7556019676862857 0.8664265412400368
Ni 4.968409089078202 7.041029421397478 1.5438889781278062 -0.06897884116255863 -0.9922211058400588 0.2774523701200512
Ni 6.443406836226452 3.0466606357291557 7.793495413421021 -0.97017672444551 2.0348201499120373 1.1343817705029302
Ni 1.1191673211178212 4.1152879555170045 4.854186099961285 -1.318870249399735 0.6478380353357294 0.6606894373771008
P 7.101184214647132 2.3719072846395273 10.71058171935151 0.5611651193275174 0.4799270011816315 -0.03852129600364979
Ni 3.4050679368273964 7.738559023086468 5.782128047991409 1.7417326443578907 -1.797664165418188 2.8385847933464787
P 3.432526895883318 7.587881102454676 3.171805326522368 -0.5019551846262646 -1.1555218949156552 0.1979633734547881
Ni 5.336523543209665 4.415858727315485 12.328589567485325 0.7861574718756396 0.8840555671757097 1.1270644109059107
P 6.343573708599319 5.630231884272004 0.7791195621693835 0.7723385637146764 -0.7455448405605999 -0.6373427922313604
P 1.049933430407026 1.3680251054443509 8.542216162290453 0.8109961281858742 -0.2280493942068911 0.6482334710019352
P 3.596310858526666 3.3483027964447185 12.022353364982203 -0.2255004025327923 -0.435739765141456 -0.975563699789036
Ni 5.3607129188462155 7.22695234295675 6.950879432914048 -0.5503166066487878 0.479092163985162 0.047525556384789114
Ni 4.813057696101205 0.23919865907234747 7.651421854126766 0.06862582869851407 0.01983914621311422 0.8304817477143116
Ni 2.3915894379352456 5.141549232523315 11.496381760863358 1.1648547422808069 0.657722641439293 -1.1463831658391805
Ni 9.210758228494408 9.265297466040732 3.93366536740423 -1.2985641908525314 0.629653908227535 0.8052869936162389
Ni 1.331274618366142 5.798846333153578 13.368825080970483 0.05656992597524451 0.6994925262872276 -0.17237138391829668
Ni 1.487965247489493 0.5296863681054895 11.150794182324693 1.5152248836065065 0.25622225709668134 1.0076819204798193
Ni 1.9960160247478593 5.713236817011854 6.783580206289306 -0.25424790697912986 -0.6982550543357007 1.3003503362186766
Ni 2.6780104871391504 3.199065709184176 9.830303647575672 -0.312902483397545 -0.7247764976649969 0.7332007171729501
Ni 5.148790343824978 3.984162882621973 9.959467894030215 0.2767255192563557 -1.9701664184873942 0.7350172015563987
Ni 0.7241065121105908 7.63558561759892 5.751401352738386 1.375664889791276 0.3407709276730389 1.1571301199430395
Ni 5.427314517821074 8.56248480865716 3.10652726230456 0.6209751495066145 0.0838560153847072 0.9994921855801754
Ni 8.04725757287661 7.61416707536862 2.3851398613766346 -0.36241395986411135 -0.09142482887090062 0.08921753680693667
Ni 8.545545780433628 0.2702680140566116 10.934695961360239 -1.1278380558471415 0.28261900192265516 0.5582260913038516
Ni 6.726576774233692 3.128575707329215 0.5147017010444979 -0.3682773606234238 1.0580202637230554 0.9229206196720234
Ni 6.099620299401851 8.52326827984739 11.438944231574098 2.4261677620913633 0.08687449049605683 -1.1986426373645291
Ni 1.4281429542485888 6.172059120752539 9.373383059162808 0.05658303860136707 -0.8775414202062757 -0.6546110923935049
Ni 4.754343736222799 7.107889631490253 12.645856457778725 -0.33793114423139864 -1.0128069004112104 0.17966534647654867
Ni 4.136392469961264 0.11569060721109255 11.474901336686985 -2.284282462577066 0.049427915613824557 -0.21878159575171996
Ni 6.445928294626138 4.4969887294504405 5.1665052054022595 2.027874314721824 -0.3253101130332785 0.30548305100502227
Ni 4.478719701191909 1.6528021268272148 3.7578365919439203 -0.4502263887934052 2.7162900143695996 -1.7304408734941557
Ni 8.111901116244388 6.69669795400298 9.283826029028315 0.3287350795544274 1.9440064722625743 1.589341817326579
Ni 8.242786050244211 6.0503918258841685 13.021656280167985 -0.6686135773201839 -0.27614470705222116 0.22918839290734078
Ni 0.19454760234178872 8.112621532930012 0.09590685669047844 0.9137019292872329 0.0744689177428524 0.14564888032178785
Ni 4.0701141348838 2.5712225676623346 7.882984096331493 -0.9046783856323838 0.29565938004638115 -0.250935040555813
Ni 0.25179024968147595 7.379403596968541 11.081271201328512 0.5391821872985231 0.016056025021598155 2.270328057279503
P 8.38093980387976 2.7223622938618344 4.8145243905842445 -0.01891149219252227 0.05181929866413656 -0.37513963496089586
Ni 7.052205116136013 0.9245439826629284 3.601312212824944 -1.221550395200638 -0.2294799560058306 1.300299685486399
P 2.5855200680385764 3.6020649559003086 3.4263756457214463 1.0894085482263496 1.1978227125663952 -0.8846212098711925
Ni 8.565634322628929 3.936098159134916 6.691131349689826 -0.7833487987822508 0.7097453143634873 -0.03353412720170353
P 5.589666883204527 1.6975880307835443 1.7989321862282177 -0.777496453766532 -0.8544547135901414 -0.7822429673125818
P 8.297362232235951 0.4346375461598128 1.6202245148588161 -0.21844221013443024 -1.401321671127432 -1.3299288212067417
P 0.05046611243913888 6.196239260277734 7.558660816963515 1.0490774527074707 -0.069337510053558 -0.8966382889367267
Ni 4.790844848294445 0.256295624800036 5.335210168175104 1.9282522947521115 -2.258392739294498 0.4334054605813245
Ni 6.290696971096744 3.3463724491716995 2.98354012712368 -0.044573672845316784 0.5855744014098172 0.917413316700549
Ni 3.729200028690342 5.317626459379051 0.5174734580618817 -0.45252444079896254 -0.8022464070177022 -0.5885041734621026
Ni 3.009697718089801 7.45090957107246 8.124685741580818 0.9587846805584842 0.3985225326612104 -0.0032925547083427166
Ni 1.5288996930111372 3.0180379266426094 12.198437980727023 0.34680530679257693 0.5147749620987522 0.9006512667508618
Ni 5.550431882172048 2.5605640951596316 5.83287401460458 -1.6987836516001904 -0.5193710661098668 -1.4849329174911847
Ni 1.5576978882134132 2.840048824736561 1.7352085595513154 0.500904117653931 0.06427577925993447 -0.34200351452855937
Ni 2.7151304186715257 7.4158215840379995 0.7624400686749031 -0.34596995537547515 1.4269607118517746 0.5416591880841058
Ni 7.647934298479434 4.457199561736712 9.308442113009427 -0.373718329133337 -1.612558107542042 0.03480399505306264
Ni 8.050102295173692 8.303809037961157 6.857591013792474 0.19310218870774484 -0.6036137754100315 0.033727731269748366
Ni 3.3803982834004302 3.971056840610418 5.614761397753783 0.44426245790048646 -0.2212475407937093 -0.10034115752392397
Ni 2.310339366352686 6.276547248502169 4.632517580239137 0.28938331722968225 -1.9343347535007653 -2.358028386110965
Ni 3.751579126501476 2.9409163968353598 0.6335833847284533 0.9850083901417037 0.4096111863752042 1.0828260099128255
Ni 0.21131022083845655 1.147392877416139 6.149168342372385 -0.8813924185212497 -0.04663029826402937 0.18859015977000423
Ni 8.313700913221464 2.3798595765154604 2.444078258760946 2.149996829786897 1.556556652475758 -0.6205727718618731
Ni 7.84032249798662 -0.00029647917446858676 8.816671829235041 -1.3279971514016677 -2.8752600372803254 1.2622689559659228
Ni 5.6676011908109425 6.033074117095116 9.188943457087014 -0.09331818923887154 0.22253617769814577 -0.27370524437279314
Ni 4.9645114500867455 9.081535794538333 0.4595833593162678 0.5454520794676349 1.719677207219748 0.22900738724478625
Ni 4.43326879721808 4.7325557495383315 2.7788512745150222 -1.444350882303764 -0.0882456598119706 0.4489616631483688
Ni 0.5310994931426763 1.2702793389832587 13.211624618500382 -0.18865777978314607 0.022287350643290647 0.9232818596661843
Ni 9.255876632459486 5.102360412047608 10.804761423218759 0.15046507076350862 -0.6989024581117125 1.4075722800228339
Ni 1.609817264584947 5.456814657486267 2.3279997348729786 0.9908249968234808 -1.45244420083486 -0.6611879742800741
Ni 7.058735046863405 1.1539135720321771 6.730697927119919 0.037670003746948025 -1.0636705200302974 -1.3507506430480996
Ni 2.250895753677302 0.1773434977223919 6.971318023729672 0.04823440952635564 0.709946631741016 0.7663831174621898
Ni 6.659827397477167 6.008533769227109 11.327623228644658 0.5219226288871269 0.3113893891871282 -0.47232759156781884
P 4.954037699811126 4.578774495491541 7.053101942548502 0.4345591145697935 0.7920632958371133 0.13469855195787125
Ni 2.202332280177121 8.925888845998003 4.588286766575193 -0.11213660749695528 2.2578741477868665 -1.9663547580507879
P 3.354066129929716 1.6443049043813862 5.785520471691794 -1.2508589143567683 1.693790312150657 0.8777620208575141
Ni 8.741157382803417 5.318965695525404 3.534357794396356 0.26368874067705556 -0.7739429320873187 -0.9165522542518344
P 6.625284341012602 8.334389802654787 5.248126568661256 0.20223191892315495 -0.33397987289313447 -0.5415476022069061
P 2.522104927480903 8.071299170731493 12.177296521837347 -0.5693831363619355 -0.592661904384218 0.2026715775637348
P 5.871673071181142 8.09184028238315 9.045355175530675 0.2480654323175018 1.7047686655390317 0.5278047986995168
Ni 1.159215099949466 8.401323901638396 9.221467499609558 -0.9753654677353008 1.5986170719809178 -1.186423469590518
