# total energy = -340891.0038482363 ev
CRYSTAL
PRIMVEC
9.08793821047758 0.00000000000000 0.00000000000000
0.00000000000000 9.08793821047758 0.00000000000000
0.00000000000000 0.00000000000000 13.30111619390434
PRIMCOORD
 96 1
Ni 6.380777611044287 2.1275317328835346 11.435567809271143 0.37929479477985 -1.4847226012525916 0.5868082738169184
Ni 4.672717833884489 0.26219155618016027 6.1312555492739556 -0.5446370397655071 0.3622350110840858 -0.8807483571793476
Ni 2.8990158803225734 1.8482593971730157 4.774196476326544 -0.3197385324827719 -1.110965962682151 0.9292910419747415
Ni 3.6918839459499244 4.546222824422897 5.577702882213666 0.1709966150579571 -0.4494514583005937 -2.1623553513522498
Ni 4.962822991728654 4.715349351190641 2.345053347257059 0.12399042151174774 0.3645351199721722 1.3460046437226818
Ni 7.244640648574358 6.173072787332478 2.5856301516229045 0.47565896993389695 -1.1813969629102041 -0.5990526384019103
Ni 5.140555795812306 4.296895244526442 11.4771069564259 -0.008969293378145842 0.8338907733958606 0.34715523393282793
Ni 5.432251342811997 8.148645108389928 12.569421671400079 0.12994638198486652 -0.5158039175838988 -0.3902412664890247
Ni 1.8907091557185358 6.31800722306015 0.17620421290673963 0.5958955808301672 0.6544072039128148 0.2512800826000576
Ni 2.7150033110590983 1.5845001716824076 0.4200172320056313 1.3637048892159223 -0.38681064354092093 -1.8319881355110383
Ni 0.6441266926582497 0.4358466024690411 4.730595276032423 0.5209620647460705 -1.6070634029760582 0.3520706689565743
Ni 8.487988714489205 2.2725025203633327 1.3083640833865875 1.2681691235004418 0.5802272781652911 0.8882508362039799
Ni 7.133267967997319 0.7321515516383511 5.024257452822149 -1.2121221599082028 -0.4301468444347108 -0.6770221130988534
Ni 0.6901189294484806 7.379442033396815 2.4176241676144548 1.1409298560340932 -0.13917432834103774 0.3374094673999738
Ni 7.855059270279667 3.656577306697228 3.9027331962206615 -0.5290463844161017 1.6619765100741701 -0.3922320716668084
Ni 7.763189304718403 3.596724146821228 12.84009954411413 -1.7678085155093362 1.9958694796804528 -0.7297297279052142
Ni 7.841518242612609 8.591727527119714 6.9976104994122865 1.0376905510267675 0.518613619118552 -0.04321098816983526
Ni 6.780528741239491 0.7814754265109599 0.4810818140212411 0.2803327769916398 -0.4155062117034006 -0.7700713649470544
Ni 1.9407291666443638 6.754019226001366 9.32232685894227 -0.1718126832013493 -0.4032780450683249 0.4779408239895382
Ni 0.197844410947543 4.882876400864825 1.238126136721899 -0.43940744380103036 -0.4179986391079511 0.5364056529946504
Ni 6.291025135044382 2.1512876028980905 7.045334897191338 0.9031038420564125 -0.08464740093775099 -0.13806386888567837
Ni 3.5202037085953064 4.121934261542423 0.162937640968236 -0.8158254312537175 0.04637858726453948 0.2264159723685262
Ni 6.170037416029929 5.705489287669545 4.700920431977898 -0.9871393204417773 0.380000562597623 -0.3942984672775338
Ni 5.384403349075717 2.817133558658018 9.330519635077742 -0.9714165103898819 0.5146176105852814 -0.2366798161883795
P -0.016680001463165842 5.873216271980425 12.488218218706482 0.7732014259356039 -1.7220364514805442 -0.40862825363664457
P 4.078121312292165 6.069043160684957 12.651888347480064 -0.77992794602616 0.07757583880295027 -0.13329575807307364
P 2.306854926122713 8.714178404157252 1.3626863241765668 0.728127673525417 -1.4774741472202941 0.6454134850546369
P 6.271131638693249 7.8262050670293934 5.640471452610197 0.8620009013685154 -0.6789833505902823 0.1652910800327476
P 4.818324777026498 1.4515618141564242 12.78440775106279 -0.44243646043534124 -1.457159346922342 0.448786313912769
P 3.9810984858669944 6.2085975370979325 8.32427768999448 0.9704060668474964 1.6754552612868951 0.0027127709454727476
P 4.774439124271988 1.2601880150873677 3.775295767585195 0.06631646383904707 -2.7597169752049826 -1.0487671205559035
P 0.2610910068845356 5.542288096498394 3.6432952852640708 0.5516121855317596 -0.349272794496463 0.14388664621504252
Ni 1.4661661305731766 1.409502836946262 2.4167199177803127 -0.309373387198364 -1.1021180253732181 1.2009509737827315
Ni 2.1901839776732617 6.548958992256746 4.808978741554819 -0.3432872663369894 -0.3142782806991491 -0.6159589272389456
Ni 6.030319456732386 5.596643053865287 9.435332641983585 0.2577430646165819 0.5806936762787483 -0.27811931428008874
Ni 8.636776435942267 2.2126766243014275 10.347230884773387 0.6217678206112389 0.7630962191808018 -1.148385798091506
Ni 2.3410346610594934 5.378114495957862 7.228252369922006 -0.5637411075848098 0.3703581544118525 0.13161708481907008
Ni 0.41924203089153733 -0.14446004536242324 9.377832349263961 1.3222257961355293 1.4830902078554908 -0.7519348032473436
Ni 1.3141976308090602 0.8932706962064676 11.594649438132578 -0.03721826092151009 1.560951439109344 -0.27017023463634116
Ni 4.110265349109871 6.872389618862723 1.466128870027247 -0.5839129545469944 0.7960611041425968 0.13276688215279714
Ni 5.75898997886147 7.8028490662882275 7.871347581613672 -0.9696067108746528 -0.2407928099154885 0.7677560865503165
Ni 5.1485986209702554 2.818224111221808 4.986481620806272 1.4149446612275052 1.4101850350553327 0.6693653678845439
Ni 0.9803158754667644 7.415303036869439 6.598816329091809 -1.1275179535035615 1.132395850421153 0.19214239589763682
Ni 5.238932725004181 4.6950741614421805 7.360584561981283 1.066527272752802 -0.830334680613486 -0.3061867619402662
Ni 7.902989055458231 7.462287676492719 9.182026362816902 0.19260159492224252 -2.0278084944808947 -1.0957064654199193
Ni 4.563844336266135 0.36479074138150985 10.393305821799705 0.4770995590351653 -0.5856196528254559 0.15370286097451594
Ni 8.259790590516177 7.199019199655816 4.575929476260533 0.31094510256085806 0.5865727607673447 0.8209709800103989
Ni 7.473138674502428 6.090981443093196 6.811288685094986 -0.10060829514238157 0.2950400012948274 0.9478045273978966
Ni 2.3159792159064216 5.177625495043129 2.706550619895924 0.05192265701122026 -0.3882309209272153 -0.8753130450963893
Ni 2.3396623824167246 5.093925585772258 11.260086087437914 -0.5624522135700571 -0.06081687417705656 1.0232964870886248
Ni 1.1898928144130798 3.2154760584583264 3.8738699050323566 -0.3922989203490018 1.2078687839484874 0.4509159586612621
Ni 3.7064609985525823 2.7080328625888748 2.586575297178189 -0.6865485645320499 0.4129052837454437 -0.295375273147059
Ni 1.1902654198723748 3.459687129243001 8.153783428552984 0.0736433365177635 -0.756046254312556 0.41037146157999643
Ni 3.7539363868295674 2.7434849088500766 7.376998286860124 -1.0039358231738258 0.7010066489389088 -0.9455314150930038
Ni 4.3230594181193664 6.723974502868955 6.1449828796706605 0.0019882340746223822 1.2526980244480361 -0.4106072317398864
Ni 0.7958634500025609 7.603596024945789 11.397154004005447 1.2086264880501185 -1.7423301687325734 0.4666526526702286
P 0.3800866498824657 6.023985163924372 8.021650262336598 -1.853838912837543 -1.7395785741293655 0.7959739437454292
P 8.50083905886586 1.3996060724298691 7.922344545877895 -0.787601660521334 0.8181862181764102 0.8137585214223597
P 1.8099264745558024 3.1345388823490556 10.316704500925303 -0.8293036682458104 0.46251651901466795 0.12680423681145905
P 4.105230631440374 6.044378496867243 3.8173938229288926 -0.49457894676685143 0.6063118910674848 -0.2127970960335109
P 6.999084562961009 3.8071735278185757 10.249707312962677 1.405534937877831 1.3933242547442521 0.3134912660214795
P 6.264161190223025 7.712042389476658 10.404678467452426 -1.814008411104166 0.6243880318429054 0.23858114697615043
P 2.4564514740605863 8.740542512386872 5.697520074809651 1.388353798112854 -0.5354342902203166 -0.006504119667104927
P 7.072178848549025 3.970465598370043 1.8097229047438947 0.5486348480709906 1.1460077847776327 -0.32293441371225035
Ni 5.450327251556814 3.0232570811523325 0.8602896602960529 0.09720775410126485 -1.120944928271734 -1.3730673042674286
Ni 1.3248032544919166 0.9120745487876142 7.054167464164231 0.10084457952290374 0.6726077860812417 0.15927546996628697
Ni 6.728236745805767 0.625740885226556 9.238848695359371 0.6744918904778319 0.2421405821926346 -0.23727836900432683
Ni 2.491694497747062 1.3860196050726539 9.095621883187833 0.6279916900337635 0.027032835748076026 0.8041060859342603
Ni 6.634594632328345 1.8823209889153856 2.739777030133191 -1.9724040495686612 -0.12779873951424442 0.07560020313381818
Ni 4.0869366121828 6.758854009034167 10.601096072129012 0.5427632197815621 1.2521593783357468 -0.16553353506085683
Ni 8.26985093791714 7.30616598904817 13.833692897045035 -1.147388210064927 -0.3354016929413256 -0.41083168904586664
Ni 7.905197424399905 3.7658506735889716 8.098943175295206 -0.5915355040892587 0.2626145337762703 0.37791822614729753
Ni 2.9851967966760666 8.507100648169622 12.456189598701776 1.0832353295361021 -0.8785595770581449 1.4306890685459552
Ni -0.10625253629004563 5.347088275518041 10.236378943045557 0.2246272558992196 -0.9718579688026747 -0.5192893050293379
Ni 8.598243578688358 2.4521256155575535 5.883828257219903 0.46341614801080194 -0.2204229880098849 0.7083494624572253
Ni 3.605821172790842 2.4327046919840627 11.275342917805334 -0.27454033867957883 0.364512751374669 0.06017872637242539
Ni 0.9384023052651076 3.26432372537808 12.528068826974971 1.283823799318563 0.4028270735738353 -0.5233580757820729
Ni 3.1498884096843978 8.269923641421391 7.962513231977487 0.6132371574324085 0.8773565578889793 -0.45938542958485407
Ni 5.584556096283282 7.948110667785036 3.4202491133611472 -0.6458904246910554 0.08707555076326938 1.1568778947229172
Ni 3.1134548661157853 8.494086720908395 3.5790644656382575 0.04875068704114185 0.38301003884790813 -0.3275888817651261
Ni 3.5737407515393564 4.466994180663565 9.372285071889484 -0.2617439582458589 -1.2588820417715612 -0.07192481116476
Ni 7.1041047748539725 6.090218056298544 11.615186360496347 -0.023806615501294485 -0.18897788212672614 0.09206349089616403
Ni 0.3816315993478347 0.1570350252167234 0.5569951779866529 0.1966827069701516 -0.06453648912048886 -0.3944897573527335
Ni 4.5546382550401425 0.3365136221962421 1.6276306167864931 -0.1154039653943174 0.2145073938563983 -0.21261917569474997
Ni 5.964495521569637 5.544905422651489 0.35219667685734335 0.4708780036054858 0.4550176395344615 0.09613586119332476
Ni 7.9829174704459955 8.648827041772146 11.363275988611317 -1.6675964273641088 1.5998602003593996 0.9749813449230048
Ni 0.25040268296559187 4.763151905236763 5.901718772028876 -0.022998517777702326 0.9992042220261113 -0.42439682932481104
Ni 7.783128240759694 8.702073270699184 2.709077975462507 0.458785591217326 0.7236593533414182 -0.5000769937669451
P 8.547287510145278 1.6056932431720572 3.5549223582573597 0.5007848184672472 0.3367816040079877 -0.5031967703428495
P 1.8045645911171688 3.2298895281764155 1.2913251083711743 -0.7401653214162414 1.9677261844770177 1.2188525366535008
P 4.782218399227022 1.1074652164666299 8.20758674808136 -0.6284334055568725 -2.346092039684695 0.2736497085445094
P 8.505701105712758 1.5600445304394202 12.434960175460002 -1.1241084136013801 -0.5432825826201417 0.4742098961921962
P 6.234970733265583 7.758708951268833 1.3130689089055376 0.2953081673545495 0.033665767683561366 0.038103748850256955
P 1.9427739527014698 3.399097846386443 6.048189978077688 -0.2069403801424178 -0.8413282035105124 0.11695562615215341
P 6.891665135427708 4.123706409458581 5.907531417193876 0.7732225089815264 -1.2062171072776775 1.0898358655717553
P 2.5168408222804497 8.647463851067409 10.40941328316688 -0.26787423951331285 -0.6718989329396752 -1.9948814047355705
