# total energy = -340862.8504601398 ev
CRYSTAL
PRIMVEC
9.32672038078442 0.00000000000000 0.00000000000000

0.00000000000000 9.32672038078442 0.00000000000000

0.00000000000000 0.00000000000000 13.65059803662137

PRIMCOORD
 96 1
Ni -0.052634413063585496 8.289878087273587 8.779955266214055 -0.08875216713474392 0.2219563939352758 -0.2227768329540421
Ni 4.253236255829412 8.51164884139804 1.9019514271523679 -1.324451085921622 0.6412899498045666 0.17488026638307946
Ni 2.5314397570422527 4.158644659045402 3.2416070151179714 1.1676479887552278 1.8095105232338127 0.49595577250972
Ni 2.2175303335597603 3.6906018566975423 12.980244663851478 -0.6515252543793295 2.9717522533718044 -2.264070249295249
Ni 8.441810360159756 5.240301713416218 12.319446534079527 0.6115320018158436 -0.878467531564971 0.1292557836757451
Ni 0.1424600557994171 4.828834796109949 1.2421139495662525 3.2047849597259 -1.1462139872511679 0.4751118391811753
Ni 8.501240221598104 0.47124746342604795 6.43717174304565 -0.11904567591196272 -0.29187265931043926 0.2667696935952244
Ni 3.22475083360863 8.749163099305909 11.284048146808821 -0.5237046604882143 -0.4990830052847921 -1.8189153614874805
Ni 9.342202606455515 3.0561237314734586 2.781896704642211 -1.67537658553016 0.5719382986836214 0.9270618955339066
Ni 1.180753457035982 1.2627539814813598 5.486667028842133 -1.9048470284542935 3.3309039975448758 -3.8754461636037316
Ni 2.1626705650443245 8.03461508072837 13.368644736633373 -0.08856627637618295 1.3103452426478595 0.22117246458139975
Ni 1.7694373858284456 1.7660890932583944 3.196587869139196 0.9909252698467709 -3.4594907801780552 2.0851646638028605
Ni 7.800281234426039 7.258464074894042 5.383823149980181 -0.6813017143108139 -0.2662924968484898 -1.2630372015905151
Ni 4.610617522401065 5.9299287354835135 6.28095384220422 0.7425909001385984 -0.9302050691485786 3.3051099192999076
Ni 1.3744041496041546 6.00735916700598 12.53567162034283 0.3270062697887788 -0.6189483488845727 0.6561321570237216
Ni 4.254597956986035 2.5251442208729364 13.565308892514592 -0.45896119756324183 0.8047048958605237 0.46598879383398456
Ni 6.442105578058344 2.55363735123925 2.074836177082047 -0.6843369015927118 0.006984915958265389 -0.326088900180832
Ni 8.076790509702667 6.371800760807519 7.732421883224984 0.3812735157727757 0.9973394009032307 0.04448239868309114
Ni 6.207706444714256 1.462280507807561 13.28564905113723 2.3716022681406574 -1.2139550993518835 0.21472619473542373
Ni 8.568858943416688 4.988732088090334 4.316782931586479 -0.3013489742319907 -1.2007774243193448 0.28681581361282216
Ni 1.532305523450861 4.282596771179054 5.187049871472027 -0.4110435479463566 -0.8807385869873348 1.8629457602348174
Ni 7.031740832316394 0.2217222551791483 11.21684632938545 -0.5547072795173157 0.7242337377876494 -0.059292210002414025
Ni 4.727453346983327 0.8023991946362666 4.0484261424811105 -0.417222680173875 1.9079102407606496 0.237854553222771
Ni 0.595390773324842 8.125597236775308 4.964189756422277 1.8568846416424023 1.5859489895949461 -1.3374855505080774
P 1.4903446090423358 6.1288117181124075 3.993987009048988 -0.984703457306775 1.0012960715581336 0.08548789456117536
P 2.767536353471994 0.6185611444440018 1.057100732622382 -0.5264750241444998 -0.4137964281011454 0.3572149321616751
P 9.19265797395356 1.1927849261595644 8.577448852767711 0.17124986871934378 -1.203986675285262 -1.9949647084779967
P 0.8767247609872286 6.240648420640219 8.319711467339946 -0.4081081194671165 0.23194435838592312 0.7356347805357396
P 2.6433324198915695 -0.06411560569236846 4.513133709667271 -0.14370255522869446 -0.2856876135456499 0.0707097078107363
P 5.330798880010111 2.638622426164896 6.130538094030837 1.9936087086707344 -0.18921468072788059 0.09965364453859613
P 6.695727081839412 9.332969153407184 5.3740627372376775 -0.27937195574026724 0.29285610626963116 -1.7515434598007253
P 4.5389043703923635 1.18162084201931 11.52210148914719 1.2904351339874938 1.3047610636918627 -0.8922231905881665
Ni 4.550833245593187 4.769115806343826 1.9070839213064046 0.9332387137685799 -0.17240917913476758 -0.6960634460010205
Ni 8.671126430967139 6.912302852784148 3.123939247089335 1.095341625881333 -1.1835726304052843 -1.962976328496858
Ni 4.366276105269582 -0.009438640893849192 13.206952983676725 -0.2388050900614984 -0.38160158853615567 2.608750025104391
Ni 3.7639098778691373 6.114056846675579 4.317560780055399 -0.9575749765210992 -0.7979277250376904 -1.034110289874677
Ni 6.0958697421864425 7.180697881442545 2.7989729967494728 0.05885126581025349 -0.7217605936568086 -0.4398422173456038
Ni 8.600308644102517 2.264163934813956 10.226932491434038 -0.8798387008808847 0.46373085103774325 0.5811544179652507
Ni 4.293798162200312 6.696463892739229 0.2782515066194842 -0.726817953575058 -0.4203648253472825 0.32515456129202064
Ni 0.4408852583214663 6.254190818444438 6.105298123688017 0.35794563968011256 -1.4925266706780425 0.9644760745163067
Ni 6.778455090464355 4.750835434652181 6.44572994154782 -0.044635636431503777 -0.2264882203673583 -0.9066329382555934
Ni 2.6031062754497007 7.1689182337657344 6.420285716031506 0.22272489667018414 1.2180562660044507 -0.24815824914162424
Ni 5.413237760307276 7.586260984830033 12.11415516196628 0.6689689037770737 0.416604844084218 -1.8646133777452274
Ni 8.212643516876389 3.040650702577316 0.6102435753243034 0.6503877983407766 -1.2225670093906107 -1.3614045232175198
Ni 3.7166793665188886 6.417483036596129 9.219573023253432 -0.08570463855767176 0.5812084111316377 -0.28102028997696765
Ni 1.1628461541543709 7.128971890931392 10.468643773454785 2.018427310376311 0.29154407232642693 -0.5107100480007591
Ni 8.880063618026437 1.2011696476650688 12.776099545657061 0.5838499625195429 1.153214329828401 -1.5037389944540942
Ni 2.1091351908045084 1.6099784496998493 12.889535780707892 -0.048998541385889806 -3.6063593918395567 -0.7959006673053325
Ni 1.7055400253899469 3.1218771092418742 10.394752832267512 -1.1058211852564181 1.2900903490535651 1.1894851392349772
Ni 8.296397464728924 8.890239069820101 0.48822862298675074 0.07134657006378681 -1.6959729216242727 1.0218502415604014
Ni 3.0167463185744157 6.549344207502492 2.3333784584674584 -1.52316959237488 0.7490363986536261 -1.3856076028262847
Ni 6.129865637500751 7.790665385847423 6.739600906571384 -0.394202822239934 0.08830068141962212 2.696364479090266
Ni 6.1624625247774345 5.903636711096398 8.675623775472092 -1.0107227641886722 0.21188101197714476 -1.1767576643659798
Ni 5.077205356389794 4.911189735924858 12.472783411035472 -1.1836932151435486 -0.1379265719768657 1.4872965326273548
Ni 1.169440145371714 8.325953841203834 1.9982563424464572 -0.24129546058351992 1.010064818889699 0.17939640908587814
Ni 2.6075457942891 5.2421297505853826 7.586346790656341 -0.37923925895156624 -2.030899731811709 -0.05286702320236057
P 6.220558665219912 8.49051449330964 0.7942858806900617 -1.5987605395373174 -0.841919300127292 -1.7867806857364648
P 6.246207145909719 3.6926444084324763 0.10559712668000054 -0.47814214136706684 0.46634412029087424 0.8875561241298005
P 3.3469401956148728 8.605820735770763 8.1808310067728 0.32437088904846073 -0.11671214268277964 -0.06394205006959955
P 9.185233904633892 1.1514582287280963 1.744177829373098 -0.38621620449003163 -0.26572505438079397 0.4873081241370511
P 4.409626700995482 2.7362172268696767 2.632709285525864 -1.2818983001610762 -0.6393230558861828 0.7763625972724049
P 3.7070075576187684 6.4356421609245125 11.31832477640268 -0.6309047499155005 -0.6280991621459053 1.0630699103318209
P 2.374937391233172 5.126226598028205 0.8423800463355386 0.6048322211981648 0.6789321856373727 0.08226964473419379
P 9.009070812536043 3.1684640768948156 5.494856821894395 -0.9239716866443571 -1.1863337380901893 0.1365392047110358
Ni 2.056215380101247 1.0959455897951018 9.411855485960807 -0.3921078873841183 -3.359179447450802 0.2462720878625049
Ni 7.253679467405361 2.232844808211638 4.234579084639634 0.3547890963290019 -0.4540627318203599 1.572598536429969
Ni 0.03590787296573062 5.0713854829532705 10.033189464335381 -0.8697797739829859 -0.9108109808926829 -0.19579259105571442
Ni 6.907676799539731 3.2631302874408328 11.721304378280687 1.0269392260475345 0.8896065789009261 0.8323740796410181
Ni 8.235055625639156 9.023517902204592 3.4462436514696075 0.10321410819634481 2.238599101607338 0.6585597926286076
Ni 5.1923623713269045 8.32603778168609 9.410135638746553 -1.458912582168023 0.825415646045314 -0.1037049317898343
Ni 1.6055948911819549 9.238582744468692 6.939404436489036 0.6084168532256297 -2.0532498173721345 3.9215534994847556
Ni 6.191692466043564 0.21148338168777708 2.5786385575436492 1.9606157986844814 1.1758750046507103 -0.3909040968840042
Ni 7.241536077638769 2.3775861797844104 7.339626127188868 -0.28643811855842927 0.6479521923160906 0.3862951373570831
Ni 6.932094153156428 6.465720833733468 13.458683961262949 -1.7804429164438953 0.779829729885399 0.7970669196992918
Ni 4.804221581367984 1.3590150611902703 8.178782859005716 -0.774427327922905 -0.6466758967068282 -0.637503743289257
Ni 7.244464667797532 4.9484872902079635 1.907275119071547 -0.6807322149605889 0.30429854377861787 0.20794799547132575
Ni 9.069890355291765 4.176020338872715 7.450892034437329 -0.10901528825915417 0.3077371371465216 0.48315450697999374
Ni 5.277021011043772 4.033666607684157 4.3149679518256665 0.054494274393138406 -0.6009488269833585 0.08181661635717521
Ni 4.817885226535464 3.970916433836512 8.120549615775554 0.4495224207478452 -0.4191085843426782 -0.33734313293841256
Ni 6.352000133714988 5.656534584770666 10.857002808667577 1.4282074397746825 0.10953670798026297 0.2822425924198429
Ni 1.3989614040246139 2.3975173809604535 7.5019866059875016 0.3167786785234996 0.724034734402966 -0.13620881795481057
Ni 6.01268472426921 2.1483074158580324 9.98313295674913 -0.8583100827804896 -0.4759785580568448 -0.32851422179287293
Ni 4.445012277627166 8.184691336284624 5.244491276152895 -0.3882797718872797 0.2838737002653627 -0.4313501207141926
Ni 3.913016154519303 4.069052184315841 10.526576696292873 0.34759952055909815 0.41942123048709057 -0.02188265900570425
Ni 2.250845378295758 2.9442870289456464 1.5491383881595753 0.8823169872180482 -0.7532784617594317 -4.235889887115349
Ni 7.084809870543668 0.2684369988995262 8.65170819940489 0.646795195893512 -0.36049565979547593 0.2195912361372089
Ni 3.49906832962631 1.4723813458392196 6.026889319211237 -0.25692802491445427 -0.41971742157127073 0.4882789726907526
Ni 8.603871451238337 7.671404613999943 11.66155554300976 -0.15192237203532546 0.38363198870262316 0.8672631782087192
P 7.152941561976048 3.9237418828077675 9.359956018452987 0.14565582230032334 0.810431771041972 -0.4290957774623771
P 1.1134518437059269 9.330544206141965 11.58834731774485 -0.6620228114765436 -0.8832292146196724 -0.2441141609792376
P 8.789240016223765 6.581027076194593 0.7141273834942248 0.191868830521276 2.8399868159003283 -0.08783788285059066
P 7.006045718025331 7.649384227487713 10.143130977308223 1.4918466138918824 -0.4068495644696671 -0.207842580241713
P 0.10481181683487988 3.3299375845975936 11.930240632667958 0.3429856759361706 0.18438794876319856 0.793054456105789
P 3.1280327446074283 2.8156435765258223 8.840878335564561 1.1220178496209385 0.7644007969248384 -0.08178704867082044
P 3.4108562094938732 3.7013275849860072 6.192266059338991 -0.7790913090574776 1.0972049043423169 -0.43395799065068486
P 5.92932249866721 6.118701553360497 4.608141278174468 1.6224853939580832 -0.13010553327055013 0.6574657882334807
