# total energy = -340872.0934157966 ev
CRYSTAL
PRIMVEC
9.23089076694939 0.00000000000000 0.00000000000000
0.00000000000000 9.23089076694939 0.00000000000000
0.00000000000000 0.00000000000000 13.51034171016793
PRIMCOORD
 96 1
Ni 7.296778930634056 5.983250906318981 3.7680476525844435 -2.2348545469632413 0.47359463120570044 1.9690572445836152
Ni 1.5551096593765996 8.869242664135284 2.7057696980320305 -1.4585292306866753 1.1484791291362606 1.6826075560609604
Ni 7.67024229815227 2.396883794216518 10.910276552981037 1.3463879952040296 -0.20554812778058149 -1.1393095468218508
Ni 8.588069739754326 3.025636669176616 13.245186917702599 -1.572964147299504 -0.9624143068912716 0.33767711923906363
Ni 4.541145808343291 7.251584490786086 7.8551822660669135 -3.6982660454428826 1.9918487885568341 -2.3802262623642423
Ni 8.957342282989252 5.097306960475685 7.041846658654206 0.7075061406203235 1.3719750996445146 1.1094364134115022
Ni 8.86689801795036 2.4292472962808533 5.642594123608709 0.9466411032174149 -0.08976878132471637 -0.8869462584599435
Ni 1.8348056412788656 1.1083899449152705 4.5408531891147 -0.061551952570868186 2.8915256072095685 0.1573412290580516
Ni 2.1759701229661874 5.384119958947147 7.9917855990101705 0.8537191209756975 0.43967329586790727 0.4677222315853235
Ni 1.741952113821608 9.239290602171522 11.927726534038005 2.022347471366323 -0.7103716350935766 -0.40403703472153635
Ni 2.3369383913626134 4.433310545617803 3.2027211492827177 -1.3819502085793556 0.08883212844305992 1.8595603887023524
Ni 8.884427478994334 7.340561044236776 8.507569913042277 -1.7849842559576743 0.15404507480528307 0.032408755348008696
Ni 8.13134373999986 3.0795173769773925 7.7204435730030045 -0.024795718887441167 0.6996843305830595 2.9545903968805374
Ni 0.12658689367057874 0.27621132074160254 7.2842083039622905 -0.014376837546962336 0.38021910636633227 -0.4009216290210063
Ni 2.894281097477961 -0.1861427529457286 6.821222837365318 0.5857191545177977 1.3261611266341935 -0.3672826008103223
Ni 4.1555068962663615 9.592556781293625 2.918922959645885 -1.3137822933538663 -0.16990698153820416 -0.10655242854095842
Ni 5.870061727108236 8.926243412922297 6.128399274590519 -0.7603361399371615 -1.3951826481092295 -0.9020959696171883
Ni 4.526302536432437 7.295791225351431 1.0799514174880593 -0.031874223000777364 0.8499362568944975 0.7873183249529602
Ni 6.546085992276963 5.925225528687376 0.8198950781961979 1.5980383166593124 -0.8232361218954918 2.1661904088276245
Ni 5.220539348541535 1.7848111383751468 0.9337590355018958 0.5368874777270753 -2.066806987231279 1.171953300998801
Ni 6.353114226545384 6.207524621708336 7.91353349413288 2.854607651137297 -2.089021318544789 0.5283778975941674
Ni 3.9026451130238273 2.825870968043054 3.4754542704870013 1.5487793225231843 -1.0523538094658973 0.16138711699265107
Ni 6.130326684525212 1.529586247166706 3.433842339238908 -0.10176246335148281 -0.8232811162008143 0.8702664838114174
Ni 3.2062390416491517 2.112600059739816 8.203343762747037 0.9500154190062865 -1.3479399130721816 0.8107881259401263
P 4.874057873930922 0.3419611075367663 7.87107047478144 -1.5709841407549976 0.7255758536378407 0.35309808177982416
P 2.9083489745875006 8.580675796470375 4.645206559946671 1.123330140674459 -0.3765516848170741 -0.5326101905079601
P 2.2509618773217652 1.9740259316765547 2.344071100445646 -0.7551304273665059 -1.4227572152933885 0.27079604114579814
P 8.994385846532941 5.092793055025182 13.442451970601926 0.4054845658013404 0.6162810864650548 0.5851342285486052
P 1.9564503161801217 2.5206792666023694 6.4951370152963905 -0.9993921696672016 -0.22928403794494062 -0.2996422759535291
P 4.158553090128663 5.073740497050058 2.221830110018618 -0.8739932978437012 0.849641351361898 0.042691882441571634
P 7.690919492853955 0.47932137350035275 5.254428716804167 0.22202247128652086 0.07681427804657738 -0.44278433069306317
P 0.6812904881943135 6.9400511675775185 6.334391211360817 0.7376209577278329 0.10894021204684463 1.1372315812468994
Ni 3.4218357199761926 8.894461456958947 9.814952010467895 -1.1054797427565994 0.02209786034030388 -0.6511917822993107
Ni 7.134961420312381 3.5831824548827833 3.478440463561106 0.8864510639910799 0.14344981578794003 0.8907987994368142
Ni 4.010581915544725 5.48788439896574 13.157586690024237 0.3359261979862279 -0.6161121649873582 4.519051906025669
Ni 5.712730429565587 3.616589047572694 8.151126461412888 -0.11295730362603772 2.1257690675877843 -0.3136573592856985
Ni 2.686724524769299 3.6283030476068188 10.03765647447364 0.4733691454584558 0.4297539798716663 0.624501417492318
Ni 6.857748547952417 8.77362910042097 8.45066424242733 0.12841091917694658 -1.0480929773070145 0.24374906433033502
Ni 7.562683962141537 0.05396193963710452 12.161604067895054 -1.055492355094879 1.5724172736570983 0.6599219630834571
Ni 4.472929527608712 5.013684323510251 4.492229473449017 0.5348637624288273 0.8736749952723339 0.4974475265638981
Ni 0.9972407925032183 3.4368174552444226 8.43142614355332 0.49560584536946906 -0.6339558780369985 -0.06486096233944315
Ni 0.9464801256886782 6.3748345118726455 4.184963590914821 -0.679296510955327 -0.37647172350875807 -0.3674785188712123
Ni 7.775889839831195 7.343496467413177 6.265785387047483 -0.13973097217545613 0.4301535293029302 -0.9833209751369516
Ni 0.23808405065417282 0.06616056142204989 0.3541772680136461 0.21677690661686536 1.557990556708807 0.26989666925998035
Ni 0.357541927597916 5.663529783244166 9.860847074904195 0.8619430515473864 -0.3044584663952498 -0.251318906257793
Ni 8.66030145785285 7.263529263082506 0.29207829840799876 -0.7360266166575195 -1.516045579735589 1.1915839307455351
Ni 8.399916498859477 7.8105333718470105 3.097515767258351 0.5450975243416936 0.80518929169611 -1.7665656442411704
Ni 8.633901111046232 5.245148902592737 2.2401358889529543 1.6202912145202417 0.3624854365319951 -1.9541803274717828
Ni 5.263066061037367 0.18857416950127504 11.070103883312674 1.2939575453184553 0.8459708444888463 1.2914280940283822
Ni 3.8686569742329313 7.90714387173444 12.357003557825985 -0.8616612586409096 -0.28575651911037236 -0.8248016666103989
Ni 1.6601941167355236 6.4504262741101925 12.675631743466568 -0.4654280362345081 -0.4350247413523024 1.0442761746640854
Ni 5.682711573686177 3.784305096918644 1.7016001991256489 0.8866909479160279 0.8139176727080435 -0.22869037022499972
Ni 1.6910252909782155 4.5340564844455695 5.60569733122384 -0.6344762693168428 -0.3532194378490368 -0.09199715643460286
Ni 3.872893952968678 1.7547276662622928 5.742529590251293 1.2866795235998034 -0.70183274438463 -0.4892485356928735
Ni 2.8529728625270487 6.7857568330066815 5.892697716772287 0.4681672895425421 -0.6871196065441715 -0.1929337814506806
Ni 5.156080040237127 4.009095742175541 10.761121978236048 1.4205977457482244 -0.5295549486214041 -0.006187616867950634
P 7.535905148824755 2.1439204711785744 1.6602181170508021 -0.7648422553376312 0.8776985146094304 -0.3377336835086119
P 1.6358153349466165 7.398669499882809 1.2876824540270166 -0.44612033704483167 -0.634259011099714 -1.3109967601889294
P 5.492001376125094 3.240587185169229 5.521392531451061 0.16414796756723987 -0.4835836240976123 -0.45227838622642746
P 7.103447160173295 7.816847300943417 10.501561337763599 2.0653797678664496 0.43722920520278896 0.04196914534293417
P 6.38928085549235 7.405952672480858 2.324265301806389 0.8382009707354402 0.5771458110264899 -0.18119335308530088
P 8.358303644522335 0.9948684536468194 9.07847648964631 -0.08388635440201037 1.3983440765563466 -0.25606310581099767
P 4.4134733619508735 5.347177935198867 9.175805152814004 -0.6625725133324266 -0.4017325549580759 -1.823227358599273
P 5.929656356123451 4.911913755837891 12.670794756848853 0.6107573284333482 -2.56433601776539 -1.8682787424119567
Ni 0.29269492189285257 3.0328829182126977 2.3103497343899644 0.6371283622277092 0.4165367098504439 -0.46940270461154
Ni 3.0433599789209183 7.051735711638097 3.0553905984989123 0.6615433007369639 -1.3826793734358962 0.05596211718791652
Ni 3.48427346326289 1.916794410627246 12.321890173484135 0.45960808711862133 -0.5675445404912999 0.42999206402440143
Ni 3.73995066810543 3.950091890151802 6.683079791888025 0.07825075338278781 1.0596598562090074 0.31458424197534207
Ni 7.843819962960528 5.288552549685293 11.50887857032769 -0.6041938162832176 -0.04511874671550939 -0.19207117634006923
Ni 1.3203404214980405 0.97680360095432 9.477477115710156 -0.5824440833109518 0.2501320850385434 0.4172604753903459
Ni 0.5524097182365165 3.7950590843416188 11.191412553800028 0.5558707036977976 -1.0688934589921335 0.9022733757353171
Ni 6.785341442934548 1.7192164305402458 6.849864444383349 -1.6591457254935942 -1.0038154955458776 -1.0893386142203627
Ni 2.7143802726828037 0.05509733916759887 0.7868623365712057 1.630610851278695 0.3308868357901076 -1.1871156105615364
Ni 1.5186568728243866 2.189511839317693 0.13700672285774962 -0.7922733549653903 -0.37176223384823076 -0.4207504908214753
Ni 6.319301474673833 7.080720707782423 12.408735314320266 -0.7194990513161416 1.3352098671000232 -0.9428181299268988
Ni 1.942539364208943 5.175307985131597 1.199655759207934 -0.5532047268298602 0.507128501297088 -1.6063992870294979
Ni 9.144240122777212 7.805391765843065 11.575336366423578 -0.7202516132114499 -1.4802103152045345 -1.5173383304050836
Ni 5.32133144182176 7.850521589457592 4.038133354395671 -0.7676794676761102 -0.4262058575090918 0.7125033367245986
Ni 6.103049403121873 2.5471349987519374 12.511764975455709 -0.44865004544522086 0.7454553661705872 -0.02987133363813566
Ni 3.542335764456462 5.667591375060569 11.1868737249452 -1.8734674857017477 1.3780429031051493 -3.8839847972023622
Ni 1.8190577420998137 7.770545154236429 8.243078130869094 0.3448165584973223 -0.8928669948197526 1.1604054482602015
Ni 7.0134275160970265 0.05702659528039008 1.2427594023595059 0.20861108297662137 -0.6068477089662968 -0.24503410169034576
Ni 8.580112712150374 1.0907866367473622 3.24811589945436 0.2891681158950826 -0.9634833715857342 0.7471152703715133
Ni 0.34435836979749296 8.676695519366328 4.928842285910848 -0.4052727069008505 -0.7930277166329117 0.7804347104592494
Ni 7.096625532099837 4.742194603255217 5.802515609023363 -1.0712550172457742 -0.8341923637966795 -0.16796297043795588
Ni 5.2030283492785445 7.278261764307456 9.945813729525238 -0.4343577971922648 -0.42807787772082406 1.7244602304306882
Ni 3.426949633308663 3.045981551820596 0.9239604452448246 0.27141233457355834 2.6332809203662197 0.5718161712834603
Ni 6.039513183866648 1.6701450166857097 9.233413294195378 -0.2666251975975602 -0.42920993444273825 0.8372113531286614
P 2.3854282591161646 4.111494010401344 12.542865691700761 -0.2787245519642555 -0.38093515859675037 -0.1795146798312973
P 5.648492662632985 6.558907699170107 5.83296831675589 -0.13146950349761227 -0.10074096406550394 -0.2852926921000764
P 4.187916552783155 2.0750949516715353 10.386993986602421 0.13111391993040644 -0.8673238562433256 -1.3248040983856668
P 1.8429195940211787 7.239252021089008 10.745665775196537 1.1854166255925584 0.9657533985668336 -2.288123690700027
P 7.569016353018927 4.757259416537873 9.122330604194868 0.9496912028976483 -0.3492884782257469 -0.04072807384698147
P 0.23034948751107354 1.3438238069092405 11.877670184167991 -1.4290173372704873 1.1765797440272188 -0.1567529606547494
P -0.09918130288940258 4.153817643306357 4.231979285456827 0.40788340505082005 1.1020817728186438 -0.05281123026376066
P 5.141449078807587 0.0007560099312803825 13.46405502361994 -0.25851722377844505 -1.039058635018888 -1.0255495447888596
