# total energy = -340874.90941401967 ev
CRYSTAL
PRIMVEC
9.22114552429283 0.00000000000000 0.00000000000000

0.00000000000000 9.22114552429283 0.00000000000000

0.00000000000000 0.00000000000000 13.49607856247471

PRIMCOORD
 96 1
Ni 1.6583400626705123 7.65245360929414 12.879362301528477 -0.2635722697038493 -0.9627850599671289 -0.12284088128833683
Ni -0.14718884967472926 7.3454540057193745 9.961887704010124 0.2374776294993265 0.10682213726257732 0.8944927033486336
Ni 6.721173221121555 2.1610308201534165 9.743993875501097 0.8582805150941348 1.362862081599653 1.3435903778542346
Ni 3.383385893288036 5.5042032970719585 2.234302965948792 0.9107703574627347 -0.3910786747886555 0.08902033319446605
Ni 6.314410042288467 5.595999802451072 8.040977361945423 -0.45054160604097887 1.047136526931016 -0.9114362731815077
Ni 8.62431625966396 4.94628709803049 6.49130389070034 -0.6571240886233457 -0.22594160383526896 -2.4841258266633863
Ni 4.148593447520107 6.983173633711884 7.428200878714855 0.3516536360238137 0.8992991235983415 0.9688986290640347
Ni 1.9275145266104088 1.600523479172066 9.728513416110797 -0.2993658823636908 -0.47615879238845094 -0.07432262197297523
Ni 2.585673800486265 0.3354735793618232 12.359317347850347 0.9677161787201591 2.17625550637311 -0.1853264014170679
Ni 0.8090328933697207 8.862166491682927 8.472770418649036 -1.0640970660447544 1.1970220710419708 0.02641345699652225
Ni 7.6532097432410096 3.911158167057348 8.380025979492629 0.82829091071058 -0.33000546162641875 1.9460201602584937
Ni 7.072738621833161 6.806570251389357 3.3245568279924393 -1.071893936381354 1.0343391180560315 -0.8548064405026052
Ni 8.629996485411175 0.612115327084342 10.610266108648851 0.3315707492310096 -1.5256622768897465 0.06201346558831901
Ni 7.918188585890349 8.798153298278427 13.155451702623953 0.38767684819595816 -0.9490162883178106 -0.8227267863592412
Ni 5.1687472378869534 6.707544367786515 5.221861959196268 0.2015528905782593 -0.08496056130279561 -0.5847074254238318
Ni 1.4311310327818807 0.4683963945340889 1.1229843186828399 0.061369918467049145 -0.25440602982354893 -1.2131416023116526
Ni 5.717423848943502 0.9549971748963489 6.1801510831052076 0.26542320686965903 0.17144887210402732 0.6522456774851219
Ni 6.848701666063105 2.725761445862405 4.727028539958822 -0.3119023242678048 0.08496596061943432 -1.8434004911130382
Ni 6.365402977973699 5.6207216940554305 12.956343192121793 -0.11832473858553814 -0.5716153681265639 -0.9276301093325507
Ni 8.117144025374 2.222674179114679 2.62752489233093 -1.2838762498230534 -0.11244796808978696 -1.254159182374595
Ni 3.9831753149238334 7.832450373231887 11.506594666184672 0.5867159712134282 -0.5409683326646684 -0.17194175258004582
Ni 2.7344846496884863 6.714902842049955 4.270496993588601 -0.2984174024074925 0.8853604020300623 0.37198823381610774
Ni 3.391970779928714 3.0494328808510764 3.281935770482365 0.9201736530545055 1.439719811289656 0.8846587479773474
Ni 7.479584790977493 5.685574011718042 10.186219736442373 -0.779040144104568 -1.1145979030077837 -0.30165622105976436
P 3.9383974314360417 6.2114375083287925 9.658765592199488 0.012446196183152758 0.12708782949014885 -0.09002383475831593
P 0.9313172727553584 4.346423907229145 11.860448755257412 -0.03671766713600773 -0.6220730105564836 -0.5761219977476659
P 8.699394827900697 1.3736648528197881 0.6876614074077427 0.6914339176488092 -0.009627238677118904 0.8223017830066807
P 6.436341251794042 4.361740230226102 6.063666804360802 1.417249655211598 0.1344470980686975 0.042810410297306915
P 4.553512397214489 0.9783174523552916 12.896542218070097 0.9501863973665119 0.3543450668130478 -0.22443442316212314
P 1.523914200750201 8.666235587986757 10.710811637061987 -0.6237223732344485 -0.11495582211330524 -0.16531216307867014
P 2.2862816421086634 3.3271092411204095 1.3731991849622651 0.7850043321078028 1.156917232601285 -1.3092653793201192
P 7.242638231236491 7.660024169908531 11.265351974665053 0.10751273557169871 0.38108711079358243 -0.18911620747680333
Ni 9.023684079650835 2.885342593234672 10.406731448213794 0.5898871698525583 1.5489994089537904 0.25452430056896813
Ni 6.487407956644823 7.50106083929773 1.022388996082959 -0.8134407330716249 -1.6588834729711432 0.010726385278568625
Ni 5.998475148536668 3.062084292742602 0.3229097683543856 -0.8878350888228 -0.7253107729019121 0.2730059043129234
Ni 1.233162255887439 1.1904222455979176 6.841958242217425 -0.9423967261187641 -1.722750703938749 0.4852682108888869
Ni 5.59928253031797 4.616585033758249 3.853602541982028 -2.079103030989813 -0.04017965754267919 1.9867245799563913
Ni 8.612310327970981 6.148291102619485 12.189064568566955 1.4016569429796633 -0.21106802915754616 1.331626263513823
Ni 7.7903558431409134 4.597829223417605 3.148905067905485 1.1465788267897545 -1.077120989108248 1.704512840774484
Ni 9.25922902524642 1.4911053643726135 4.701291400213605 -0.6675992771230567 -0.02442496581158374 0.2617874098892846
Ni 1.856419493313276 5.244747920693046 6.6273840261580705 1.0182977483224527 0.09860540577973985 -0.5116500433165253
Ni 5.3924337901206565 2.830495218649543 7.912400472738518 -0.5494213485280279 -0.5101328353410505 -0.8637477088562932
Ni 1.142527614865712 2.4010941271388324 2.908081016400353 0.685754864986161 0.11432435917689343 -0.2592702998943857
Ni 7.9253626372399175 7.280444928579973 7.817967641805626 -0.0019928620603126964 1.0093148280975521 -0.020977630692931612
Ni 1.8164458267318142 6.1151410838512374 10.909623226672815 0.2674548925877071 0.6426778312910287 0.7817711698824859
Ni 4.57609498301795 4.806512971607931 6.8314313822936885 -2.6472427818629507 -0.45628339362076265 -0.5494781699078923
Ni 4.001820471516155 2.7468963117919807 5.659067828421985 0.6563177906719664 -0.2841737480042848 0.23292857667606337
Ni 3.838864384820056 8.831229547881126 5.248597749020095 -0.31135390796350254 -0.6133960516077759 0.5285421910861736
Ni 4.341545921157266 2.435212366204901 10.886774149758812 0.504715263869905 -1.0176094640061766 -0.06477842992796586
Ni 5.670912390065327 4.940883506654081 1.6669950300184617 0.5966962223545916 0.9605250602883587 -0.6052178866723578
Ni 8.108310167799594 0.1585990953559059 6.262288438370345 -0.14252216176734808 -1.4116299950319753 0.6501553706149964
Ni 5.897051767053509 0.4930057881609874 1.2012561696732487 1.000982911193089 1.332224302109138 0.3752949295918375
Ni 5.028161650643363 1.2820343280631594 3.973731017504518 -1.4751976924812917 -0.1468578130282245 -1.641594089763076
Ni 2.4630878896364488 3.9492138353345547 10.025697110094796 -0.0572551249677272 -0.23358446509250738 -0.5926202525130052
Ni 1.0865183759231978 5.017151602685286 2.322944917386147 -0.6703902096046326 -1.831329418881117 -0.8475561866980951
Ni 3.344362004713008 3.1311414528414647 12.890267228425648 -0.7541271829129722 -1.3235820530531075 0.8312073130264266
P 5.78550356759885 2.737370868290562 2.4850462038764567 -0.2430528095942588 0.3349440365786167 0.47068079999301526
P 5.0069530155482385 0.9389800448266836 9.188008584367855 -0.3179639570808524 -0.20773587946051966 0.1651692097429026
P 0.3560330458001224 4.227148387683307 4.45660737712116 0.02337698416304361 0.35776823356198384 -0.5092794862018197
P 4.373386537237033 6.6137099892091324 -0.30112020108056925 0.1918230648850051 -1.642275946321449 0.9958075376397366
P 7.922338101452439 5.311647332699621 1.2777732366381782 -0.5928369965095016 1.706144977061268 -2.3896969208588392
P 2.476818175574118 8.306832213435648 6.990307112020401 -0.13903008945368958 1.043351863077603 -0.3087061859280103
P 2.0075079655018 7.181511256434066 2.0300260032854056 0.2664537050167024 0.6943901720636557 0.2897844093228429
P 3.416637344658913 4.836656896880088 4.8653226724975704 0.7488787900298393 -0.15958091702184773 -0.3263897192507024
Ni 0.6506080776674225 7.419555132512599 6.083803020211768 1.2968248395639215 0.5296562500859587 0.5871039506804663
Ni 1.8863236687974008 6.896328883570199 8.588080845546655 0.8150217044054996 -2.6460420766866304 -0.20805032537714488
Ni 7.715775216771625 6.935131464648582 5.466451926602639 -1.4156596850166587 0.24883959147936502 0.4160911376725931
Ni 5.8313972097155595 7.532781580483481 9.377776996397039 -0.6186994660985603 0.28499547257463176 0.7731829139928426
Ni -0.010876341345521151 3.779932042692692 0.34984381281062366 -0.03286795437261436 -0.47214710012589656 -0.1155759721958074
Ni 0.4207359809024987 6.504651499091728 3.8123314602014866 -1.2647297588015896 1.2489321296477007 0.7381583182885416
Ni 1.3843060549501245 9.031383736304935 3.2821386356876223 0.23562566389225226 -1.2196279813669448 0.5116312742634479
Ni 3.975521763998202 4.957841193584487 11.59835428698101 0.7862795992758007 1.3095430584615382 0.31401371418385277
Ni 3.842617391117323 1.656966111962176 1.39835539252879 -0.5174941608021282 0.07465043762603918 0.0191284932993348
Ni 0.8759221621160334 1.8403470363694496 12.437378956718943 -0.6817837961535549 1.0238657293285334 -0.23909433916714307
Ni 3.4672337710793237 1.1982694405831138 7.55783082275996 0.5226034570042354 -0.11302080987412148 0.21052089840482452
Ni 1.6404418188793666 2.904504133985832 5.625921498112014 0.8442134954781073 2.113977474269495 -2.1304147938899116
Ni 7.647428084891165 2.350636017903824 6.710169627965464 1.2357076605376267 0.01725210221222835 1.5493300528203318
Ni 7.076445522401961 0.21587255337300335 8.534474637171876 -0.24846112509402368 -0.3142034615971557 -0.648346856651348
Ni 7.131486541046654 0.49004856673707164 3.924147072881257 -1.288730235481245 -0.7497583644213152 -0.009938085049318368
Ni 3.3210048426712913 8.639964543905883 9.37227105030343 0.5396151610708835 0.42680903831072947 -0.5172051688067997
Ni 8.273488550607835 8.674543840256629 2.0922696588313165 0.631449309565061 1.0833474296339343 0.29382104128606173
Ni 3.8892671671809027 8.395797827086847 0.8323937438697151 -0.45672793735734896 -0.7580871960019848 0.30141839401734544
Ni 7.493730028471371 1.812176436275709 12.548815580310709 0.12420382307413448 1.0783420059995428 -1.6683924409028428
Ni 6.081898853626054 0.3976231792216604 11.21578093964576 -0.9887244055407102 -1.260735292930216 0.445431024287291
Ni 0.14123475590041557 6.956791935882689 0.9680386412507114 -0.6395860797395824 -0.35649399483525057 0.19988064508215897
Ni 5.442596822693472 4.287510007393168 9.790433409442866 -0.2609201767929829 0.7208193127894619 0.6214528604739813
Ni 0.7795510463583598 3.3776226772295783 7.788640710041916 -0.5663584906029987 -0.10758395512926633 1.5726319607710657
Ni 2.3751089385744586 5.286326066625182 13.459990182413115 -0.38499544470905306 0.15770581148632193 -0.06624138762673752
P 6.103347238509209 8.174564099607624 6.802185596612082 -0.08026032761364887 -1.2027520315472124 -0.0647869145683981
P 2.932628628351105 3.4156230186326244 7.752134194241222 0.8034357993401131 -0.2800975210523821 0.4244693344339593
P 5.253729316598546 8.218143234155256 3.162347654097516 0.440278533552074 0.3032202231127746 -0.13479651098831624
P 8.779498920540412 8.575766927587512 4.32738316348657 0.7958898686720551 -1.6986023888273198 0.44927070974835526
P 0.01450394006135669 5.709014164071001 8.319671736699322 0.8280338003944514 -0.7529938406394774 1.7508034963109074
P 8.839528579005306 1.5479813910103197 8.546418787188708 0.23615993912916747 0.8135618320305215 0.02137358057976964
P 2.6532279138370813 1.1764890944549908 4.304628142258641 0.2744143546246758 1.3525463014959416 0.4390513460131922
P 6.340819403554742 3.67858243037508 11.803859506250774 -0.38378111268597775 0.3259058376357484 -1.7724349585377541
