# total energy = -340886.6823437375 ev
CRYSTAL
PRIMVEC
9.20731944167623 0.00000000000000 0.00000000000000
0.00000000000000 9.20731944167623 0.00000000000000
0.00000000000000 0.00000000000000 13.47584269300600
PRIMCOORD
 96 1
Ni 5.196040188148585 2.967123112234509 9.656735054099224 -0.16192216356051467 -0.19991458364388795 -0.02659883353445097
Ni 4.708982201777168 0.6037745701298468 6.372133442576045 -0.4742510338427767 -0.7515496519937831 -1.8424193581466914
Ni 3.2661676374496778 3.1417767530118277 3.523407249881603 -0.1093302483964117 0.5821363222625457 -1.1106638580607
Ni 4.888801148710641 4.9824211718760045 3.1479567057605093 0.25269444644908096 -0.7533016016878833 -0.03372670282848385
Ni 4.921017559121303 4.935279696796671 12.32243170760235 0.14869949422265358 -0.48002341755017974 0.38231044167772227
Ni 6.066850037768345 5.862337060334332 5.394271932321051 -0.17712792476667558 0.8051211574623359 0.2504635002360332
Ni 3.793903560715721 3.138858032777424 7.473014867417461 0.41597672358191584 -0.5349280400078593 0.5526527109811321
Ni 5.906836034759804 8.245329418275274 12.987949640570967 -1.689739282009735 -1.1531310260859755 0.7853866551478861
Ni 2.1005025929196495 5.5821675397896 12.281963697588935 1.1882839198380244 0.17336023019412725 -0.5354358328822133
Ni 8.666177571190541 7.429809521360865 10.199636353069014 -0.6261934604827603 0.6192931338185012 0.17378934731174586
Ni 8.025605949272695 9.365316951502848 7.496463147609753 0.5299182454980939 -0.23870224593504696 0.10517663123935435
Ni 8.66339696074641 2.5509338629110676 1.6620021673438172 -0.3487596023054703 -0.0662807255051052 0.6946974188914294
Ni 1.3810058295213263 1.313755568978465 2.7719537224783286 -0.9711804831196758 0.3251357922389433 2.2234897567697254
Ni 1.5670305096976638 6.890997192915049 0.8944183371687686 0.7215153104152219 -0.14064011425328682 0.5351049319053559
Ni 7.279435581713273 4.122604861561853 4.091737323436177 1.6309546077713588 0.017113519751835043 -0.7811602757713644
Ni 7.425675434972072 3.8002842330262636 13.224679949147577 0.14334414344801116 0.26917650326450415 0.29518526862344
Ni 4.759999958303455 0.11940880393678997 11.243043849054919 -0.31660667172200957 1.5113052368371263 -1.9438550342863747
Ni 0.46309777922318346 -0.10537408704940175 0.7365450359094353 0.44036440839766094 1.5009367491186087 0.912780445914228
Ni 3.5412731323511224 4.827498816468805 10.072316620345472 -0.16687333691820294 -0.7844839408279586 0.1894856750010801
Ni 0.1361044361167421 4.981371537469942 1.8710534324861519 0.009213033957835745 -0.37275339411690644 1.1346854177862782
Ni 6.390312373903512 2.3099046569292736 7.370625793301794 0.9544323171270597 -0.3350538226836036 0.9694303331977886
Ni 3.0818002747565982 4.711900922011573 1.158849786746098 0.4950779978904571 0.22734208372722137 -0.29537835847085253
Ni 0.02981606225574312 0.14036097985290924 5.315896467805854 1.7729584351413916 -0.007237655399019794 -0.005002852531230093
Ni 6.774349664051752 0.7344466878292438 0.9074899684519971 0.44561768637680027 2.2298799765667856 -0.33508210481837775
P -0.02715146403543862 5.497110323621069 13.31270376361114 -0.895189215195026 2.4911475093968583 -0.836424595561308
P 3.700182257037492 6.581272177252218 13.32154371092045 0.9419269855711971 0.02594937287591015 0.89308965235352
P 2.3198025252320633 8.8561982279654 1.855003233392735 0.7721377605577799 -0.5219529679044301 -0.4485813969908145
P 6.409389939599681 8.232006427173753 6.462273099026567 0.5987543904352011 -0.3785126651981868 -1.4348771384853738
P 4.835573635540011 1.2599940312854518 13.170506844279554 -0.8181476516289911 0.1228946173444077 0.7875363545010373
P 4.117264616338022 6.519859357178165 8.890861943859672 -1.4876927396245085 0.05112972879627968 0.20850438219542802
P 4.5107578234601835 1.6179101564336784 4.389405354408306 0.9478526070270127 -1.4803938919702506 -1.2057072575207946
P 0.15416183082877105 5.999774716293161 3.859629089173985 -0.23089149164137654 -0.1752337930677563 0.7886771529736998
Ni 2.5709045385843243 1.8028944095233044 5.349828201811688 -0.6883002571158339 -0.5030152504596627 0.22200704466755314
Ni 1.7134545093434912 6.439525495836918 5.406561862191343 -0.4768578753380045 1.305909575474009 0.6974991500062826
Ni 6.940587814941862 0.8064985654138771 9.72381774142989 -0.4152992378989171 -0.5769889737336514 -0.17433904916762877
Ni 8.36878115613928 2.7936019717374165 10.817099444878632 1.2879447634654722 -0.19759390593051132 -0.1497312779212776
Ni 3.6778637149296203 4.80927753147232 5.679636222443861 -0.38800594940060273 0.018279000814845937 -0.05885692223720832
Ni 1.885870771518412 6.95285196431797 10.009275946210085 0.8658637267580312 -0.03721080472234237 -0.21893406216918426
Ni 1.0112859209645635 1.0975492959681323 12.106548611501253 0.20665473058119893 1.351317057074531 -0.3248755965990211
Ni 3.955335490904383 7.298531562048143 2.319597202010526 -0.02276403316939305 -0.2345748540302347 -1.2286055022752065
Ni 5.2749377076710084 8.163743361502233 8.251743236935482 2.1588442528751983 1.0820873319745878 1.9487182759159474
Ni 6.9559364163007 0.9638037750692271 5.333724600266033 -0.4589010337492677 0.542613324467259 -0.6115523135308177
Ni 8.205231542499787 7.170743176769615 5.548772592501955 0.49423133361944555 0.11406956285361 -0.9659398035460267
Ni 5.317530766990733 5.124572975342767 7.785803158228512 -0.251410951750967 -0.5937600225444033 -0.5024634917212508
Ni 0.8269452594976028 7.73500453590279 7.576550252792382 -0.2213141323655866 0.23095422655851192 -1.0473429865148671
Ni 6.3956802410853975 1.935783649722526 11.842192661942606 -0.07383102704853736 -0.03715809710753601 0.5660283609570896
Ni 0.618298195674796 8.012282958171173 3.141744527394098 0.9823550116792568 -0.9781612853128832 0.07470391657179393
Ni 7.693166476769882 6.884340301023963 7.836485768330406 -1.0404424027402919 -0.3829617021084759 0.33124679023268755
Ni 2.4994557404172095 5.47603476962564 3.505605818647544 -0.9086939345496801 -0.18708452175875523 -1.6350274922891517
Ni 1.5428705037195054 1.5670305096976638 7.546256330662299 0.5318766547760453 -0.664188708779611 0.4122766490225093
Ni 0.7814657055612031 3.8410818650724603 4.643303630647597 0.4732045948561334 0.09692261876067824 -1.2859413598821983
Ni 1.0119488479578664 7.82371705785384 12.196756402114975 -0.5283146484563999 -0.5753966895458671 -0.2451749981435842
Ni 2.2516775693508158 5.62974175887845 7.746858038835824 0.40931782350450147 -0.39832070106304945 0.31313234002016394
Ni 5.99739002058114 2.2993991055492895 2.756672334550757 1.144174845333952 -0.9330713349527803 2.898074721181996
Ni 3.8859491322719895 7.34074712127446 6.555174951282519 0.0006144936555473289 -1.1721548754866458 -1.65644169629887
Ni 8.138625794311526 7.419331591938934 0.9224886916754802 -0.19601139193473985 -1.0776408661674604 0.3746714370752257
P 0.21892519441481054 5.950156472308293 8.757208496154282 0.3983952630547268 -0.6854869560367549 0.3026674359330981
P 8.68776873506965 1.8684965599022592 8.695557206509026 0.03542363091493254 -0.1511027043475075 0.33155995059773224
P 1.7525579946290242 3.6821543257473874 10.916578085347313 0.5773437859699089 -0.5808366296145158 -0.4736403968419714
P 4.162260786008472 6.564487234074558 4.398636612790052 -0.43901817878241167 0.5250303212781733 0.7054245755009464
P 6.556182232019565 4.021407214570261 11.018940458236862 0.17471751555297005 0.6316948499169637 0.38057597548511873
P 6.650630913926557 7.8461184658358745 10.88357536986404 -0.6507750064768663 0.993417183030689 0.2452197353385906
P 2.2615478156955513 8.852579751460288 6.1075077185604005 -0.9495042836978227 0.1840663037577217 0.4935440777444339
P 6.552370401808072 4.2981239903582065 1.9557220997780527 2.3759839421481206 0.9546305491807946 0.2638499488452682
Ni 2.51758495222018 1.6433960163984431 0.6570324674543365 0.48231169936372426 0.7550517516097707 -0.5072645126543199
Ni 0.8283834427802964 3.6671095659271478 8.757155093702043 0.507172467161146 0.4220787227145957 0.4960020523666232
Ni 0.9221130330459418 0.07767478751255291 9.403752906135402 -1.651833250992581 0.3227402954235732 0.2881641001106005
Ni 2.7746533085121685 1.645099370478458 9.75727806068493 0.760549027278916 0.5864254365562029 0.009857866630686248
Ni 5.162967497038239 3.216070612858535 0.9578484809127208 -2.4918309086171275 -0.4089979782712375 -3.04788724596317
Ni 4.394386514177431 7.0217227130666835 11.120790904170471 -0.40211513510847524 -0.2225624029503909 -0.1790968755675883
Ni 7.189747083910971 6.199214460764536 12.431519106546185 0.2596171417108432 -0.1274711809714966 -0.8034782225422742
Ni 7.618550360745875 4.239353670938014 8.75098342754078 0.29765969830586153 -0.5162839425441109 0.2866510059001837
Ni 3.312222648845542 8.809599984727802 13.101631491871165 -0.5118667873130217 -1.0460358376676695 0.49969364228559743
Ni 9.271126074537696 5.219362328065762 11.123755661001631 -0.5411043440219003 -0.38072715635100235 -1.213323893525788
Ni 8.921036170838185 2.3712254038098126 6.354856828545017 -1.0351325604916044 1.0430736697155518 0.07163504783848308
Ni 3.641586876684977 2.81303862288829 11.909976947007848 -0.14331740397513382 -0.03040715153694763 0.14453353577042205
Ni 0.9421113306772527 3.6512453546846295 12.962588079417447 -0.17994919626555458 -2.356337114451471 0.962263126025388
Ni 2.996650985394552 8.651556348060467 8.295338052600645 -0.3706466321865488 0.8837418925900329 0.6617564451890345
Ni 5.5465167992608535 8.32211846166622 4.251359094640347 0.21914180730461613 0.35988168036056084 0.31659792997126124
Ni 3.1516562066759146 8.825841696063728 3.944675256559295 -0.7762204152675858 0.557187365626692 1.3539215845769133
Ni 5.542631310494549 3.23384994652615 5.393234267430144 -0.9109734746124762 0.3211176722184857 -0.47535120888549104
Ni 6.348023156122385 5.900197557507422 9.855207109306765 -0.5796631781317049 0.7964542258159574 0.7167523418089398
Ni 8.011049177378082 0.14981229316715447 3.1599906721528312 -0.7605965926873999 0.5724476342198722 -0.39499266513108106
Ni 4.486413671094996 0.5737559468483722 1.8867795339383984 -0.0668247709340333 -0.38363815935021023 0.11360676428457854
Ni 5.857208583455584 6.256530023727202 1.138740080550635 -0.3153185490382053 -0.4730364447093853 -0.7868876651734448
Ni 7.9928094777428935 8.946770628425439 12.561223534981746 0.8359381428431926 -0.11959280666468436 -2.361367734896843
Ni 9.09977786140754 5.0676441197928614 6.56521461230332 0.27311723307980706 -0.13827521356553604 0.5402103714527212
Ni 7.223897031385433 6.7270792865015 3.2327330986888216 0.9979934895474618 -1.1083920313073878 0.5514432640540632
P 8.598789200857407 2.0675311823221705 4.083679077539803 -0.38917040202234915 -0.19609598122874614 0.3495887830749851
P 1.6624275454978534 3.2411237288137817 1.924134549279094 0.07337414201677686 0.7917506496927009 -0.30523236844679685
P 4.714119885975268 1.2219401804059822 8.301401993125497 -0.5617598154887229 0.4938078729287818 3.456380516683848
P 8.471654535252831 1.7685695229811647 13.085015963369571 -0.8141544713091978 0.5785861430174423 -0.11411430004861636
P 6.367063892541146 8.293677052189645 2.0782043069143508 -1.2279925512815562 -0.808788064790962 0.08534108457066593
P 1.8999671774454547 3.628208641667346 6.602920426511305 -0.969189420831576 0.1416029923871884 -0.11048415949519681
P 7.080170776309576 4.3038969795915545 6.653306560930083 -0.29153250236220113 0.15715996628518095 -0.7413973940511296
P 2.324369355630374 9.086639016693047 11.025368087876096 1.9409982815638702 -1.108578179176265 -0.893387643209913
