# total energy = -381173.56510634883 ev
CRYSTAL
PRIMVEC
9.24589429283993 0.00000000000000 0.00000000000000
0.00000000000000 9.24589429283993 0.00000000000000
0.00000000000000 0.00000000000000 13.53230088688524
PRIMCOORD
 96 1
Ni 2.989669152670486 4.899454840142775 0.5503415144551117 0.5616803684010391 -0.7520368760428467 0.8307735679231175
Ni 6.3162586919280335 4.861981230734506 10.433105908080748 0.029801913852780935 -0.013352510047506037 0.39806539051913375
Ni 6.5541925346402 7.4725132436577635 12.562684069150977 -2.243671631034239 -0.5638120700320612 -0.0013829963904556826
Ni 8.2134607173217 1.6819853448616422 7.204881588604277 -1.0777336829915825 0.23627126789605116 -0.0766291586189648
Ni 2.059245568075468 8.744646588063008 12.932278521439466 0.2971099964499786 1.603340445598516 -0.11632262055384482
Ni -0.007861783883506513 8.825659113509653 9.480770478695042 -0.40009090558959487 -0.7075575626835492 -0.984689059129072
Ni 8.846453129685129 6.461326772760936 8.963403521504587 -1.0419493263031216 -0.22865103234663198 0.4213089344281067
Ni 4.684312126764776 3.208362289441719 1.3188916808225881 -1.6011912604659972 -0.46798962631409724 -1.394435999751192
Ni 3.027743745205215 4.4197316168148495 3.7855122742840206 -0.24185338996951894 0.5619850441256515 -0.12459745896812734
Ni 1.0091338823726155 7.700609454884515 4.0255208956666095 1.0619841334668099 -1.0885510853220606 0.6874330240195322
Ni 8.927807753219145 4.424557973615027 10.347284593033006 -0.1486457581665827 0.6478277509230842 -0.9140587984060194
Ni 1.8118994050135298 6.8809794211257405 8.23658377425956 1.1543674695962376 1.0035771542828267 -0.14676062532872788
Ni 3.714713688218897 8.533387150271356 9.21227618170773 -0.5754887350390411 -0.5148577516205456 -0.2921778492556839
Ni 0.9260502766132486 4.7323353015159615 12.217610653011434 -0.9238801553718153 -0.3748652982535866 1.4848722394565783
Ni 5.478821065837572 8.812936763017234 10.769817337457686 1.0002192935541871 2.2509046584475687 -0.7554248186784732
Ni 8.96411637995151 1.3538947872863998 1.628355459835309 1.4085027622569033 0.17487743816960208 1.0035977231081168
Ni 5.576929249758409 7.834563970825055 3.8137409140285032 -0.6724188099988871 -0.06738192898908395 -1.2718010638260742
Ni 7.324394017721302 5.668130750672096 5.541694071348841 2.316954755999107 -2.84856787270112 0.33829701221124964
Ni 1.4612858490374618 2.2438121091580943 13.17403276765706 -0.9525728953208177 -0.72902138898428 -0.0662285321109311
Ni 7.656552768767957 0.27685535916049114 11.32657642711395 0.595287257822207 -0.8096524696737862 1.2978486528427455
Ni 0.7500389614831199 0.9084276021666259 11.150277564672548 -0.026792437602495795 0.947429146336349 1.9135460988901882
Ni 0.1042807429242815 2.1572520471595196 9.172707452661683 -0.22253720613941028 0.7627848585879703 0.5487770300758097
Ni 2.959046750903847 7.415660239894761 1.2829797029536858 2.4210474101456625 -0.0642536677727474 -0.24741442899706423
Ni 2.6531925690075804 7.69742886726141 5.958731980818838 0.9809092803716656 0.43559269804063044 0.5816264725056629
P 6.33181953195619 5.69968698775831 3.679568194983586 0.436115660423636 0.543047069570568 -1.5855486688327338
Ni 0.7597009209777269 7.631098821888863 1.0018287013231524 -2.7430225452684374 -1.2346835901484865 0.6007331114281267
P 3.857793901787359 9.147647380877775 2.74444492233966 1.14804949779801 -1.067919010894006 0.1894900458764543
Ni 6.709061263381509 6.956120803721597 7.234191997976386 1.326170125495258 1.09798703392398 1.098252628880541
P 4.281413038786792 7.081458146218145 7.680947136165632 0.2705044780473083 0.47697151809773336 -1.8228100685561963
P 0.286298190961297 5.406102107536056 0.7938321396134606 -0.1299810918775439 0.5739640708643986 -0.8458993678209625
P 8.471106806581718 1.3698716925559506 13.058251056871207 0.08500941226286005 0.25687300330680274 -1.0629956054504597
Ni 5.849720113805188 7.047553451991615 9.37529978918037 -0.04437826900505906 -0.49976357629158447 -0.035492279369338874
Ni 5.457610984420702 3.807616433675175 4.563714229662426 -0.07480496092603246 0.37645963932390003 -0.20601401167340647
Ni 9.155034850386093 4.298406992424197 2.5326103899254595 -1.1708179018427771 -0.8321606780786314 1.3270152471043728
Ni 3.550488114493338 2.0664018902274544 3.026336520099876 0.22763981747329828 -0.772665608036792 1.0664498825476472
Ni 6.784535498170482 1.8514625865230256 1.0298206461747528 -1.821031893609851 -0.37201960127467537 0.5661548592326249
Ni 7.1467064219630645 3.1666355686769716 8.84257355245648 -1.1762478146090969 0.08687037673099877 -0.35323563579895295
Ni 1.9140018152517544 3.2225547371204004 10.88730399114383 0.5304229530486542 -0.9224915025544049 -0.9170744453038917
Ni 6.527176031632314 4.136696301935512 2.0547853486877186 1.8102201477063276 0.7508474837204359 0.9670016691516378
Ni 5.657155874193532 0.7407172508970312 12.742474181262393 0.2753129551795452 -0.4689607319781149 1.4297395601484926
Ni 3.694160065294006 5.3312103640850355 8.777063617904194 0.756294108657304 2.452069826669106 0.6835552862316808
Ni 1.6339621701104567 5.889985983277928 2.5649257149298625 -0.3209700908970279 -0.5055853251796841 -0.42470896124859114
Ni 1.1337685369059187 2.668633212410445 4.048377670849976 0.9894949651581476 -0.3673509921544125 -0.4630057999462606
Ni 2.630364456096399 5.310573528111865 6.463663210238722 -0.095356559825139 -0.45570823784358294 -0.7576796761509209
Ni 1.8320647003797859 3.0605851615926256 1.8304198557921396 0.08365675488970753 0.526327442823042 -0.45564010360980883
Ni 3.2711881408922974 7.06627638785437 3.704589434011629 0.6727301705917189 0.8591894000616493 0.5117539158842414
Ni 7.605607891432757 6.723041055492366 1.7764802333083236 -0.20377072416518457 -0.728971252472635 0.03797519369219267
Ni 5.212317409882978 2.33028895810839 6.692602647021366 1.3921834562715893 -0.4427200531140311 0.29627747324635423
Ni 7.632541181392364 2.72229638265609 11.046227969104597 0.699517465987892 -0.9629647800781028 1.4557465257352156
Ni 4.760794164027349 5.843701036646347 2.1910689053906443 -0.21601611719144087 -0.0816024434638401 -0.7404877377526666
Ni 2.125372203774443 6.093959656398047 10.358908531288144 -1.3596888260779938 0.7161962121951537 1.462400026495991
Ni 0.11659997242726172 7.596630128112887 12.358536573218897 -1.9407859084427481 -0.13857500419414198 -2.0603545467377162
Ni 3.5850215295290866 0.9231110068301525 0.49318339618175255 0.3326331290572529 0.5792780268781443 0.8926741620826562
Ni 3.493413209268258 0.8686147815122932 11.560414338671947 -0.8626771014999337 -0.15558028050288691 -0.2702247420233604
Ni 1.4362941968710288 2.496983185599557 7.13602833869003 -1.6079506906770178 -0.38975404243996103 -0.6683983759855844
Ni 7.5434200066856505 8.737388561074235 0.5117130928546155 1.7244887696757782 1.353952694925165 0.22075286054547788
P 4.862082935571292 5.997820847953144 13.359289977040403 0.15810253270410835 0.49495407071808306 -0.2859094997484689
Ni 3.296993431753014 1.004159591264387 6.831321572270587 -0.03306181555097532 -1.094200056077722 0.1886832337044428
P 1.8836937738897241 8.32194279459464 10.728976373362396 0.7370267757872597 -0.27024222552485716 -0.1790480246075239
Ni 3.7788339648649254 4.767053634436774 11.440139123279032 0.7428238420850111 -0.3065500588169559 0.698283593580791
P 4.564587042079929 3.65842468400534 9.635863882666703 1.4131184066520437 -0.9184042198589086 0.3762297827012811
P 7.620974567681595 7.134122759884443 10.81366136800642 0.9253004327581097 -0.40716555304818913 -1.5285815074190707
P 8.580911046732867 8.447705448226836 7.003763972218976 -1.6698829094054404 0.25164132259421823 0.9971015738608118
Ni 7.738009097138758 5.480596277534188 12.995312405510742 0.5892891312572432 0.9936023024583017 -0.6813338531003298
Ni 7.063558094943925 0.04425547284300121 2.906724235324918 0.7964909925911638 1.00933488270221 -0.4682868458395419
Ni 1.482005898058911 4.498959684670627 8.717224190297403 -1.1495463940585104 -0.5257821118425332 -0.35555579929169734
Ni 5.719426971988918 4.666892861991724 7.285520579923095 -0.35021227559159684 0.20838816833253787 0.6127000539820157
Ni 2.142819206230255 0.5627310127544163 4.562415181519849 2.427646660629735 -0.3091350459353127 0.17696517393656622
Ni 0.14399833086780606 0.8842708542512577 5.438361032585515 0.17172809390734295 -0.13701794411966725 0.662730893287162
Ni 6.9207552582030605 0.7699694111353447 9.270559525311706 0.17846541263117652 0.5470299654777159 -1.0471036168105514
Ni 4.995538173222159 0.5940570270737253 4.964121549139168 -1.0589823705260086 0.6645813162323393 -0.8087466700300653
Ni 5.338690292535885 8.217991205505774 1.1066651224920518 -0.6180258370703033 -0.16471720980714857 0.5178775122834759
Ni 3.3446560166283232 3.3787456287399174 7.8403176908188295 0.8813530806428821 -1.5049103890543758 -0.4612993587781152
Ni 8.02614814564587 7.273486123963114 4.094103240879238 -0.6538037660008611 0.7323923623390419 -0.356416861740412
Ni 2.206625122471674 1.132742242643812 9.311576161397806 0.4785589171895113 0.3151449995748185 -0.46813592208397437
Ni 2.1116605425969293 6.507556244026998 12.82116506266206 0.9205472343438404 0.623025861388056 -1.1101995168297718
Ni 0.32961150717989585 6.618867564941422 6.493813146809023 -0.4157982890225226 -0.4284319186261331 -0.8152582458963379
Ni 4.187974031463828 7.2148948920805065 11.312028937095949 -1.5532327303088476 -1.5880696354823747 1.5416013167175062
Ni 3.383590477328601 2.9207225192242814 5.4717045010308745 -1.3879691610799259 -0.5756915950784666 -0.36688613670285203
Ni 5.345023730099335 2.1213779774570556 11.007619888471458 0.3913404130904744 1.2705638489848634 -0.5641270301693189
Ni 1.8004899715050655 -0.055351470536281415 2.1430022749364688 -0.14460218422482837 2.304375119561883 0.6413025482100569
Ni 8.585755895321551 4.461504567050864 7.526124636895591 -0.27516177431366157 0.1922681228422237 0.9761198294028223
Ni 5.716588482453182 9.116303799359386 7.344994794706884 -1.1390084706416643 0.18199270905814463 0.32795294997276425
Ni 1.2477149376825085 9.153509277834312 7.382262220673306 0.5200470091309688 0.33217110181916987 0.24381231346810267
Ni 6.244908125975993 3.6961756702412063 12.812247397654836 -1.8143853348276104 0.13210662286097896 0.11632004945068354
Ni 8.96452319929865 3.683739942470636 5.414963372588335 1.1347422391661424 0.9906406487268166 -0.15783539508565075
Ni 7.171143320474306 9.103405776876155 5.49596850131958 0.25157730212550217 -0.47682727921038526 -0.21737880186692243
Ni 7.665410335462535 2.023944743816703 4.359673986103683 -1.1371570192552223 0.17868009974514387 -0.9281705552170532
P 3.3701931765556963 3.114719872445184 12.849379833565163 0.6542855907332861 -1.2770687399829166 0.04238746382727539
Ni 4.61015080895976 1.542871619927808 8.843778292477674 0.04631688078866862 -0.3515975859748977 0.4086567928817349
P 1.0496493909901923 5.4703703184901356 4.750906604712964 0.5683595801934276 -0.6882838020556017 -0.7926281672016479
Ni 5.2694108068965635 6.391039484648015 5.535956069375298 -3.3099114544536095 0.22371502849759536 0.5091267626740393
P 6.976942557579832 3.3264785885265082 6.079859667661898 0.9300970828158047 0.2656414935280522 1.106582746012791
P 9.255972277948413 0.1790550635182862 3.4633085775797987 -1.3281665870999966 0.6321121399600403 -0.8405522445764362
P 5.789926915669663 2.232827986785278 3.083970801927276 0.374702033202845 -0.8979433809013956 -0.6476482879224265
Ni 8.264960348312092 3.4613669397866236 0.39165885433435366 2.0550063950519255 -0.2669203602404758 -0.31395714991430446
