# total energy = -340895.25447102566 ev
CRYSTAL
PRIMVEC
9.01653047191083 0.00000000000000 0.00000000000000

0.00000000000000 9.01653047191083 0.00000000000000

0.00000000000000 0.00000000000000 13.19660375051571

PRIMCOORD
 96 1
Ni 6.296847236908043 1.7918821220539431 11.358488426065602 1.07345819554468 1.3030168273072462 1.7576847968117728
Ni 4.756264831679013 0.4283879791164714 5.967992736103445 -0.5176831368844826 -0.4782187602412732 -0.027203042777353147
Ni 2.590331948888766 1.4493982340026534 4.8277397692572395 0.3718015717265984 0.12195950712464801 0.5256725828478624
Ni 3.343410595103484 4.431155797573459 4.745947216022498 0.04929601802165058 -0.25441811400840697 0.09750471651639336
Ni 4.92336818828323 4.401518462379046 2.6650140663053423 0.9753886076637522 0.4538588433396699 -0.343526378930989
Ni 7.287709820983139 6.14531542818358 2.5409799701280056 -0.5482260426683462 -1.168770275285129 -0.31294156416559654
Ni 5.1871828492060565 4.385216575542569 11.542238100964898 0.646975430225118 0.28612367264180405 -0.538210310303557
Ni 5.418880629093747 7.86273904277313 12.342400166909371 -0.27407394056612155 -0.37433565100236177 -0.10194244057277282
Ni 1.9350015079805996 6.441517466051445 0.24342467923476996 0.5499401971459754 -0.0711179989927485 -0.012462908353701117
Ni 2.710567380838112 1.661503093483449 0.6087095691843354 0.27377440704783174 -0.6881817292600987 -0.7679350353303419
Ni 0.38086004444145144 0.18579552563115212 4.887916092679058 -0.1090656818811154 -0.2243269510499814 -0.18996184330655028
Ni 8.910153305077419 2.3714105924785587 1.3873852433526332 -0.23099947797415055 0.38210578186608385 0.40694880905169273
Ni 6.99208484105639 0.7010253149671157 4.938960474182742 -0.7040194676233037 0.1511960353922622 -1.3432255383156477
Ni 0.6461344816246916 7.24869529424562 2.177070101053751 0.4414170180318914 0.7491068468802453 0.43672501187286084
Ni 7.568448509335207 3.8531240711836086 3.8165899919398476 0.28626096955061664 -0.22621208388783623 -0.5651600994195235
Ni 7.695103710879448 3.9385015968775234 12.675891869262642 -0.10930376603385046 -0.3822428216645804 -0.4025362818062938
Ni 7.640878297475372 8.800881974009243 7.025066407350167 1.0866824075444381 -0.16271432044450687 0.4785280639515759
Ni 6.687353165496432 0.44215261431811154 0.4220989492113594 0.6752796764864499 1.6218040516203425 -0.7929238440651957
Ni 1.699462686172369 6.518599783841842 9.100377750406622 1.0949263927207853 0.025293484459466116 -0.5267465326383315
Ni 0.2953130079773343 4.9145500216205775 1.3343743565839956 -0.9370483173226571 -0.5207736028843484 -0.2678932656767064
Ni 6.3307854570698225 1.9780644568362484 7.114222760905347 -0.1593279204707772 -0.02098071601672516 -0.6234593493810489
Ni 3.639423285834419 4.231115055674083 0.2940002011612994 -0.29869842398302104 0.08965179613087786 0.9356568362917693
Ni 5.997029570377886 5.591150457577001 4.6979513234233545 -0.24049610461067614 0.08167289169045934 0.493792189199498
Ni 5.194323941227346 2.7544328008931225 9.39055764766714 0.6114751804359791 1.283277697007106 0.14564862321147173
P -0.03358657547891361 5.794590431410754 12.397773384624445 1.1746946111893641 -0.5241579459755488 0.2098488120384644
P 4.074407758540252 6.068900333637596 12.418043446459116 -0.5684657667539887 0.6938898353884696 0.4669424159965055
P 2.4248605842742634 8.386374041682636 1.4495542199773608 -0.02999757480335479 -0.6214932267936136 -0.3848728030882598
P 6.270861596497244 7.621898501130912 5.819174001355252 -0.25504597740039303 0.5701151294319536 -1.0409931330374393
P 4.705087005526446 0.9970930065330635 12.681104325446363 -0.8143107943814041 0.14844212679620886 -0.13205185836364353
P 4.104225424341264 6.217808332036054 8.174451316114503 -1.411369285171421 -0.622308009385425 -0.12881612503516524
P 4.795694118811708 1.0178941420041652 3.7370272266556914 -0.21832805315406914 0.1681740580074975 1.59185147112231
P 0.1838416435086607 5.577634678612466 3.474692178360002 0.4598271451079629 -0.43453263220723226 0.9083710039926227
Ni 1.5117204916429892 0.8129700472781096 2.728701426637626 -0.9859856664533083 0.8091603605287161 -0.21875305650662974
Ni 1.7886722372564954 6.724546353107309 4.792029800885633 -0.24735683628625144 -0.2813033684350252 -0.8714944426812474
Ni 6.043374536273622 5.352933726260787 9.041639563572426 -0.17622983843243842 0.7202883799866562 0.8457893246056594
Ni 8.47860413042728 2.121986313962267 10.228608075710927 -0.0083591705979727 1.8078591036733187 -0.45254320985203994
Ni 2.542228759578698 5.393021220107566 6.8331486576250065 -1.2079166064672873 -0.5269033699311699 1.174791027557912
Ni 0.4574771092668261 -0.1997197534196317 9.224940215261292 0.643054497904157 0.992953356020393 -0.08080745836637052
Ni 1.2273932242196168 1.2938901354027008 11.444226612972713 1.708802469288773 -1.5943539258291899 -0.2666712203441472
Ni 4.171750219981957 6.656047772190986 1.6445213602600972 -0.5175137011861539 1.171709046198479 -1.3694777871439576
Ni 5.619444329752257 7.7314403281089845 7.97015477189941 0.2872765552993246 0.49367494689534336 0.5643759129553313
Ni 5.242661560325992 2.862441817715111 4.917846465109192 -0.050538375069183926 -0.20177477678107833 -0.3824058296050059
Ni 0.6194076824207733 7.349779615774238 6.892295293283148 -0.07462344104284567 0.7967378184946471 -0.11730709595430118
Ni 4.958884301252744 4.646100864108177 7.004809870310991 0.21836404859832717 -0.7617101374665527 -0.7487846876541362
Ni 8.00245018023508 6.99210287411705 8.785849614643219 -0.23402360951245504 0.5896570561196233 1.750810438289443
Ni 4.574284200030446 0.36533267756031396 10.53226227589646 -0.6042215841973594 -0.5959817127860704 -0.8139912062584562
Ni 8.140781788556556 7.164219421584695 4.549396773013829 -0.1929800613075838 0.4702948774085061 0.7385588961610701
Ni 7.27368911632013 6.026261161707453 6.827461030292898 -0.15583430549522193 -1.5269953938788734 -0.3070498812715099
Ni 2.283598603595568 5.471744546418007 2.647199205679507 0.39980602735932436 -0.9249942143716006 -0.0972774309969357
Ni 2.4641365903913504 5.064206392036419 11.377161660378846 -0.8364636763293595 0.4373713872076081 -0.13185414053054065
Ni 1.1506084519301059 3.369432301635603 3.766192095660817 -0.2227171833607003 -0.16770611723214343 -0.7830369239687869
Ni 3.5199452424327857 2.6001599669483677 2.879511912935696 -0.286037540685901 -0.3435346064611051 -0.0870002174406437
Ni 1.2626388412792338 3.3989163558144075 8.027837123031974 -1.1337425942570345 0.7206251945007848 1.0151674302235874
Ni 3.57537887090107 2.6231521192896374 6.856044333091745 0.9363620898889099 0.19383135356428555 0.5174296261127799
Ni 3.991527811747722 6.983591269485615 5.864227800107745 1.0080578157619995 0.6779279127425744 -0.20973465505810332
Ni 1.019300720735631 7.348697632134648 11.212942691827168 -0.9991180900702084 -0.811285377291519 0.7287018008613322
P 0.206278377581608 5.480093853503503 7.774290486848847 0.6029758847157164 -1.116019980166291 1.207915578026023
P 8.373597618205153 1.5636737394039288 8.061950263882155 1.1300054958121055 -0.2319027065147103 -0.4283391018020107
P 1.6663269372099507 3.1692563117812775 10.387653359159302 -0.04190409643295364 0.7422409729983476 0.31252710233599723
P 4.148117893987264 6.210063132482662 3.6930166404623694 -0.9994340786487304 -0.40218609755572676 1.370063998664731
P 7.036040426414699 4.016332286685303 10.46019585392859 -0.26542603508313645 -0.8507667232155929 -0.6534204145195134
P 6.387977308952441 7.84476008129529 10.200182562192854 -0.3527597246037989 -0.7101340651614738 0.04518251007390928
P 2.172001007702276 8.517835053892718 5.910718833794825 1.8204793635404906 -0.028988159702233948 -0.5378968928281962
P 6.815748557394346 4.10754350750267 1.5369162839968888 1.011358598000458 -0.13312400838189975 1.3479928777973043
Ni 5.5125443461608485 2.701370519901604 0.6172707647325847 -0.9641181769562557 -0.02492478826613772 -0.6896585709159412
Ni 1.4597131447000702 1.0769794652560634 7.155357073923427 -0.859538555870952 0.4043026296780972 0.289914507142804
Ni 6.765111723061573 0.709405278255734 9.342733069144266 -0.5884915750566123 -0.15141612182286826 -1.4368918549225576
Ni 2.869023884855945 1.7904484937314875 9.284391609644585 -0.9431626577505111 -1.4052899117465603 -0.16720603766727332
Ni 6.467367858507295 1.8044241157428476 2.6084668963413136 0.018416554833974735 0.6459904406040294 0.06029339757341874
Ni 4.170794467766987 6.808679597615697 10.28751757662139 0.12249043992745356 0.42856175933577806 0.049706108975875685
Ni 7.969584927182559 7.354260831348202 0.3748243790386099 0.48157970629370606 -0.5767439476023809 -1.0058320117552741
Ni 7.621258327477488 3.634653541289897 8.177499805019046 0.8538276215291037 0.9072659438539019 0.26909422796334304
Ni 2.8369791360634458 8.486709991193871 12.360229453983735 1.200935547163764 0.4266239188831169 1.1659454042418242
Ni 9.173417957650123 4.847980978194854 10.08553106747682 -0.45933914972795087 -0.20257876073961242 0.3343845645307209
Ni 8.682098203443013 2.4268532374771734 5.678973266296387 -0.2670118915130176 0.3547181338817504 0.8395919375456959
Ni 3.692142938673401 2.6871694846319962 11.52176967546297 -0.8886609271582051 -1.0746617289344782 0.03548430894953889
Ni 1.1992886991812883 3.312438813420244 12.644708199116648 -0.3230884227916113 1.0676644716810386 0.182503330145976
Ni 3.2404959179178947 8.3668893196397 7.975882071964969 -0.7068579655133633 -0.08744733228039132 0.5792219768292283
Ni 5.659739203796624 7.909029909486886 3.62514651171004 0.2599272167520943 0.171150367027002 0.32194736720863265
Ni 3.2164217819370355 8.347666076976333 3.6478185772245975 0.10795933619081408 -0.38949153280719373 0.06744106436179353
Ni 3.266174996297477 4.334372361012209 9.280709258657849 0.7705315924129246 0.28548578194748897 -0.9592014563809287
Ni 7.05593990885281 6.169660060074337 11.413834594189687 0.5347907430990467 -0.5225096117388485 -0.9451822592837011
Ni 0.532872434232498 9.1356386955678 0.37583693539465873 0.5070914774115654 -0.2714881821168163 -0.09548640053478394
Ni 4.482766417181862 0.30907764317897435 1.707336822109479 0.10750759336537613 -0.23802141781793842 -0.7457600418951995
Ni 6.005144447674805 5.721899163891021 0.3530061789462944 -0.3345629990901141 -0.15534091079857115 0.06021934980237371
Ni 8.09829589764202 8.732590773290507 11.330695872976689 -0.6686441734478032 0.3126643992448099 0.6030080235052324
Ni 0.38649176928551304 4.932330619431159 5.606484870709078 -0.705859606155836 -0.3737214144571306 0.31017042917836257
Ni 7.889509121322632 8.74727870119793 2.3750325327120834 0.19161634819083773 0.6423510440792292 1.4742453558703512
P 8.460282540796905 1.6692482930368413 3.4280821264725665 0.6474603402813365 -0.20456416660075735 1.3872405104440173
P 2.0160961817678076 3.4462621565767635 1.5639298088652982 -0.6310772709376228 0.5537667699809172 0.2529268741748612
P 4.572156298872588 1.1486879309698352 8.168882706982751 1.0659806562207126 -1.0764339903435525 -0.6750896719628308
P 8.398077498050858 1.7266475251170466 12.537828953545 -0.7695370897101391 -0.5596916201057844 -0.37207385155137856
P 6.129671748061188 7.675168162320018 1.4503729209313165 0.022683300530128677 -0.0641024869068638 0.027831934610603678
P 1.7973281063732085 3.2490345721403187 5.98737827631275 -0.23775068065505506 -0.25804696901024593 -1.7031025906905184
P 6.841481734955908 3.922470205950944 6.038475855345382 0.4645556609318838 0.1126783389330382 -0.47753021881468083
P 2.4851631391206994 8.580563055397901 10.27310735784813 -0.5277484915402847 0.5536796095837496 -2.051928784567866
