# total energy = -340895.8332843719 ev
CRYSTAL
PRIMVEC
9.01152293734161 0.00000000000000 0.00000000000000
0.00000000000000 9.01152293734161 0.00000000000000
0.00000000000000 0.00000000000000 13.18927471750376
PRIMCOORD
 96 1
Ni 6.449790126102529 2.0460842579808105 11.264589946004234 -0.7661041527691903 -0.058209775571512655 0.8578228587314258
Ni 4.708980211987256 0.3083977376423642 6.022301511027156 -0.40426791978541987 0.1959149755661916 -0.4280714499629208
Ni 2.6456208649407285 1.290945688111274 4.5794476831716455 -0.00370393121414846 1.9564112736848307 1.6951123733961901
Ni 3.5099610672037755 4.191682761424695 4.757239619641735 0.04413324287378851 0.31463000761161297 0.037558160759432094
Ni 5.108506072043891 4.378635811898023 2.7743108163814587 0.2835250586766923 0.6196798277339586 -0.1757960933291295
Ni 7.243434932580208 6.254744728221265 2.72518089563165 0.2890238770077345 -1.019218203254193 -0.9676763266211593
Ni 4.860743266215604 4.444401904752276 11.40091445949842 0.2024394069482707 0.4624517272150036 0.548713523827726
Ni 5.314293205014532 7.986471027428744 12.453035871173313 0.9735209583273944 0.14004310409923623 0.0814494628257436
Ni 1.7825602989047713 6.579375822902223 0.3714973209219981 0.7735492961933258 -0.5303519906014027 -0.40675571920428005
Ni 2.5015356280749215 1.5746194120026202 0.3068180177084987 1.050887766443332 -0.29408509358072576 0.3486688423638769
Ni 0.5647557338466984 9.004385599988062 4.435579624003535 0.23769951570214548 -0.27343579276149044 0.9596719682594439
Ni 8.634408522949938 2.364398275230851 1.3705633925476421 -0.45427587627243055 1.0663987175947376 -0.5522261649666748
Ni 6.950091844803877 0.636333357706941 4.802834320026138 -0.09224372522777016 0.16263075959176507 -0.145953041825768
Ni 0.8304019065247076 7.420736642214003 2.458283022447002 -0.47168224467433606 0.2919778174297359 0.3348525053060749
Ni 7.771248830163995 3.926789050894306 3.811212667324432 -0.15950352681669305 0.12069015349392118 -0.7226303978562717
Ni 7.591279709803308 3.8299512276808496 12.640310633007957 0.11785756914113252 -0.018284914352116897 -0.08224161970973577
Ni 8.059031808418391 8.810313446561205 7.021428861007337 -0.38796609730160286 -0.44098584403174373 -1.7849207497095905
Ni 6.781495266123386 0.683502371111575 0.429845128268219 -0.6816375003836778 0.4238964926496248 -0.20075456304668007
Ni 1.8587166774620878 6.4656233715320885 9.388692800465051 -0.24916560736021606 -0.720811599479978 -1.0130663247201843
Ni 0.025314268489570208 4.972125687108804 1.3574930799858704 0.24763194432450902 -0.3259140651658645 -0.1792945934006912
Ni 6.513096073252588 1.9696395106962623 6.91409441612265 0.4598518276983113 -1.0649984948131015 0.9084797616563451
Ni 3.5087805577266713 4.412185711006873 0.646591174025932 -0.07288691796771318 0.5347310935057048 -1.042637610619398
Ni 5.975333454579311 5.413861519613963 4.806554276607426 0.028975818407059775 1.201839547035272 0.41643000906925054
Ni 5.260404299113129 3.0223295494551645 9.246235044603557 -0.027952776459184116 -0.39971835274152445 -0.17714823648164973
P 0.03545583616539602 5.678475872939846 12.385572908589756 0.6266310622408111 -0.9256015089382962 -0.1859072136212024
P 3.9148487832823737 6.272704693014158 12.4555554929275 -0.23645613021334763 -0.9352259194019377 0.8555551457431717
P 2.3673630662077003 8.50660710764999 1.322844676256723 0.336584143285201 0.8176108052889145 0.09990098466271181
P 6.391584700815379 7.746683419212955 5.786504205074434 -0.2208233087720971 -0.4972261545817113 0.08270698938192854
P 4.665778972038874 1.3237926884474969 12.530535867769075 0.33802498949678556 -0.8827489325491441 1.014163414439105
P 3.934836340688613 6.137721094101598 8.134458253634902 0.6602397514341919 0.03388456856258681 1.5607807178594346
P 4.660786588448677 1.1229979390670535 3.803087878434682 0.0632319113764524 -0.7383935742277993 0.42160743950513196
P 0.3001846358298996 5.613331575153685 3.4707447226048256 0.029879818278567897 -0.4539341766622957 1.5097420061150646
Ni 1.343888384126448 1.1658927872427518 2.455302010729245 0.9807691552493754 -0.4015281522567536 -0.04937546510933432
Ni 1.9688374851736494 6.27921101242232 4.804127473537317 -0.07182273836925696 0.8375833917560994 0.30476339923017837
Ni 5.87006084609433 5.592469900043025 9.219315823916489 -0.058587984846537815 0.6651004219606028 -0.3403253554951881
Ni 8.617683136770507 2.2492760724063663 10.227543910697644 -0.5268344643664475 -0.8807506711721929 -0.7452100829290004
Ni 2.4444476316057937 5.11985157915591 7.091741267076851 -0.9622050190939427 -0.01117015768420657 -0.9536579008548802
Ni 0.7489161134272423 -0.3305237293914802 8.703813468680945 -0.28026284298565285 0.8152633881026604 1.2045931985210092
Ni 1.3247118637655475 0.964034678180642 11.43868805930894 -0.21452076359283698 0.6541457227213122 -1.296445858957948
Ni 4.018183914381267 7.000475268364871 1.7301826253645167 0.6157103015632494 -0.5369512410854752 -1.2039951599256942
Ni 5.671248631713604 7.814630300566897 7.844083561444513 -0.9234124717067774 0.04736974753321519 0.6888234766091557
Ni 5.426513697521249 2.8786047734983975 5.109432456580122 -0.4757219619613484 -0.3526663935590442 -1.7138577723244937
Ni 0.6467128295827328 7.142181463231017 6.777111160317194 0.7945526379178702 -0.6909934876772809 0.35238382932161894
Ni 5.231855795117203 4.5741047513474085 7.039274379461609 -0.014756332373568134 -0.03546039769013893 0.16422021556607203
Ni 8.186013175150276 7.103972606872833 9.481927816892659 -0.5255712813833078 -0.13927717246748916 -0.11229293056916145
Ni 4.655848273994836 0.5322538748308809 10.398819615084571 -0.12274575047136926 -0.28768793180513036 -0.35442091435630574
Ni 8.21564306187332 7.0909870026246855 4.808255652098092 0.018287999675910438 -0.13966772303768848 -0.03572290732290622
Ni 7.298161910095128 6.1137234090822945 7.091252842545102 -0.23661939526408926 -0.5358268976730449 -0.5094702620563871
Ni 2.3749147222520777 5.226295685595268 2.68391172615572 -0.03795333931532174 0.2621905588649742 -0.80692864298472
Ni 2.3324974847808564 5.010902269398725 11.517652428347674 -0.368695679107765 0.8027927664394754 -0.07187801708722459
Ni 1.2517365527305044 3.3278742390024814 3.7698245457485187 -0.36880469388180354 0.11083125842197042 0.19133326973278017
Ni 3.6114668591892936 2.566049119270263 2.4517541742320237 -0.4863460173340979 0.06025637368789623 0.6436571644851624
Ni 1.1359745317924748 3.493767360865177 8.185184115059485 -1.0063850560452667 -0.47896129483425254 -0.3816630379017104
Ni 3.8110540645244546 2.6827663616172472 7.003926681568925 -0.2842475386650137 0.05102585622856374 -0.25243836457421687
Ni 4.055338422580512 6.734085645061969 6.078277485591897 0.6488384515757857 0.9276859022711508 -1.0966976256885952
Ni 0.8104242617934668 7.42161977144115 11.399358169523643 -0.4433481736163332 0.09858098029970763 -0.18675387789221384
P -0.015498917936425115 5.5113842185545945 8.256275116692523 1.5426847795896723 0.1064297869201651 -0.681564223943581
P 8.624225502269573 1.678305992487827 7.949835582938516 -0.20357094944955265 -0.12194999404295127 0.6368604532783032
P 1.572618853957451 3.1676043073208016 10.30186554322795 1.7698389156758034 -0.8618756886445608 0.4385245269754448
P 4.106965436277691 6.167522199756437 3.753364098337231 -0.33187156830088005 -0.1956979744593791 0.754130782457398
P 6.812170489482646 4.060150575716189 10.443715922457711 -0.25993338739968136 -0.8154009421217893 -0.004409184811289181
P 6.161205122325519 7.825768542656217 10.132106478115805 1.0072821139382395 -0.5725185966671237 0.7156174568735482
P 2.288286954287164 8.406353917323385 5.877140298347866 0.35516319183896894 -0.7181335384271825 -1.0676698709976775
P 6.9671596688468975 4.181707005767028 1.5989361049264235 -0.051644206538852995 -0.4147505644842986 0.49846234098165765
Ni 5.372498630301681 2.91468691049325 0.7842340732949307 -0.1349201810503741 -0.4111983283566661 -1.5834048830168534
Ni 1.4568027638830656 1.1021723100472973 6.920649397753533 0.4453155817553492 1.1267970161771368 -0.418476350075318
Ni 6.96623148200612 0.51425966625163 8.940574106413075 -0.5185565406283715 1.0939815123090126 1.2504999883554528
Ni 2.7944101166695003 1.6551283560365884 8.985337944402144 -0.14766976740655857 -0.6086965892495775 0.81169572535606
Ni 6.292935561533998 2.0256461244382717 2.774825374329113 1.0699697227754474 0.2549081662709481 -0.097416013457329
Ni 4.157429963543219 7.039341965882054 10.337581812400128 -0.5178440879423791 -0.5723021097809434 -0.5773561272650831
Ni 7.746701442258407 7.209659745403209 0.1085753315640549 1.4764835011722508 0.8443924442581328 0.25862315322869006
Ni 7.5410584936513825 3.694336822177471 8.220162340520403 0.47745282860952615 0.6653634458140024 0.550065152759614
Ni 2.9629886723045398 8.391629089189122 12.170020889593237 0.42309893644899393 -0.12305171174756227 1.1848072741433335
Ni -0.06425666279765062 4.5417533847611145 10.28875467881391 0.13298054082549998 2.600814058086766 0.7237660541226116
Ni 8.705572517917059 2.2051556571399336 5.542568592947872 0.5798302998371885 0.7474315160603514 1.2748671043459077
Ni 3.4065358208776226 2.5815579498816863 11.324442677645694 -0.10419112739763348 0.23889713555467246 -0.15264870867838873
Ni 1.0336667142843439 3.2696958482835092 12.527331370287714 -0.7181679912095438 0.09493181358289458 0.34275864752702906
Ni 3.1050643396024515 8.290952357294394 7.95637704728531 0.6411477677997474 0.05867823056749895 -0.04307060593722905
Ni 5.752820935429239 7.919118906574717 3.5961085210073938 -1.2773407626973807 0.2666989882582891 0.2962311933894511
Ni 3.052815530837179 8.309786439791706 3.588920029328874 0.47127678170580123 -1.0726930352438817 -0.2656229815852909
Ni 3.2824381414180546 4.3245666755421 9.328127257375964 0.1203235141831218 0.0918529175472547 -0.24188758564156404
Ni 6.943630583009345 6.0085409158245735 11.49466403387368 0.2804489908545299 0.2001783788282359 -1.8040674978413704
Ni 0.4294278947660058 -0.07962130904545853 0.22714534298350203 0.3432736394902346 -0.2544605372105682 0.9366533958770837
Ni 4.63976270592895 0.4188213325175191 1.5824495240992305 -0.5601233083265643 -0.08846368936004766 -0.2907755695915185
Ni 5.915145494292444 5.63696879926395 0.3487161914707029 -1.3902543575696766 0.28749381351645326 1.1054638019169993
Ni 7.835654183086625 8.922912423022414 11.196520507941218 -0.07499496544965148 -0.8772796819044568 0.10460121835185857
Ni 0.18728287220509832 4.785226705771833 5.7757147089146095 -0.012860400902435915 -0.20290991882678602 0.32541912780731697
Ni 8.043685185216034 9.038827639846785 2.4598393124217792 -0.7700600520931447 -1.1396720723675922 -0.28789130606518804
P 8.4715522842459 1.8011871163793864 3.49445854465826 -0.16019978155276926 -0.29095966057786665 0.35210306485640647
P 1.7841102808136409 3.3999303747194736 1.5692728755692922 -0.32524634967487853 -0.8800865552256326 -0.9272105052966289
P 4.868934740373526 1.1452564002002414 8.192425774722087 -0.23397990075871317 -0.864471217285879 -0.3375745322229283
P 8.329737951107042 1.5486752380745035 12.476381121947256 1.017402747312009 1.4295197308282026 -0.7198692901713667
P 6.296945689147063 7.805249305409145 1.4557267880695828 -1.0963690387045828 0.0638363777296707 0.41048304745719627
P 1.9854367100349175 3.2036053406111202 5.957133783281908 -1.1239420632268449 -0.5077460802764288 -0.163190488749977
P 7.133404240095906 3.8611310963127647 6.015021101816831 -0.01819106908672996 1.1574828752967679 -0.3432792959171894
P 2.4056440147476934 8.515168054239677 10.093012690225928 -0.30637676646388523 0.659098181630581 -0.07102466794799381
