# total energy = -381169.50032411376 ev
CRYSTAL
PRIMVEC
9.19508214500957 0.00000000000000 0.00000000000000
0.00000000000000 9.19508214500957 0.00000000000000
0.00000000000000 0.00000000000000 13.45793217236431
PRIMCOORD
 96 1
Ni 3.459640455761894 3.4420962390607364 6.603484091394746 0.1433749966859466 0.2784119058198431 -0.11869189211696977
Ni 1.5281215038514744 5.0363119932517915 10.939926201059782 -0.5474205160479153 1.537839535682229 -0.9163650779416928
Ni 5.110516306028697 8.439485449662634 6.595140473871354 0.13021583359616928 -1.0290727274507696 0.41830305772224735
Ni 6.0157261661678065 6.6528534068508165 8.483490354204944 0.34285403545431276 -1.371195798276329 -0.6876875632324995
Ni 4.172103004323615 8.271702786064093 10.888651664586687 -1.539469357976168 -1.4078874972704074 1.690900649307688
Ni 8.044032552562703 4.441408569702803 13.199727975121517 1.5046375950089634 0.04359588231307975 -0.6359471974354144
Ni 4.431404320347007 6.490201599079972 2.1999546625202533 -1.210322901915935 0.9817729139235414 -0.5509753232787091
Ni 8.650880387796597 1.0078637570215614 10.225498663447201 0.06209856910295756 0.7345795997983479 -0.1673397350316602
Ni 8.660130640417858 1.7186344104716398 7.871100642972208 0.24542645203275795 -1.221928347365347 0.8439566422722948
Ni 5.0990776238608575 4.3621009863445845 8.199191287907041 1.8405223982342949 -1.4801858897245024 -0.9590613312586388
Ni 6.1112998498113225 2.3548973134345714 3.129440458986786 -1.5431105542731811 1.7872414274229673 -0.06147301970381671
Ni 9.094350003771497 4.167450292766599 2.0572469878861024 -0.11119404107802787 -0.8620829195593606 -1.8834379666508982
Ni 7.729441207700705 3.7709399612218926 3.893783499933868 -1.7760015928430897 -0.6898735151402249 -0.30737692559362545
Ni 6.419417856854864 1.8537929226783012 9.701607939668325 -0.7161825853483988 -0.8872735598923751 -2.8308378024112084
Ni 0.568865709485745 6.774835366367353 12.594121475974971 0.2034735046397399 1.2598127811159465 -0.18043950563841182
Ni 5.45064239396151 5.841185117204827 4.208160599382271 0.6561990057059149 -1.9632013000234705 0.01608636403890133
Ni 1.9139011745522343 6.07839065087346 1.1930379989579263 1.0192595980150898 -1.5290797872117279 -1.1109608204758286
Ni 0.5638608262832083 8.778995467092836 8.322062411865401 -0.1406282871787449 1.557302529502847 -0.5512347475876829
Ni 6.061296993196599 9.344318311434474 11.554145733636085 1.427621228253909 0.4573689133754575 0.04989354239633343
Ni 1.7569962931116965 7.649949722699916 10.450300031324504 0.8229854393372665 -0.8084139692809948 0.3668789376140004
Ni 8.219952863844956 9.07759656413339 5.9468715521732545 -0.3495664144774818 0.6879017361258346 1.3455148485704571
Ni 4.806692402339161 1.1869563716381435 4.882295287107811 2.2556593995237346 -0.7084222246766896 -2.367466134485097
Ni 4.585182873863858 7.9957675664702625 4.208053016921368 -2.115441460409531 0.05209954890871672 0.26857615067634394
Ni 9.358662639554916 6.783028184543836 9.006586622887921 -1.7665988114719509 -0.9932734583639732 0.7162154954688633
P 6.943390416864687 7.523480563104678 1.8837201564818946 -0.06389859842617382 -0.11125009112694388 0.0824341953365161
Ni 1.7900158330351008 7.637913360193724 2.514587385251829 0.5561769220843067 2.2648210114183445 2.5085363942972667
P 2.0521952097647103 6.233428930641915 8.636116763931096 2.350895374610609 -0.5891932291093273 -0.26824242148600896
Ni 2.3317165113886507 2.997026678795479 10.74819126802474 0.6709818204420444 -1.3451052718368641 0.8166957496738129
P 2.513328578508439 6.737273455872475 4.59029901756015 -0.10551601685664407 1.9896237558810574 0.13080641599231665
P 1.5030465148870846 3.7656527889980107 5.847202378949709 -0.6067793176222066 -1.3002354079073672 -0.5368525107240819
P 7.010817954112897 0.8860169652123138 4.238185301056427 1.8266129872420542 -0.6357394522999826 2.3736720061854926
Ni 1.7108645660730668 1.340679754662224 2.5377084192639145 0.3658109013608023 0.3474663374153435 -0.2917986115393943
Ni 4.125529913342817 1.5687545717772677 10.894640421576973 -0.055294658807246704 -1.5078825843088224 0.3134249315599183
Ni 4.159570107382484 5.822978854590419 9.657762110046836 -0.8252315550589658 1.5316748016324138 1.078581889924491
Ni 5.330104062339146 8.663919014254795 9.116820025968886 1.974033614752284 2.570731893989405 -0.7565604749448132
Ni 7.318908375910052 3.4847246398084124 7.489837596612961 -0.5522562468736618 2.033083626836905 1.5255859151258566
Ni 7.548932550436335 7.653682926044083 9.945318074434649 -1.9342421937869594 3.413877353214314 -0.4815437108494481
Ni 0.0704950166462745 0.2564756672853078 3.8773114298088927 -0.6962305677065042 0.08425119394059684 0.25454898315931646
Ni 6.474763056186239 5.559236313898966 1.2564813071198624 -1.2944038888272547 -0.832149879445354 0.4881100512130562
Ni 2.0564433377080724 8.311324394955752 6.504178123915277 -0.16770508879087892 -0.8788472835018929 0.3751915712447539
Ni 1.0093349701621197 5.392373158513274 3.6637473718008176 1.1281861832151798 0.8444775477727713 0.07950133796043728
Ni 3.230131205834806 8.317475904899712 8.601516589389803 -1.4298480607018988 -0.19020532677592406 -0.5244675067961677
Ni 6.0061265004256645 4.6676351753100205 12.404041657723056 -1.449717288822 0.9849551683062651 -0.13898895180310902
Ni 4.145216584179912 2.262790175753496 1.5304625717613878 1.185307867928836 -1.4992922715366501 0.19869382386290943
Ni 0.05625367344567059 7.190949613009998 5.125587965145503 1.3437487578089695 0.1818171027122288 -1.6707851095047355
Ni 2.425699445823937 3.6441949491627987 2.243315911313569 -1.0392522390869328 0.9163005432523443 -0.01598557679497892
Ni 7.999932938674469 5.9045944035628875 3.3403664479321975 -1.5519770035248754 1.6520885615364966 0.7922602423392678
Ni -0.1533132823611501 0.5490420319249353 13.24217431324305 -0.36019458361528933 -0.3428121264727838 -0.9996819329934784
Ni 0.6914260396681633 3.0622106160043385 3.977585639436492 0.36607546787609857 -1.0964338305042474 0.576248496023201
Ni 2.844397510544688 7.634180156849558 12.891621921684745 -0.5528920806854477 -1.4589699177685198 -0.350164710183113
Ni 8.904545118475227 8.434952274173288 1.7167071212575085 -0.04392601195898886 0.8507042454087735 0.2636026087211525
Ni 1.901598154664316 1.7116737333003738 8.54032331782471 0.887009507597711 -0.9396523306044076 -0.2636188066710686
Ni 1.6105186348048652 5.82954414323016 6.399461770111404 0.473863568596371 0.4301278182713173 0.13996237145997187
Ni 7.420780690811584 7.822927607701054 13.066400203766639 -0.10497942762688373 -0.7458772841993541 -0.4922240733814297
Ni 2.4002474584922795 9.219541046950878 4.491086839918391 0.8510456879085924 -0.9241678618155633 -1.1198380683608005
Ni 2.9008553148136116 2.278881569478352 4.607942541148295 -0.5249603872721862 1.571628716317532 -1.1383618381966008
P 0.34214073042716364 2.4302326213132828 0.6667731049734711 1.6360397356037502 1.2197148846537962 -0.8344890691014919
Ni 3.566367774027267 1.0349340788078332 6.565775059585811 -1.7746769604943953 -0.0860648501105679 3.0261393127631178
P 9.075095501794442 8.471686627276602 11.231370765679735 0.734357970705845 -0.8264988518071636 1.7576058639447212
Ni 8.362265149947582 1.8434024798731083 2.2492108784661435 -0.4039236490721237 -0.8616592017583806 0.8726113298945101
P 5.950698545355132 5.884843367150893 6.4318817906800305 -0.25502900811952856 -0.776186990926489 -0.893527768332203
P 5.293029491197077 1.9647959541334217 12.956475755445192 0.5633500427939782 0.9402753089003871 -0.2899836698178425
P 7.70536848268832 4.255143791026 9.907191585897083 -0.49839112142409003 -1.2184115924613403 -0.8223061538820549
Ni 4.466419193092293 9.232230260288192 13.363215615857841 -0.7032797612438016 0.4723265631265543 1.0003540193598386
Ni 8.019352952129838 2.2706703611376113 5.772120855337745 0.7512385485112675 0.817551927026521 -2.968080460947172
Ni 3.873603053186473 6.111823969492646 7.221890144864152 -0.19903038126672176 0.7423993529530827 -0.5395195160332837
Ni 0.21586374804841002 2.655530523625522 11.929770355634142 1.2334103798630178 0.18855493565669462 0.22821523036079402
Ni 7.920947183190748 6.746367392097551 6.8989395508391445 -0.10441918424803952 0.10454979628863285 0.7114877509758908
Ni 7.170600896259652 2.6978922669914716 11.594425710408144 -0.5593776884097914 0.08765430608487484 1.2307744849020674
Ni 6.737650454239742 3.2181408187392564 1.0748379767208374 -1.1344828148571688 -1.1671134564079964 -0.6128468639725253
Ni 8.700313149319355 4.789276916787802 5.6245002483223425 -0.0017555492385260088 -0.011648382872205746 0.5718807059728086
Ni 5.1085577535353295 3.5801420070557435 10.522757278496998 -0.5525043583287259 1.597116061955359 -0.23524694039659486
Ni 2.0837619267118135 0.1156621795696258 0.623917585697222 0.12649081933609826 0.3663757727253368 0.8918364966727093
Ni 6.18446511830771 1.4217803790354981 6.739275225251847 -0.621586043617736 -0.341538916187315 1.7088868014724634
Ni 6.718083319470318 0.6082721534555978 0.7805585682806723 0.6895639543196059 1.2159441047574542 -2.181566119952746
Ni 3.3182844582006306 4.768302934452719 4.300751398383306 0.13910619410726366 -0.5443729874708431 0.7488286535181942
Ni 4.998658131935628 6.828543841079857 -0.11737430386195045 0.6624236464593882 0.509238091440923 -0.03170838684687442
Ni 2.8590084960468576 3.9631447629536996 8.75664590047133 -1.6507675287322277 1.862532841067115 0.5631368983419076
Ni 2.7545063876565794 2.524712090183508 13.015906329766255 -0.9808594009703366 -1.6655801682650284 -0.3216000111715429
Ni 1.0238356146787468 1.3974226064771305 5.916712602300024 0.534957350583898 0.30630246158252405 1.350681737483377
Ni 1.1145634900405488 4.613761189119202 13.199512810199712 0.9592693335043866 -1.953444734857339 0.2769551187686585
Ni 2.0144218123808773 0.35861739809320325 11.757871973274892 -0.22102539748057418 1.237719805871649 -0.5721064488303695
Ni 6.743581282212618 7.56710203272223 4.860951662471162 1.1430582152310056 0.5681834596268796 -0.12120154591270094
Ni 5.907169026558864 9.241517293237965 2.687118389261521 -1.5530625232795705 -1.4360482759753397 0.43394230692140107
Ni 5.612255157451833 3.709047863415032 5.654283119336519 0.7008914635172833 0.13687961876959007 -0.3081060904501662
Ni 0.06908724957240282 4.907525672960172 7.936532847398537 -0.0932701096097555 -1.8349091658125753 0.05116572424053768
Ni 8.628380021828185 6.217806486105611 1.1592598647589214 2.1000372100393188 0.5002942519840738 -1.1049336404451422
Ni 8.127983652395807 5.945751591170004 11.110088551913174 0.17692352206535336 -1.8619702836954257 1.4897539930289119
P 4.521129931756803 4.380858953886702 2.4631914736946388 0.656570787223037 -1.0358121030571321 -0.3113855325323863
Ni 3.6629988921155587 5.711157460825863 11.886867021930824 -0.5927349237139985 -0.5417157523536542 -0.6980431954352107
P 5.9548363323129525 6.769465438404315 11.371467956497606 -0.3558712736495871 0.17202042833678116 -0.4717380376129359
Ni 0.40175428688258413 3.197212811814815 9.537582386627484 -0.9651954691808343 0.30167601855410625 0.06755290734930947
P 7.120119895374247 8.698832741096668 7.812329356039758 0.1915991217996571 0.3906382448171272 0.34101286848051593
P 3.640424965490118 -0.06587264886028303 2.449814468214113 -1.0357090018203647 0.3166742917351514 -0.49024226706471047
P 4.182281960239852 2.2832492334893844 8.647838654628494 0.6005451637870367 -1.0358383283093775 -0.02650318849685113
Ni 3.7012136534415596 4.370321389767454 0.25278200279429375 1.1982837113632137 1.4483402059688153 1.1765378350456899
