# total energy = -381165.92090997205 ev
CRYSTAL
PRIMVEC
9.25354629415030 0.00000000000000 0.00000000000000

0.00000000000000 9.25354629415030 0.00000000000000

0.00000000000000 0.00000000000000 13.54350036427973

PRIMCOORD
 96 1
Ni 5.302892681230975 7.0355914382370734 3.4596464350764617 -0.6434041679340918 0.5718909903854538 1.8020183286218254
Ni 1.9781490687845866 4.775190704612997 5.997238069147507 -1.4272095946377872 0.7000324579510977 1.530469725580719
Ni 4.84430544084951 4.992769335370682 2.2781925268175356 -0.8289241734192047 0.7115584563128262 -0.5175651232493796
Ni 0.9127179729343714 2.8844136186300116 2.1766431859508697 -0.8556950137551456 -0.8039551621786928 0.6858188854548769
Ni 5.91838305022756 5.193136370278867 4.95962961052347 -3.5858836404837082 0.9703798415952514 2.746849889434327
Ni 4.416458480797099 7.54168638458162 5.627392336398679 -0.1495736692974908 1.5938787859649841 0.10253945072682341
Ni 7.664860337459414 7.780446382489578 3.945262358423951 -1.6516792419132198 0.9029094666574191 1.0077333425430453
Ni 3.7868286932746873 3.4689786363744304 7.699669402033105 0.04616724258468178 -0.5092992836961616 0.9107212493923542
Ni 1.5359683657370806 7.326680239655204 9.32422566653664 0.30156623244911934 -0.1408350038729123 0.5424688284695949
Ni 5.129481226274184 0.09034977395448865 3.3642053600271375 -0.8111709632008416 0.4727955323431729 1.1660901573498046
Ni 8.293148360789257 7.111146642597916 9.214334253810659 1.120964211545444 -0.7490302280060391 2.0154355747378387
Ni 7.470961531314025 8.953444400271476 12.345441860822477 -0.7653988991720495 0.7770040875111458 0.4738103467609324
Ni 3.196554237552235 1.2100862307737235 12.518473920386887 0.1884718890245851 0.5513450479133021 0.4852309298930482
Ni 1.8202835713692795 0.3572710888779213 10.126949512382701 0.26445210120564133 0.8984596584161817 1.4187408950451437
Ni 6.226674193949036 2.0469491844518086 12.161806162718316 0.02585758449305224 0.5227497527741126 1.4779081494339192
Ni 0.6073657554719287 4.433272174161906 3.9761146066614876 0.8187750008003446 -0.5357721331757095 -0.48176842526574454
Ni 5.683925951281978 2.3429331117862766 5.712621197910633 -1.3553014956435754 1.0755446457600637 -0.9122770239152482
Ni 5.9588025398354185 6.669160264019678 12.145756812265963 -0.48804165986896597 2.3170321462042613 -1.3031901196603168
Ni 8.648540054442966 7.813435274534453 0.4357568913062573 0.4759567036799738 -1.128053257181741 -0.005459480452674468
Ni 3.8295708229676126 9.01777505314552 9.274792297618568 2.297949932761829 0.3995530308082538 0.5446933469247394
Ni 8.730267374089625 4.558370864640073 1.6863014765816928 -0.10626009411152022 2.502954272223799 -0.21952438745501549
Ni 3.1031859568417755 6.127568714622076 4.355616414823731 -0.12773703303837355 -0.4411313684706726 -0.24098050044626237
Ni 8.34800338239992 4.2182012544124 11.901106932229936 0.29498600812844034 -0.1388871361179221 -1.310756362043349
Ni 0.8474980542747684 0.4681674367164046 12.666613015437996 -0.4545831231002042 0.8959404915387538 0.2616390572368784
P 4.820727405244926 9.235187120072405 11.624630405546187 0.6018908791816537 -0.7118050251059934 -0.5992310729613035
Ni 6.505242947418579 0.8084231049233255 10.386198712188488 -0.6762430688409837 -1.780794643356359 -1.2529438219102549
P 1.7513816666943454 5.459351639630624 8.17232388328038 0.19890388299118647 -0.5453163252207189 0.20089006018327984
Ni 4.314660219538846 5.842485464658958 13.417220889335466 -0.554414173756929 -1.2579960396221819 -0.019900595578668953
P 8.05081649406522 2.723883099921878 2.4340240947878327 -1.2130037911822076 -0.7885007752968355 1.1570673850259041
P 3.14886146066604 3.577124830295456 12.600493652092064 0.7479436798100796 0.8038201792627253 -1.156737512490311
P 1.2076340410424775 6.490150413638722 0.5758916689327326 -0.16542554872808285 -0.16340286187109923 -1.0545081368047389
Ni 9.014564072629511 0.822127606779836 1.340061540075916 -0.2639083128870294 0.38042248062639 -0.04288625784056485
Ni 3.395126084506226 4.007590543909915 4.390207095708148 1.0359064625431516 -2.065166880524695 -1.0730442479357132
Ni 0.3344462919304068 7.115875204683451 7.395767215253251 0.4259158370724987 -1.8854056319002306 -2.586507925876739
Ni 5.622019727500711 8.179690631374891 7.530768125472575 -1.1089324771918903 -1.2656568986015493 1.4022292705433659
Ni 4.680045743040652 2.441742477636256 10.175055922782056 -0.17826975168060266 0.014473768136142814 0.95884407304151
Ni 5.0801690788107505 5.485816781635769 8.73888890304284 0.8010786119618462 -0.32869085658005326 0.9721737002708805
Ni 3.3519953058747634 7.230924544036587 8.026528711470498 1.4411526870814404 -2.246654110701331 -0.5136259360959735
Ni 4.84481438588807 3.1517763277050683 0.29501693176120264 0.33715698506953545 1.0077492833826451 -0.19778339623349808
Ni 4.144968690136624 0.7593691313976346 6.999226852554619 0.18626125452651146 0.976901701874169 -0.6190931019925531
Ni 7.302667287381304 6.0039598450749665 7.594382553874174 -2.253827231411002 0.11284288953536051 -2.6235019866025846
Ni 1.4982694186989822 4.160431365762707 0.34564863490643094 -0.22656072547650657 0.43715695720395675 -1.1840547122480254
Ni 8.834573346356057 4.628225884569039 8.364736569913173 1.4940580197209044 -0.2466243289956011 0.3844711967744669
Ni 2.0851385694361566 5.772926558206973 12.051493713642252 0.8157950922364144 -0.5235537367326467 1.1315674409825867
Ni 1.0026402330564692 2.4094568550992097 9.232374042041089 1.7577616727962952 1.6371836194002063 -0.977591271742026
Ni 8.945458589939154 6.008179462121941 5.2576271095014055 -1.2894830544868696 0.3174991016292919 1.1987467670425613
Ni 1.1766809291518443 7.770295242356835 11.45194998073569 0.7723071962561087 -1.1535238906490197 1.5319838482324004
Ni 1.467529138369929 8.299921956575188 1.6904183792663392 1.1170036842357989 1.110097701144585 -0.3627957686835623
Ni 5.031236326739699 8.799881801818543 0.23327171968304442 0.7391592487492302 -0.29027651846791297 -0.9304680930019781
Ni 7.835375432469489 2.9832322380261465 0.19291515418904454 0.2653653570485301 -1.2824228052059785 -0.1283093606020758
Ni 6.398817913082503 1.6258850737314852 1.4890269767987236 1.492875826487345 1.3736542871191504 -0.49705157667706
Ni 8.13062832965766 2.88073996080622 7.167640467232745 -1.9139446198801875 -0.4996782156666298 -0.5980715054355635
Ni 6.160696409859286 7.707408142683071 9.841912530150363 -0.9435899750959169 -0.25157267413981194 0.6834174751022358
Ni 3.7535714483912983 7.274073829760361 1.6102271482815178 0.17944757403878772 0.21645603294233692 0.9869639712061776
Ni 7.051951707840254 1.213880184697538 3.8947990698187556 0.6336380896862636 0.12847005454965615 -0.45163381066389313
Ni 2.8286887636807156 7.994767765000477 13.073919879088722 0.13446663845272325 -0.27946785788818324 -0.34791165248287825
P 5.898117784146698 4.026190171682762 6.963594222373076 0.3856459338088584 0.8256241625116942 1.0631521856329817
Ni 0.5071405970601355 5.401776075450201 10.383314381851775 1.2075432822882688 -0.4561599806690208 -0.6150988932314956
P 3.128179785008173 1.7417764857847857 8.974004854474703 -0.6737958928520719 0.7723938424326439 -1.135993080854108
Ni 8.92820997990503 8.932327807944294 10.455352313318858 -1.9839958681713186 1.0150869546946388 0.23070842909629297
P 7.483675903731881 5.265045677454387 10.075443349125765 -0.8729735983299353 -0.13212024970773376 0.3511252743241695
P 2.1869090700559424 1.534626601544512 1.0791383737705726 -0.9017840948037243 -1.2657373741304976 -1.81198058204086
P 3.687676946216949 1.422455115045781 4.6516780719459065 2.872989496078594 -0.9724817184296026 0.17454962251653808
Ni 2.24122738598958 1.2209128797758284 3.2106631193757473 -0.9409589652309731 -0.3305173682658308 0.27434750594248236
Ni 0.1802331691827328 6.740727189987438 3.0061560479175267 0.8507916629162573 -0.7303277665005293 -0.5392901736312969
Ni 0.2208081183660059 9.09081329295203 3.5237476000058474 0.27557623614326093 0.3831848738628756 -0.36920270065117056
Ni 6.549641461873366 0.40887348901487675 6.1373858017386 1.3194526042657664 -1.4077640843186658 -1.130384476418079
Ni 0.5394872930018089 9.18447768713947 8.166906857360868 2.182859641953189 2.2848025967465944 0.8194159768184534
Ni 6.874394664205734 3.0906103876162536 9.544782088447212 0.028708166567969914 3.5800714046773057 1.4483594892425251
Ni 5.515816778272372 4.3584017322165804 11.623885495080655 -0.28550789343467603 -0.01566753133392786 -0.7524184277519816
Ni 2.3794198442779853 8.71701629599474 6.785456056039981 -1.8298147820088033 -0.33847261855716543 -1.9833070696344102
Ni 6.864780229750018 8.782790502069068 1.7440232467913763 0.8347760042142914 -2.274121462883664 0.4376570367688269
Ni 3.1303081006239717 3.260070578364584 2.085116360925383 1.7470489143644814 1.1841483004030962 0.18697319299187154
Ni 3.1101538770969763 4.332991494473179 10.342941159974696 0.25952252511450785 0.03416327614527019 -0.5304787459872541
Ni 7.621544487904838 3.8526584206259473 4.883190692504763 1.4908251146059035 -2.0427939121461334 1.0017606698993777
Ni 4.160440619308862 5.517704501688123 6.592935102917167 -0.1370418553790672 -0.6018857369753312 -0.3078484659134053
Ni 2.1531058659493705 5.488972240874845 2.1829143141805507 0.45526677943079014 -0.3257549138801809 0.8781381732500102
Ni 3.805271010762888 6.861402685403207 10.363350781375587 0.07814610948412347 -0.1964489936927907 1.3164091894537524
Ni 8.29894108068269 6.805677830453912 11.610097711308745 -0.8872743312233236 -0.3231226184636565 0.9189536646044755
Ni 5.639694000657993 3.3147035148675132 3.5082405073582175 0.2948908773114728 -1.6904663899837469 -0.7433784290369003
Ni 8.318900979740418 1.5145464063867622 9.254977679235482 0.11333319890821772 -0.36597648040438907 -0.6910032578692938
Ni 7.277386599284082 5.450301671490403 3.4046868483942387 1.3467538631838807 0.9335390186178181 -3.4747438496823833
Ni 0.013865513559618776 9.010622061967206 5.8252757195186895 -0.9373689338868696 -0.3142865082292652 -0.0499598768578946
Ni 4.308682428722299 1.272769752432064 1.6318425067464895 -2.429057682044649 -0.4927100118789127 -0.11785628358955187
Ni 6.977830803133536 5.1694010243896376 13.385366482049273 -0.48630307991130445 0.6509251589014854 2.455430772721539
Ni 9.111791082086876 2.0559528848612514 4.486230218810664 1.6285853362082339 -0.08868300445970533 0.5529237052543317
Ni 5.895332466753849 1.7377141790224575 8.156518826446538 -0.15622485606542127 -0.8265718711369443 -0.9247301620769366
Ni 7.714089203007447 8.830640589239907 7.961668755756349 -1.60665948266942 0.7050551079766696 -0.10758086980547278
P 8.59876522967175 1.9934174199414014 11.58515107622774 -0.49194716557095924 -0.9161899858164092 0.116826813883773
Ni 2.4863075559218433 2.4491268074684607 5.954223885197605 -1.8202196821212007 -0.32687102976249516 0.6381578319334881
P 0.4904601547599694 1.6630565686387118 6.721273459904426 1.2406269522161149 -0.07901257124947683 -0.18562722048693836
Ni 2.9275629043537847 8.25574552722814 3.8601547183666356 -0.39368063118787683 1.803144728916785 -0.550635166330471
P 6.579983839717725 7.248950451947785 5.767079242391221 0.3043653924608113 0.06321545631622016 -0.02434860404769355
P 6.208565004122438 6.628398393204061 1.7049233128653132 1.142083510022562 -0.351810216206336 -2.852468750417423
P 1.3787043488218906 7.296883821034026 5.0946851166651115 -0.04027298858743387 0.7175203303232158 0.16983267665684298
Ni 1.2713724669625615 3.197729437914002 11.495519377454931 -0.15967990449355726 -0.45420388538391454 0.2922632098806386
