# total energy = -340889.5218021192 ev
CRYSTAL
PRIMVEC
9.06457827090372 0.00000000000000 0.00000000000000
0.00000000000000 9.06457827090372 0.00000000000000
0.00000000000000 0.00000000000000 13.26692656108137
PRIMCOORD
 96 1
Ni 6.3708573788606975 2.056227010138324 11.124835154428322 0.925025324719852 -0.2924591279415286 -0.3215197927529108
Ni 4.521184908357988 0.652934246118786 6.004517896408002 -0.5069834910787914 -1.770542883721364 -0.728067509711443
Ni 2.81328243828978 1.5797837241512473 4.522496552799348 -0.45345775124650944 -0.27026459412236037 1.3557992612156005
Ni 3.38421488569177 4.459690810982817 4.5728575354345145 0.3704820815842265 0.10156705951122509 0.16596470906100447
Ni 3.926838655897025 2.6294981186728017 2.707686449411158 0.1497428478855034 0.7309319757434315 -1.2188972738485073
Ni 5.403630644438502 4.55558498199283 2.4771606331675486 -0.3661700844724339 -0.07893800925779954 -0.1336181744094989
Ni 5.553168988247196 4.370812623370266 11.58912465418889 -0.32138995204326587 1.5470677391487164 -0.5861814388661969
Ni 5.643733187373866 8.36533648343893 12.321963155667659 0.15473053090808192 -1.4067796089182094 -0.1349114392996257
Ni 2.132151915741866 6.475217865753435 0.11715695170177833 -1.084652778708919 -0.1791675809045237 1.0021993000986935
Ni 3.118187649582322 1.4597959047297955 0.34051993838379263 -1.3694016824903836 1.3392020189785518 0.577519906536457
Ni 7.903142714119566 9.03537196247458 6.59329124629434 -1.001259047672611 -1.0095179452472935 -0.06806815642283116
Ni 8.929642724298875 2.498342739114822 0.9835212198941307 -0.16169770625453445 0.3045142593338498 1.2510152374289745
Ni 6.964324367252469 0.8138169093356509 4.686010663019163 -1.3962833373725758 0.4335237313267437 -1.0812905471049055
Ni 0.8019350604501301 7.629818492693636 2.2960005088910944 -0.5909418363693179 -0.8722014960506012 0.16081581787021337
Ni 7.832520586665269 4.125797079141072 3.4933279308471565 0.8081236917340857 -0.5417736021747831 0.6674835774807989
Ni 7.8052815296764155 3.804439658718823 12.377338662870626 0.7881130529401137 0.2554432128388117 0.01631056423456546
Ni 8.319823237135756 7.563166650417748 8.9253515530581 -1.4849074635698878 -1.1686278361699938 -0.108779003878632
Ni 6.882144902806228 1.0420095031935925 0.17886587957632832 1.1287194300108303 -0.23997288511735443 0.28228321584979127
Ni 1.5369717221018768 6.875990054321892 8.979732676050856 2.106398633480972 -1.2239885723284856 0.5582219775387934
Ni 0.528646190878528 4.964007674421051 1.119101019989968 -0.5661193780089993 -0.40450266150404535 0.8129085147172387
Ni 6.343799613432502 2.022751523462837 6.804500446749846 1.828834420373405 -0.15697099020282643 0.6563555858884373
Ni 3.4227665360656796 4.411004962368129 0.285562308228144 0.3146595752979678 0.5067896299004304 -0.05138786755367279
Ni 6.252999735276976 5.6679356107217 4.689844979527078 -1.0036987674623552 -0.27245080314040176 -0.1571162575314391
Ni 5.63313669565341 2.9040188643990748 8.868767737603351 0.45857218965493923 0.19752294348325983 1.5295245880586303
P 0.19767487899458872 5.704157664541154 12.319522064803401 1.1778907495291584 -1.874993178317655 -1.191252258437729
P 4.344579734543063 6.238831799811559 12.480024922200688 -1.2578307176889112 -0.4543632937799143 -1.0817579736596272
P 2.3610143819164384 8.555592911771397 1.2893981539517991 1.897897079499022 -0.2457010458503833 -1.2977167552505715
P 6.078089637554204 7.924281310092281 5.708333715640911 0.8665949484971012 -0.5308456424083696 -0.5223730861609842
P 4.886985954875529 1.3291572061196901 12.477491372640493 -0.02651064469601886 -1.097127771247478 0.13881745922225125
P 4.18255946678307 6.297370844748005 8.09003890337524 -0.748960294000052 -1.4684668015153615 -0.1754086280827237
P 4.868050051364808 1.0620240914902281 3.804290999639083 0.6669953249904707 -0.2616100037711559 -1.0400022298790796
P 0.32272345233180677 5.861020187400429 3.334111337072738 0.03359557656725827 -1.0896977973319941 0.5352908226639168
Ni 0.4392313802464297 9.377849849713476 4.523994927548186 1.251002639023484 -2.4216328503354876 1.8148633029052936
Ni 1.8182546430406903 6.440745275494329 4.8627264246860875 0.38528417959406547 1.1510594882689273 -1.274438501448921
Ni 6.1189074324363375 5.648899996852617 9.229521627072174 0.13547656777447636 0.30640042061296907 0.2471802014990711
Ni 8.972917019827921 2.3494207866123635 9.919481955081933 0.08084448225189303 0.502022033308458 -0.04774410015349842
Ni 2.2487405184009814 5.2558055058780235 6.892950786279245 2.06996815856808 2.0960337453068805 0.5851432274096696
Ni 0.8743456291503178 0.07921534742948315 9.127910426696813 -0.06389397044048352 1.0128783770790943 0.4717133550225876
Ni 1.9185451343966582 1.1464787650227255 11.373537262543495 -0.5700012295619087 0.0773837773968022 -0.4309492857313481
Ni 4.26442167099816 6.879851564563906 1.3037691359651533 -0.4407734709106215 0.4638876883305817 0.8646851330688979
Ni 5.684097753354355 7.902163739692013 7.905230286440543 -0.3965499823158719 0.8562629704434737 0.551347104795831
Ni 4.9759457236903755 2.9190660639336827 5.188509172103997 0.6149507976894054 0.08687629026826973 -1.6117710928643725
Ni 0.6995053286783989 7.791022948430669 6.801196408056856 1.1348597385806132 -0.7171984282074229 -0.40087200672999346
Ni 5.542200848827392 4.608585569751177 6.948765019059002 -1.4726307030850638 -0.04061417397693651 0.2602118378720486
Ni 0.7321378095968265 7.514798062034212 11.251268795288965 0.7125814982607018 0.431486903402373 -0.32554999695822645
Ni 4.495930993958337 0.5646099042240452 10.36652428221931 0.5952183522574847 -0.7651155636036759 0.025987425202697177
Ni 7.914301209678063 7.273426478174242 4.550290361963815 1.0199427401250434 1.2586041055198258 -0.09494441198838488
Ni 7.1290005563761 6.2303382901947355 6.95594235194545 1.618561890533961 1.2775526215978708 -0.35528866167323975
Ni 2.5807397534338516 5.24737544830743 2.49463351378376 -0.42974832344471153 0.4643782548137551 -0.09424661459041189
Ni 2.2818624865331856 5.441828776269127 11.195919575362296 0.40058815694098754 0.11085928344642841 0.23603215530205154
Ni 1.1837613744720292 3.2882391334794616 3.6679869397584177 0.26738521569203627 0.6399542617122785 -0.25487654170206425
Ni 1.6578478701705528 1.1147255481734888 2.477836850688803 -0.6803401217284928 0.981208042559007 -0.47202805804952896
Ni 1.0803164099606133 3.508689671239506 7.777257480229912 -0.85116472998496 -1.2480756951846765 1.9653366011989184
Ni 3.915000316986062 2.967869752062798 7.3929946076327715 -1.7969838515217116 0.13215624515199176 -1.622733248302831
Ni 4.090762485043927 6.66628104153083 5.706768263014629 0.5674584085353969 0.9365685494727614 0.5208617917227805
Ni 0.5624434700741829 9.337965706368731 13.598731633046224 0.08077531957685444 0.3470325923120346 -0.7843430443747201
P 0.30107995936265963 5.74986126698302 7.711202087188589 -1.6701924702260589 -0.4289445965964935 0.20218383929403888
P 8.780892998779041 1.3604209357551502 7.82245799859095 1.3608985301153789 2.4994632283514053 -0.5796930029283759
P 1.8948503274186665 3.4143002201829544 10.248886001423983 0.20685321974525023 -0.00031521724757365067 -0.35243268028168334
P 4.395504533931876 6.202963264535388 3.5035301134231815 -0.8416081966447764 -0.2581438995994264 -0.1554866923478161
P 7.205016107759971 3.8653354939438223 10.19427917043821 -0.43014633021407855 0.7787107857896073 -0.6986201509846033
P 6.462826587582467 7.9736198083253385 10.092774025625832 -0.10272585570601662 -0.2703687238003924 0.21072710087835966
P 2.390945618581063 8.51808368787127 5.43783401673003 -0.15607496075111832 0.5806314555822452 1.3856325425269491
P 7.39074024707599 4.235170277686002 1.286487517945436 -1.0233563937922827 -1.420568949392818 -0.42034322808072766
Ni 5.266800839031927 3.0392623686498914 0.38004149860722164 0.9459394491647 0.23609848976361275 0.540433800317437
Ni 1.640652365642148 1.2340244596644407 6.8810770955139535 0.8216579787750946 -0.31334008515559586 -0.858612701622573
Ni 7.204798557887182 0.7644330882124304 8.960972625353975 -2.248174146890283 -0.08337084821817255 0.7911983767336567
Ni 2.865421891135001 1.682539780732163 9.069032366541938 -1.286928920606448 0.6201881348289449 0.7390335218046434
Ni 6.6592287998212365 2.333077352419051 2.2535601545410726 0.1485213167735765 -0.7037641570793879 1.040710054579382
Ni 4.412981040379301 7.0188115458082105 10.37440502636111 -0.4022262067650428 -0.10034655684056266 -0.13491272485120637
Ni 8.576649926541815 7.308152876618268 0.06147324884569468 -1.4775327683723716 1.1642677594290853 1.8325476075589344
Ni 7.7452649585206075 4.130619434654573 7.992898352885702 0.37501622200915413 -0.4117138345405038 0.05500155304686011
Ni 3.041954548325662 8.35096912725679 12.520157434983533 1.439493811321779 0.26694967081651444 -1.4166271911362507
Ni 0.10798541164809357 5.088591234905181 10.107248343828761 -0.7050229691871536 -0.7800112497685857 -0.4105519530219188
Ni 8.939387145684236 2.515121273053713 5.6403013381306115 -0.6815634526126326 0.21657764612186572 0.3149701645598511
Ni 3.746426359308285 2.940168401594266 11.587585488838906 -0.898882347775897 -0.26616728412453516 -0.7395927367422229
Ni 1.4031604211802575 3.384731566639646 12.48838336960482 -0.1496286909051423 0.4683192417393741 0.028096758236216126
Ni 3.0962966936328766 8.510251892450848 7.895453232574261 0.2717542912940094 -1.0222945281866715 -0.4531854714217292
Ni 5.735965268858589 7.916331675157432 3.322754327255322 0.16699057922235755 0.46949680698724305 0.5465584251579361
Ni 2.9617058390004285 8.216115399861387 3.35184890336751 1.6047362975047783 -0.6787318967011085 0.38090687646197624
Ni 3.7195680145968124 4.37385832158932 9.565493866656864 0.6602544067222114 0.6583715878772016 -1.1579096784215415
Ni 7.251426747288401 6.425335492838406 11.489383476261716 0.17392150201423595 -0.3797424238402299 -1.1477319665575911
Ni 8.036319494578883 9.025092730985275 2.5285169064707276 -1.055286152621344 -0.7489271267692714 -1.085756810406375
Ni 4.712066792574723 0.193836030197657 1.5930796472099003 0.474213495736622 0.7367809783250407 -0.03923297735869373
Ni 6.15938077335322 5.793044916731739 0.29227734763491375 0.14652536938947022 -0.024133402713093922 -0.6971134845320897
Ni 8.023511245818401 9.147700213458233 11.173842795563178 0.2328563286772312 -0.14721082549226905 0.5498931459581239
Ni -0.0567569488951786 5.301944208065468 5.5146635672212545 -0.9672189273687666 -1.578324640280469 0.5432278181228063
Ni 7.367127021300294 6.132649332734209 2.2448436563046394 1.1818358502198356 1.719255289190981 1.1877766411843027
P 8.627819469537517 1.7272553441684417 3.4159545056739575 -0.9166748958726277 3.3521526225110074 -0.9724364670139641
P 2.073422514666729 3.201790252779727 1.562605442321105 -0.48420043174600474 -0.04742194092738929 -0.43441616123402604
P 4.65922936722097 0.9507654607144556 8.079332730260584 1.396027769718344 1.333914288217051 1.1709832237760478
P 8.953953922583102 1.8107401078514191 12.117453584836268 -0.8110555206689 -0.5747893949791714 0.7665399547550282
P 6.635153280565864 7.95807405699892 1.1192505855275108 -0.5159113896960404 0.250705183933194 -0.0810717677713507
P 2.017330905799165 3.4459355975177632 5.881865091044879 0.04201054010383087 -1.9992864757818016 -1.0666103193849115
P 7.1194374265513956 3.8469797234272067 5.641959249452828 -0.43833555089309023 -0.13409871359034325 0.27236647095671157
P 2.5951977553963217 8.376241170812504 10.200766688936353 0.04431810519108497 0.5745662232247718 0.7578105453018303
