# total energy = -340892.4085317087 ev
CRYSTAL
PRIMVEC
9.08098009790826 0.00000000000000 0.00000000000000
0.00000000000000 9.08098009790826 0.00000000000000
0.00000000000000 0.00000000000000 13.29093229282770
PRIMCOORD
 96 1
Ni 6.438923270126174 1.945754316048556 11.492349634615273 0.007631548403328792 1.0966582878102273 -0.5012352757411046
Ni 4.411349325354588 0.28870705284982623 5.67505485312877 1.400556510826633 -0.138888935890135 0.9985439627342931
Ni 2.863805058044499 1.9111557827039671 4.6416584127890905 -0.516310167796356 -0.6332308269455159 0.16418139190833658
Ni 3.0655662690287704 4.3133564714644415 4.8796590901823516 1.0172119714574417 0.3849885027305176 -0.10803595506502041
Ni 5.337536625323432 4.546401658136929 2.6364027922697346 -1.0199339983742952 -0.8312211969834975 -0.48819104096263666
Ni 7.431991986914675 5.87831805818527 2.7255979928516822 -0.07735472393107969 0.3929902899890716 -0.8886444720979727
Ni 5.181761496453858 4.559196758788511 11.763218918685892 -0.9599925848236562 0.8621639093089409 -0.5824361128911517
Ni 5.677918994183069 7.816753104450167 12.657459331435247 -0.766241449678003 1.1222423069269187 -0.7921663970738809
Ni 2.0126357328682136 6.570797259950352 0.5239153289298425 -0.6325988497884718 0.097899895072283 -0.7668150627932859
Ni 2.651900392533744 1.5354756450489444 0.1708232206294996 0.4044949481945614 -0.11690137587545027 1.0625150662696152
Ni 0.3462514061563853 9.063853152414923 4.955962931725985 0.7347117545008378 -0.05288656358638634 -0.345719787037882
Ni 8.749805625208648 2.1545442054603106 1.379917551598514 0.36597056686711815 0.7091544748570239 -0.6872427623855971
Ni 6.873775072682336 0.7362976539823107 4.738882107683361 -0.3876421383032808 0.08974589850658092 0.17063846038759
Ni 1.0359945086834812 7.502914439781143 2.61794116017274 0.029283579455465693 -0.3701028438679368 0.6815984196156261
Ni 7.673754914272415 3.874509037760873 3.957534620612029 -0.041601991811502544 -1.1101051573437526 -0.2636535165637459
Ni 7.678813020065837 3.9135572512468917 12.597065366642195 0.9325105773533036 -0.9396667287821107 0.29972969346101286
Ni 7.875543368196327 8.932551264323214 7.251917972080942 0.03215935834136397 -0.23754807772594574 -1.059379348854111
Ni 7.012114720181407 0.5660065787738067 0.3764511128468746 -0.35005363852654553 -0.09207557508102207 0.40237738763092634
Ni 1.5730799827339685 6.850364306550485 9.029208306072944 1.8667371089564497 -0.5784501316602103 0.5027118602866311
Ni 9.130380411019242 4.671492155990397 1.2227893567267505 0.7893924338731696 0.3362946370692401 0.9528837416930169
Ni 6.449084886612419 1.9564698723075098 7.025121407664204 -0.7283084220776554 0.3617421306080673 -0.24566042242043498
Ni 3.5585817477193395 4.3619851187243555 0.5329082233054715 -0.8006947462598663 -0.5514301514279406 0.19494207012996106
Ni 5.884738310960762 5.483785806298393 4.778130102726751 1.5894667729402174 0.7624555002730095 1.1067699223229328
Ni 5.179818166759437 2.932793262196426 9.282014613063321 0.8714260513371572 -0.06963447246868652 0.43873407188308955
P 0.1511247590727852 5.63983336456438 12.527089151879274 0.40297722599845437 -0.2278316217691302 0.14928930528785256
P 3.9735371233573926 6.197505420003893 12.910332837676739 0.6876603095389898 0.6828775434383658 -1.5438939694064249
P 2.6531626487371294 8.613636331901008 1.4445114695862815 -1.0182347562950012 -0.36056687935304355 -0.25204421445959174
P 6.455141900192692 7.853921555100929 5.748381041369597 -1.4064553928095713 0.18304171914794928 1.6164998657986096
P 4.9129463300322005 1.2166333604657804 12.868585756970244 -0.6503937118780476 -1.386615989486141 0.05101582892623473
P 3.6775970700327725 6.498494498142054 8.15127551699294 0.8682473964988595 -1.4573735198156772 0.8258275367717519
P 4.879800753468486 1.3646805754570743 3.8099387303207948 0.058632464931228055 -0.9260504235502568 -0.07556137947608277
P 0.3061289127505069 5.598723768645495 3.7838354536543855 0.8710190457067256 -0.10133745999892226 -2.2322011685007945
Ni 1.4509498843215345 1.013128601344459 2.6257162951463977 0.5849172274417928 0.6051353542608804 -0.10391113426336943
Ni 1.942857483466686 6.552326546873476 4.959803278117435 -0.1990380945762056 0.5245011882475806 -1.157936932115051
Ni 5.750221755991368 5.519928106222661 9.320545210696155 0.3515775313702396 0.6094879748026213 -0.327680670147984
Ni 8.447617857726264 2.5143326283245115 10.071483220441758 0.8750675047444866 -0.35207761093510975 2.5099013929655936
Ni 2.1872720569495225 5.217622286001832 7.072278028085494 0.48237186317769837 0.6513473340405685 -0.11189106714505247
Ni 0.4463501392808124 -0.08919066009200717 9.234021634395042 0.3930021170636135 1.1953256571761544 -0.26516275411942075
Ni 1.3803452657508841 1.0833518187601294 11.183415607179688 -0.14022179576894558 1.0061886237637445 0.43949563263946245
Ni 4.294776786629001 6.904595918396649 1.7071806288248377 -0.5399409198414185 -0.33720789291212894 0.1474414534458364
Ni 5.68121538987968 7.885278178628191 7.9875708764917395 -0.6499823353722418 -0.09824673688874047 -0.11735414714215273
Ni 5.365033832401493 3.1595090058922275 5.037116924623776 -0.6720316018627975 -0.7904216464686322 -0.6252526938360458
Ni 0.6990683607663499 7.530048407663985 6.883825901214039 -0.20028148006500346 -0.13988292437228814 -0.03832486372212754
Ni 4.947127138302288 4.78430516904547 7.11064880047243 0.4842665090972499 -1.0449264066535744 0.29301062956962437
Ni 8.016107855766114 7.260125361696909 9.119506845710369 -0.8291668855576301 -0.7425430776197985 0.21933026916633838
Ni 4.6418790806001855 0.5656188209329106 10.715361925984555 -0.3110088659192579 -1.1939460032198081 -0.81255113137782
Ni 7.995857270632667 7.059363058499491 4.650922828463146 1.1555473488369519 0.6166464402242735 0.08528786273522732
Ni 7.248165711194332 6.029289348698075 7.0824714280013215 0.007350269717484116 -0.07338005555404782 -0.5785097812535521
Ni 2.2980509305113697 5.2047908614307286 2.5265392814798386 0.1348062811803291 -0.05321155102597288 0.8753027606837442
Ni 2.4574130464337287 5.007542897447052 11.428167993114078 -0.1557098641022157 1.5987726237221755 1.0534843235259146
Ni 1.0237533478046084 3.4012537712902056 3.7306318087306907 0.16456731449284562 -0.07487798025581298 -0.19571262974739842
Ni 3.830865848455337 2.5294070549260907 2.3263654257786737 -0.3072946502924643 0.3755924062275983 -0.31718054194760853
Ni 1.2149624601677738 3.436324515588579 8.31977763916499 -1.1345535201941042 -0.3002716820074119 0.7634839415375239
Ni 3.7138846656351285 2.62146094797441 6.9105666626680575 0.5783871396327588 0.14816059100004805 0.3753121559830182
Ni 4.105474680040734 6.593763058068059 5.977370662427467 0.2646385061848346 2.024815987511474 -0.15604822127824092
Ni 0.41820909072922546 7.256901613839343 11.162137055123774 0.16459765351014877 0.01675305108862276 0.5067865445766369
P 0.20736326747253275 5.598324205530754 7.969016618399964 -1.3944244297869661 -0.17828183586546067 0.08374108707339771
P 8.598216828063968 1.7065249820774677 8.158532128015421 -0.13209582422770152 -0.7495807011928703 -0.9016480834464924
P 1.9115099409193053 3.265275178560055 10.430470700880502 -0.557073465756647 -1.109991514584024 0.13576170311506297
P 4.144831646842689 6.05973787423729 3.768365096330017 -2.0086997986759023 0.0793990080546181 -0.5034145427806105
P 6.861134348688722 4.104021723259859 10.548986569300508 0.5187141492521583 -0.888608733764031 -1.44848932995217
P 6.098168581091437 7.602623598868697 10.25848602292429 0.7431704267911523 0.7541007005504109 0.5139144138706697
P 2.3652411006469634 8.642041636967114 5.792028771165073 -0.6022742306630015 -0.392211245731202 -1.1568262155493754
P 7.112305171202628 3.883671746460267 1.6147553236994072 0.004333337268031247 0.10504524786781264 -0.3823173836562577
Ni 5.509757408756536 3.145942021950806 0.2621115870738952 0.4471858021948686 -0.7456867654551028 1.4398026008114495
Ni 1.517150227650157 1.130845343534985 7.152328681927809 -0.8686585158943492 0.43432540129243263 -0.6073215632789218
Ni 6.718944365720331 0.8771400195364403 9.156096837942744 -0.08814898633310625 -0.8668160633689717 1.1072118949563576
Ni 2.797877144112291 1.7055987221296598 9.139814641017063 0.3703378426968783 -0.5099906533362314 0.6845019664156663
Ni 6.526028029139637 1.8123002357251763 2.374398360758429 0.07385416697698893 1.3039583652849094 1.0031516367096336
Ni 4.056973166499146 6.7601992573173035 10.639683763954686 -0.32579733708234215 0.6960027679664142 -0.016327019294797688
Ni 8.465407497312103 7.151535004286256 0.8810266789252813 1.2043607707952289 -0.46483925361057365 -1.5258939332845785
Ni 7.673210055479586 3.8244274337200834 8.319605100547262 -0.5346187362975566 0.7285187383162486 -0.8045920244317434
Ni 3.2430812637321877 8.548916188292901 12.52432399350567 0.12957074381300263 -0.9617900430437112 -0.1692212683250892
Ni 0.17041185224091432 4.887637639105332 10.08145141205655 -0.18483454938231392 0.2784162766952173 1.0218993496307818
Ni 8.60208532549305 2.1543262619431793 5.869847320152768 0.6166333275981509 1.1948307198176067 0.35050795245514477
Ni 3.7619048872430514 2.7093829951771156 11.617457386330512 -0.6409042843303737 -0.03432268454126992 -0.5173288388688574
Ni 1.1978448130930888 3.3599534747938304 12.690235312117824 -0.9889686603410323 -0.12226392573894426 -0.6818308473414064
Ni 3.167009895273495 8.569266664205033 7.785827827467229 0.2837605717262661 -0.06676692111290437 1.106205050958398
Ni 5.563298866131784 7.820503549140802 3.653291827382696 0.947387494465136 0.019504645691830923 0.4032063112901249
Ni 3.2171187422539256 8.613009744289254 3.62873050109999 -0.2384608193482022 -0.2979656595820546 0.19448235688472312
Ni 3.4591995039074814 4.421792452217128 9.235549963308923 -0.5391870723945295 0.915326095154217 -0.3804137388756416
Ni 7.132701052014163 6.0057968537473005 11.600206248851586 1.0182874639098076 1.5636922350792748 -1.1332587126420806
Ni 0.7189475338226857 8.90808710452523 -0.13268946181744407 0.06130666932928151 0.34575963913688196 0.7319552748016233
Ni 4.8722453782079365 0.15452195364606883 1.718982270277496 -0.4693636238434884 0.8546136077655089 -0.7421568979249734
Ni 6.1706075575979416 5.8877441153011985 0.4829019913976901 0.17553461213762675 -2.0723816531055794 0.7817606283595246
Ni 7.683516967643919 -0.22933833068528084 11.478075242341163 0.15860415493087524 -0.8447027764097002 -1.13718838671379
Ni 0.05628209710317379 4.878874493520679 5.725946480574896 0.09378253046979977 -0.6487070682042442 1.6256324242274969
Ni 8.22551525180974 8.97073678472059 2.633186309196072 -0.623959428945919 -0.4828935400091232 -0.16663988075115818
P 8.684449813008907 1.7225529115664964 3.6982681045346855 -0.7567455943724257 -0.35186600914493593 -0.1766340158493926
P 1.8290818865442837 3.097449589389099 1.4984724682320074 -0.1025510206910492 0.5277466917680717 0.8265099075507572
P 4.704092873761283 1.073962085563724 8.217185268965386 0.5308659541233438 -0.5136984412051218 -0.3423498421243846
P 8.401622694631685 1.6280834778699722 12.37481474075362 1.780867148465507 0.2999796046882898 0.07372844003240206
P 6.635726266095709 7.742479770007808 1.5716524526967588 -1.8990857004904842 0.35322792248946905 0.7181062847336729
P 1.7200374801396063 3.197649121390199 6.266049564239664 -0.05078160142824158 -0.5233904716819051 -2.242787942877705
P 7.060407371185745 3.9521877396584086 6.091791917019371 -0.5708666628859975 0.33757710332608953 0.7379343752031937
P 2.273468717974939 8.273880550653121 10.510442350197856 0.34280184206013864 0.9626603614638067 0.24992922499911793
