# total energy = -340859.6878048049 ev
CRYSTAL
PRIMVEC
9.36503466840010 0.00000000000000 0.00000000000000
0.00000000000000 9.36503466840010 0.00000000000000
0.00000000000000 0.00000000000000 13.70667486941771
PRIMCOORD
 96 1
Ni 8.2019162056612 9.56123227643897 2.8387209192664984 -0.734985834097831 -0.5305641066122089 1.0350142897461851
Ni 2.2420080605749964 3.805584905319572 9.470311836108094 0.437973025347349 0.28407810296668495 -2.0612176660689596
Ni 3.8029065053675057 1.211563916778673 8.606160742202825 0.20800275996866113 1.739148171460166 0.5053449270341038
Ni 5.839792208774332 -0.03655828633873824 2.713016866690998 0.06250120385801494 1.1531325687478722 1.1144341237364097
Ni 5.712727416642765 2.9309562104829343 13.268486189392457 -0.45241208359081436 -1.1219556289244357 1.318669960463471
Ni 9.246108220540155 0.5827570838363683 12.730745891323867 -0.17952779245741984 -0.07275836280964888 0.2907681133923508
Ni 5.292902271708652 0.09836751600179441 7.1269909560875115 0.6503649155226412 0.0317351263197518 -0.029918641936303312
Ni 6.1475366172527695 3.199751439238849 3.12697200781408 0.521534906530405 -3.0331198578460086 0.25990459104427494
Ni 6.406451734297393 4.779267573208655 9.436045173784288 1.308189372647121 0.48844660861686845 -0.749612068651438
Ni 8.826311170710435 6.5204148427473525 13.031922600898866 0.8897968405348612 0.86268198659594 -0.47475111340764686
Ni 2.1090339314862483 2.259408295228626 2.1863376112216573 0.6746600406245801 -1.1018287762675734 0.873004965788503
Ni 2.1795151833717274 2.739928230684901 7.1264974187536865 1.2868420173195967 0.5955312555122131 -1.2651462775137179
Ni 3.2787642378247894 2.5493497725571443 0.09285993903742422 -0.5585904166218056 0.5862272045024678 -0.21715177345778083
Ni 4.041799178015218 0.6927747031261691 12.724701697865605 1.7817994304717897 -0.02946227112517507 -1.457270675689226
Ni 5.914487726318655 5.448970576607868 3.3964321540406126 1.798074256372413 0.06341137437711016 -0.00479202207200465
Ni 8.276986324597422 0.6300514460668835 9.866517426779602 0.24250696439311784 -1.1103681811971524 0.5458295174117116
Ni 4.387893403989143 7.843385213476285 3.639560631927204 -0.8522445933127001 0.8864387226959055 -1.042357617485134
Ni 0.6261321790041579 0.9751529783522803 6.89593775406873 0.20197763682050376 -0.6963660648431039 1.0590949848444726
Ni 4.259086715385252 5.243192667003878 10.294850705827182 -0.7699633786142804 3.048743166205562 1.234526752855648
Ni 0.14273062234071313 2.0014952369073282 0.9972319843907078 -0.28177696563733406 -0.7216428371320217 -0.014569927394374906
Ni 5.567147950716673 7.50575697895924 5.772771337246504 0.4624915793140035 0.003411339674394125 0.6032641053800966
Ni 3.5977466880601465 8.347458211448103 9.371267228090446 0.34586171193238496 -0.5652259196604524 0.7164394385542113
Ni 7.669214296313631 5.543744728757888 7.743846131621332 0.8441119369032367 0.3845066779980926 -1.0396831559767643
Ni 3.656802597492757 5.74685360344461 2.427040545095713 -0.47884482386104626 0.3778297801985493 0.5433931400560771
P 8.061871475300391 5.029014321186591 10.835249737274763 0.043081404570506444 0.43969926400983633 0.27753927340690265
P 2.888907204242461 5.715611847360374 11.884578473740108 -1.1213905004495848 0.5678715848134156 0.4918209244057401
P 4.433931915053322 6.058063074798098 4.685777367329363 -1.7794036765461032 -1.5495593952223183 0.9338683769327788
P 5.574106171571165 6.43896713511408 12.681442729129305 -0.42116161021696497 1.644529004021684 -1.1524340000189508
P 2.9608494015563394 8.508817761007869 2.0066160379345646 0.4243369226211531 0.5274348169546077 -0.07788899916799488
P 1.2394998155794148 3.8748767977857765 5.033803599981999 0.3210395106823826 -0.8920984920848443 -0.4049225226502832
P 0.8642868869098322 7.014064556989628 4.354103421936526 -0.7474577413125966 -0.9636510075118502 0.284114098410943
P 0.6095392103500664 8.606729199815028 11.377294205336252 -0.46815777646084533 -0.756831983438645 -1.147619352239127
Ni 2.918538174341538 4.98364072759303 5.941336344579415 0.1500693779869867 -0.16785369855360124 -0.1110919682825248
Ni 0.6536382227076976 5.32369450612261 8.657849178760296 -1.3021773621250865 -1.327579604248275 0.3464777482498291
Ni 7.0128190073615695 0.7179835037938984 0.37875759434041084 0.35986034020432217 -0.05490770778147317 -0.01823734894363311
Ni 0.8967947956986807 1.7677907935373938 10.83642879515576 0.8692910072720255 0.6541868603718927 -0.18587944570706055
Ni 6.300533190738429 3.4705601504762122 7.479075058317874 0.028696596603744125 0.07363510898764737 -0.7710175309104077
Ni 2.3102323390742936 4.341152515315156 1.1698988769648946 -1.416445671253064 0.16828281567121986 -0.20630017545525758
Ni 7.841914903013088 2.1104574167754584 5.059983554758222 -3.1588002654656697 -0.48891403517159027 0.3935068246141739
Ni 1.100962855820992 6.486054530075572 6.62216032680058 -0.9403215887572902 0.16827613080300052 -2.0406246724089567
Ni 7.886539293822856 6.803295083838607 5.5843599481708734 2.0969130625880403 -0.7433072094793327 1.1947687562314198
Ni 8.776236329648562 6.924740855091714 9.696430601292109 -0.7911605815171858 1.2265031112202232 1.275411663995468
Ni 0.9221609289510072 8.644292354387533 2.9040336084472744 2.2524792020235402 -0.17211787314659388 1.417675687005423
Ni 3.66824667001522 7.8401542764711705 11.693891381208703 0.8145673904769005 -0.4158114016486452 0.29109824303825993
Ni 5.9064337963928635 3.5199981691718594 11.14836499320953 0.05681058123114087 -0.9219582557587541 1.1181447398187776
Ni 2.6874559407148855 0.49608836930352684 4.0931008386355545 0.4155504346777747 0.16480077065989038 0.24641761230143366
Ni 8.604172545315329 4.058777986102963 3.6660833469770133 -0.2570403821226025 2.102689045839869 1.33136478232232
Ni 7.30238588329819 8.256814039643752 8.302105220931095 2.3168830222209067 -1.3460876903547914 -3.7269107057627684
Ni 2.8320895381264366 7.204371429108258 0.2279983276678586 -0.43641005173560327 -0.8479711627483267 0.31089522315952905
Ni 0.8630235437156585 4.9148077218319 11.382886067613798 -0.46391777023756875 -0.8755339028579439 0.13977262404666896
Ni 1.4092785314220733 5.053541347321068 3.1437354201014847 -1.314685007673794 1.8252055653715662 0.3207075812642606
Ni 2.154491810392987 0.5508251246875618 0.2356935767609091 -1.098652692532437 -1.2925200415409805 1.527496501885008
Ni 8.287503258674938 3.0447507483065395 9.739167937590192 1.0864124417125032 1.4915095422674378 0.156500221213995
Ni 3.2191464263043326 3.7210186410987536 3.750529738752424 0.4469112083772433 -0.9071792976773667 0.6426927436893641
Ni 5.571783642941402 6.341449027768412 1.3075779995358725 -0.7626550178783252 1.6989376606795514 -0.07531969577892189
Ni 6.883956128548895 7.441110143752562 3.759165237339136 -0.6981645515044234 2.1966870347545844 -0.4728322991183792
P 5.082376289462363 7.365609233215658 7.969334629963479 4.051681401352809 -0.22956403107920464 2.4772740938488758
P 6.931642885737422 8.035302871580075 1.390473541548828 2.01441407545186 0.4686907661461799 -0.14420957677210003
P 5.443332825659814 4.268536035495862 1.5560089601247697 -0.7212908531092417 -1.0148087613325878 -2.0040440450714456
P 4.582161685827088 3.5561097433507602 9.298813699876627 0.022672759007167403 -3.387630246592327 -1.610500710792381
P 7.309868546101339 -0.28633968494542544 5.850871981443174 0.002503226037827947 0.08032331964110037 -0.12349471282225184
P 8.218913743818542 2.2199159434878526 2.9297743430914984 -0.3738653962341626 -0.013275119842351331 -2.2439235991440456
P 7.3078737936894855 4.4120458287317215 5.769125529199864 0.8270398119122983 0.8670070963338552 -0.22751280497713075
P 1.3867087975602603 2.875243618473007 12.770961223751005 -1.289509793959747 0.00965166415715112 0.45965873785089867
Ni 7.041616489363675 5.349101845528045 13.809200822512711 1.3733033315376348 -1.1114912390580018 -1.9920416212939307
Ni 3.374512353593742 7.721340079996142 7.117122082417977 -3.006712057276441 0.8007063162240919 -2.521789659762747
Ni 7.549753912437579 3.3734915648008212 0.9992108162434054 -0.9759776473980031 -1.3632631736928134 3.005362485227082
Ni 0.4856856886505385 1.7642320803143694 4.345289987688662 2.7353776271286696 0.4528363156124266 -0.6951064814043899
Ni 3.0782307477073614 3.198168748358083 11.362614513291277 1.1729400903921026 -0.6850298138946783 1.8691598594653296
Ni 6.366678431512696 2.0108321766003687 9.308490590332815 -2.3433841538352285 -0.5579309286609359 -0.8291501733870817
Ni 9.391069594169617 4.33293001476301 0.13633898609146528 1.3027946839941111 0.7388324615374308 -0.22240119478217824
Ni 4.640131251223196 5.206294429901994 7.716502103019788 -0.1035789477349313 0.30147675805910656 -0.12333710419846501
Ni 9.094900368700806 3.2540967361683513 6.678756041591907 -0.07805149288778816 1.4200979232936706 0.21198951253055104
Ni 5.299598271588816 3.9756913973801398 5.093029953047922 -0.15308245378169766 0.9463924775417185 1.2306389877654678
Ni 4.885654368507491 8.402992867796879 0.6263925269715264 -0.5709491952974748 1.0402534266579375 -1.057354090893966
Ni 7.24281489695172 8.339104600408794 12.105502454121988 -0.15248878606175675 0.3580777943826027 -0.13013252985374363
Ni 4.7384172914222535 1.396570179201957 1.3751223765088763 -0.44058963703458953 0.639395303885015 0.46676346721648004
Ni 9.515811857671421 8.911383146810314 5.181521103352345 -0.9586093313228844 -1.1005632792915885 0.040286358323872555
Ni 4.014996448424965 4.679361381989643 13.46838473015062 1.7798078539630575 1.5675486327108874 -0.5848910021895476
Ni 1.4228484668435533 9.119905011609953 9.363523280816448 -1.1454670817828143 0.7515535086485251 -0.42866203235906825
Ni 4.5031020620671605 2.303508244089737 6.227998186721873 -0.3463422511132293 -0.8511909552372051 -0.10951871025813396
Ni 9.254330721092302 8.64649313756493 1.0470745725896045 -1.2595592703442438 -1.5004664943504094 -2.8374941313854616
Ni 6.294445918120098 6.962397660012192 10.22109543777652 -0.1787477197582857 -1.9527227690896498 1.0917752486863133
Ni 8.13450668518928 2.6454818547527914 12.619776784498649 -0.43870424708641864 0.040668681363955766 -1.8733355881095737
Ni 7.427877349583789 1.4326817533808576 7.279724372095362 0.5322250392543996 -1.6826332670925732 0.5022346635398963
Ni 5.8691328627946895 8.947298055258468 9.576840043432373 -2.2796267089726094 3.795399751773102 2.5600762140477715
Ni 8.153808021906789 6.2506643804421 2.3694184224905888 1.7863664810171815 -0.14473973824395717 -1.4960416258098364
Ni 1.7024696758253004 6.9716409493572575 10.379105114389246 0.6978071681650047 -0.44479647602708555 0.08288773793416693
P 0.678708420860425 2.5750193329369075 8.551951238277885 -0.8419414116144791 -0.6085225255655584 1.4994712203166756
P 4.641133309946522 1.5251521069707086 3.84093884818336 -0.41227793457408995 0.9406463190865606 -0.052750552229154306
P 3.2196895983225837 0.9441172530335883 10.707956438294138 -0.7121143288162962 -0.7440865108475184 0.20409005517781625
P 6.478075520428159 1.1957463730058089 11.284129902667912 0.7231693010788771 -0.3255307136845168 1.5137377575380189
P 2.5558584717413604 5.9019666747944886 8.074506780249088 0.6798297577509776 -0.44118793274022083 0.7074997128624203
P 3.2034318979142404 0.6280360905784759 6.576750209571309 -1.4094329873806566 -0.41849614756965986 -0.8642426462148406
P 0.09541097451624489 7.932493519573859 7.750096355845138 -0.5007405954928731 1.2931005966347988 0.5967378742258046
P 0.9781123293482691 6.365208121049499 1.1374153172665193 -0.9221325765530893 -0.6831238551212171 -0.4001207303862657
