# total energy = -340858.3201901762 ev
CRYSTAL
PRIMVEC
9.33292157468702 0.00000000000000 0.00000000000000
0.00000000000000 9.33292157468702 0.00000000000000
0.00000000000000 0.00000000000000 13.65967411072336
PRIMCOORD
 96 1
Ni 6.55274697264408 1.119773275913366 5.057166806085125 -0.5051369247883558 0.510683822748514 0.632681125089633
Ni 7.288190533835011 4.215820716023421 8.790970116176794 0.9486763884798888 0.9924612468753229 -1.0436187435857445
Ni 5.007187143912187 4.656763933647903 1.5175078660426928 0.3661230332845824 -0.11737882973250108 -0.9992741560320982
Ni 6.557525428543494 3.7893995245307543 3.6258372722377703 0.0005463594217732526 0.7088040334961406 -0.34612499289610066
Ni 4.146299782439948 2.497368513196505 5.588965082958063 0.48038851419908235 1.3570115363561468 -1.2267085423628101
Ni 6.264499686602253 5.433934987663603 12.223277124611776 1.0967284789265306 -0.03046577268902495 1.1482469585207966
Ni 0.015264926697426271 2.6367650313872355 9.967095573185208 -0.41333851462812043 0.026935133827947162 -0.3004046080408504
Ni 0.12790582502010733 4.789795399253866 6.436192780261585 -0.08470910741362185 -0.46519046630240524 0.9424779729786606
Ni 5.209496887137982 6.182145985710783 8.058634417904818 0.5175085589798313 0.24618801278913086 2.6979765607723922
Ni 1.9443462391343909 7.406877298821053 6.444784667958852 1.3738921141615694 -0.0009685345608563964 -0.33180703361153174
Ni 0.46291104867143773 5.176346349335795 2.7508805313351266 1.2121103328336609 -0.4407719282487248 -0.19590314849164972
Ni 2.748620097704583 8.376063883451115 4.343735873965207 0.31566539085466283 0.29868659690847915 0.5583914132371223
Ni 6.428899101969804 8.093519012554879 11.82608197735547 -0.7461742466144826 -0.10207150995146938 -1.7338079901941754
Ni 8.430773470330738 9.019204849241246 12.683335099126083 1.7652037308966373 -0.3277459761682807 -2.0835834353586695
Ni 8.165251848576165 4.459848619152306 13.195983154006816 -0.513906957671502 -3.7590137569449 -3.460328959808634
Ni 6.8932026225556795 1.997189241678306 2.0219457497228115 0.6275093510807064 0.22466967910138078 0.2570331830337509
Ni 3.776921408246541 5.176607671142793 13.158446143015714 0.7707444797546791 -0.6721809829564681 0.0358306365453641
Ni -0.0479329524488332 8.612550785863736 6.721734452308801 -0.3219723069092971 -1.5403571598977601 -0.04938754929419237
Ni 7.719166191106807 8.856233370890514 9.749360377009115 -1.3237162646381266 -1.639954240166808 1.9118969933225398
Ni 5.174750419728763 3.892397648175164 7.4684269839988815 1.2617699048423172 -0.6652138076100156 1.7210085244366617
Ni 3.314783125490087 9.024543280441375 2.055890519159843 0.21085925558084975 0.62846811544955 -0.5169922814650451
Ni 4.760331365514704 6.2812242822502045 10.905296857842503 1.0014721921246816 0.7416807296195034 -2.345820016970231
Ni 7.074765280890071 3.5116331095339333 6.138712434803176 2.929093538161013 -2.3489487924071994 0.015690928372695558
Ni 2.1023619360738164 3.772880253159731 5.351683015618429 -0.3418446203531919 0.02615686090102592 0.17454576586179615
P 6.7738625530521395 3.886928556071537 10.7708990525028 -0.0921802189796864 -1.2583675640289875 1.3421191926253466
P 6.920968064549347 7.7141544121654295 5.6471549163316155 1.1534346733693233 0.8543176737916448 -0.5699660054485991
P 7.062044508642216 4.026110417063661 1.2262143143649904 -0.1707050519594673 0.24579977621177668 1.2937644554710428
P 6.007107039629694 1.794832833844119 7.126716056121517 0.4372957967746663 -0.9173053303677751 -0.36890573823604206
P 3.5431130543556613 4.397738025381598 8.908279341923082 0.3303083375788182 -1.0992036799399003 1.0190891338754964
P 1.4477041449323602 5.4569779712879285 13.329875114991541 1.6194730894943203 0.021527589659130666 -1.0893666392448205
P 4.318818839667831 3.1435053468454504 13.57673275997336 -1.9511996475769045 0.9159822406809773 -0.3914208886194227
P 2.572937180027674 1.1366005336997804 5.087996246265859 -2.4770596638452242 0.2809364720139097 -0.8964472559718433
Ni 3.997411682902139 1.8981576097472777 7.903623921745883 0.23272237420252825 0.8595164443837648 2.888988956830644
Ni 6.11262505212731 9.185610842769684 1.8447117004629285 1.4654722376634117 -2.543395153847665 -0.5827158489150996
Ni 6.3806665627350885 6.391380756822057 2.4176662953539085 1.4930866569465704 0.28559479672152754 0.11049778634195163
Ni 1.775187033710784 2.715730881709395 3.3880092289799415 -2.015134241447336 -0.33353070117085787 1.8714355428733835
Ni 3.229937534510445 1.461946183413818 12.072857492626518 -0.8017429850187224 2.8001126054132097 1.7848245904513582
Ni 7.137109197702743 9.072915813501266 7.541246172103551 -1.3162742065377848 0.3859647506008579 -1.1542404571000702
Ni 2.3757885424901146 4.0162548517711185 11.445946477635372 1.2231110548195385 -0.49819520336320006 0.10069288443638787
Ni 3.9311106072977635 6.404801498195802 4.609142700783132 -0.4884658918905781 -0.9129694219965826 0.3734169958428343
Ni 9.573991045500605 6.889926767046511 9.986819769860642 -2.2829776277227136 -0.5867491384442088 0.0554250137375239
Ni 1.8534902465937668 3.2531298448816264 7.829261068395582 0.2448692939777073 -1.0310043972558438 -0.6175126448793107
Ni 6.238264843763867 2.9758487418120896 12.848002369345807 0.6456595396271719 0.19957622646786272 0.4572886949568254
Ni 4.141651987444034 0.38393306555109635 6.259259251079751 0.9020090663303368 -2.956544178172799 -0.023118074074702122
Ni 2.4902848256424903 0.9433530574238521 9.77299133469919 1.1594757373570805 2.33593721063888 0.19432809069504597
Ni 8.789960294051175 1.6791232708735326 0.39019265612089565 -0.2207438616844134 -0.027741945999958672 0.7207951444197457
Ni 1.1840211087484616 8.023792754694478 12.077528619926628 -1.579206785775106 0.4346025662132193 -0.12785736066632175
Ni 4.797355065813486 8.483551142422904 9.58540334212913 0.9230010952009716 -0.38347180897567507 0.3247529549782278
Ni 4.722393038891423 1.1883422514856274 0.6300207444944362 -0.9130149305225373 0.4529964953393747 -1.8558127487344618
Ni 0.5654490592770951 2.34338463842221 12.18254452123794 1.0313625519262108 -0.8367161586597978 0.3687465869503585
Ni 0.34080190130587396 7.679753262858317 4.199393840577017 1.0868148193572444 -0.19941013320364365 0.8848911757031277
Ni 2.848454360899966 3.085538570300015 1.6840743858240002 2.772401769761503 -0.6017024173199315 -2.337866566451109
Ni 4.351092082832235 2.9773606751240136 10.53524278011957 -0.6743288825374064 2.728893819176539 -0.3621457938043892
Ni 4.932766426447478 7.4897909750132365 6.317476149926171 -0.19140988860698646 0.7541531510549012 -0.07097838809109067
Ni 2.7617048538979017 6.438250689491704 11.573814970968765 -2.809705391307968 -0.5503263768408005 -1.2147156316669918
Ni 9.179003134221276 0.6514397997466943 8.65571181545833 1.17559809684024 1.507987485317803 -2.7176035909747
P 1.6303400892597841 5.826477673463156 4.859060610783347 -0.1865880417383109 0.01552252111563133 -0.38629385180550246
P 8.564458240454199 7.453644569352236 2.1880474900045273 -0.1277617156287219 0.4071336713689891 1.021543251842944
P 4.883451268298053 1.0245121443404692 10.663506989332133 0.19294123764984836 -2.445651324737272 0.40830917973432906
P 5.33653661702632 4.267674428869411 5.394560324393995 -1.8580154128127357 2.5936828463586235 -2.163371194211274
P 4.85552716663585 1.2955401898853816 2.783718416261083 -0.21184810185668032 0.49186900403485617 1.58860056828518
P 4.975091226259675 7.2079367403212125 13.102769665450191 -0.29477646322079554 -0.6253290555999359 -0.34432342091098767
P 8.98566232872856 2.9414195937399414 7.922556686662977 0.17086626012767991 -0.11084334260682846 -1.577884981639889
P 2.131835302734658 1.3916132856443117 0.45539991330454566 -1.1609093844798137 -0.8571137484795432 -0.2159256143601636
Ni 9.21819207234948 1.201958984214623 5.5454316697884956 0.4276024807463023 1.1475525035569334 -0.2350276252969372
Ni 7.226509254461514 7.512180654120062 0.31119974032586867 -0.9430485007701501 -0.40760546879908505 0.4539094940719473
Ni 6.203135726565828 2.109034975073975 9.391422298209267 1.3037310797654513 -0.5715292361706609 -0.9579053632773245
Ni 0.259949867512481 4.52642034948536 11.196247891294602 -1.606341437208369 1.719055514475349 0.8408769749057066
Ni 1.672198242988053 7.377301270021748 2.293418042339623 -0.5108735701618169 0.4415252614749815 0.35421856853751255
Ni 3.3990780740906947 5.134226873800526 6.852908666500735 -0.7962732201534028 0.46980096849122316 -2.405430272433696
Ni 2.69794233299009 6.358631534652047 8.662883232476123 3.3146723661773625 3.6794147170643337 -0.3786751589179801
Ni 8.876989788703597 3.572698416076645 4.420488888557383 0.5992025337162131 -1.7567620278871876 0.06484167906573349
Ni 3.9475738811387147 4.443618668353319 3.440257724412933 -0.4197025091729353 -1.2903091499325907 1.911418511024224
Ni 8.927368899924376 5.92836517942782 0.6569732890099029 1.9487527286983086 3.261490125727428 2.2804119238780665
Ni 0.7932992759683924 3.739813711652651 0.8261875586714131 -0.0717386632958829 -0.530988081523505 -0.09221929974773795
Ni 1.3179205360705297 4.99012656308381 9.102356514936233 -3.456085868261564 -3.360548816994503 1.6626092585621624
Ni 7.911125724191097 9.056797857762422 3.7763399672259674 -0.7114378715745618 -0.5407690721696686 -0.6085682912018293
Ni 7.110622365979036 5.664000839961387 6.688309526609263 -0.0583594137754995 2.106242824629398 -0.21539005357166777
Ni 0.5253716270050922 8.689706049380257 0.6961612938459406 1.2195199950341709 0.3713086912505799 1.3253998229881367
Ni 1.1620327452738124 0.42333106112490126 3.3859877181443694 -0.46534344694050184 0.3967849811448134 -0.538712446750956
Ni 2.5444717689081155 5.410453356720388 1.6980887010165016 0.9785788324662761 -0.2931345567419984 -0.6079774516953659
Ni 2.006596826730278 8.161752002946711 9.818928908493149 0.6387568989700677 0.23565420313734256 0.01957586524939854
Ni 2.915978049244231 7.359298064103836 0.05568487719503169 -0.5646055124676341 0.6446766068886123 1.4382560822599357
Ni 5.159845743808129 8.57862561556223 3.8290523088663835 0.32697078856515305 -0.10965292184315309 1.7267497977958133
Ni 3.419526505488384 8.681857062248602 11.75725074668404 1.6915763352184738 -1.3886427901081828 -0.3885096285098986
Ni 8.601836591776767 5.721220982772539 4.423234634115211 -2.9390570771316287 1.7581779343981074 1.7039639102495494
Ni 7.259855783618952 1.3256388622986854 11.567339789908191 -0.12019367347347686 0.35220642320349016 -1.8746589349066876
Ni 2.0339329543267333 0.9298679188905242 7.3982163475033635 -1.5668009559115854 -1.72171994868139 -1.6137840095293432
P 8.474376880412894 6.563535830104476 11.963292725289085 -0.5698230521128316 0.5396838095252899 0.727389766918128
P 6.871923561128599 6.658423644810231 9.566853227000855 -0.7385606959332829 0.7312178824149664 -0.005897339321041456
P 8.720999335768415 1.7753643592226767 3.3398177546006127 -0.19247998174271366 -0.37046614074462647 -0.46971715052816526
P 3.4636058945761463 8.357211381660456 7.979243919646285 -0.6427423659803769 0.5639359972044352 -0.9679470637840426
P 6.800480045679347 0.6558542717006455 13.535494312244547 -0.508926216627459 0.4125723258860572 1.4184704149925764
P 0.5354334498667304 0.5136037460606163 10.604455727287652 -0.4637748169018013 -0.3168946352760736 2.260477389737668
P 4.35503990870226 6.959550362768447 2.5431576935357767 -1.5128841512884719 -0.25118263779024486 -0.6585795901229496
P 0.48578510641338074 6.508088942412248 7.734244459370663 -0.6536592700031968 0.6308841810902102 0.6273743681647388
