# total energy = -340893.8350415682 ev
CRYSTAL
PRIMVEC
9.05519033493486 0.00000000000000 0.00000000000000

0.00000000000000 9.05519033493486 0.00000000000000

0.00000000000000 0.00000000000000 13.25318636784837

PRIMCOORD
 96 1
Ni 6.221785123155606 1.974565769805367 11.10292304321289 -0.3382944411080883 -0.48484166487442953 1.5704254400380502
Ni 4.458404504540517 0.1563143192653739 6.033857323063738 0.5686596279323497 0.16224689388978508 -0.8304529513589053
Ni 2.4091605792653694 1.5413835700523224 4.683026652808715 0.8012107666643363 -1.5584770094269225 0.4896010339362858
Ni 3.2744383559199526 4.189157472318079 4.701713849297497 0.8713316918511381 1.022405085622607 0.8890807883044429
Ni 5.1782830884731075 4.59599812311252 2.739075576325499 -0.5684215437796146 -0.1998904152741719 -0.275980413560215
Ni 7.328374669558483 6.125609945606857 2.6103343119171014 0.2910619904836858 -0.06547571310530659 -0.37057027042265855
Ni 5.133749661942202 4.419195529981993 11.549476137153722 -0.8247206768608183 -0.09854447063481739 0.29109027261845993
Ni 5.9618921026465515 8.039279559775716 12.493010680535713 -1.0617838445305456 -0.30170250091666745 -0.05363526882695279
Ni 1.4987788990828403 6.708193732251608 0.4264532877450909 1.1804600529182314 -0.6260607915596379 -1.3143674764333753
Ni 2.916894161822186 1.6189322208881656 0.39340093715939356 -0.5637251667452098 -0.40786823554216856 0.5902682073410608
Ni 0.38371278891917066 -0.01575059823258593 4.742957525145466 0.9856858758247026 0.3275513436589714 0.5306870053433183
Ni 8.669240102746148 2.500599892219637 1.4451676441466412 -0.012442596638726957 -0.6208172837725114 0.3080523543940953
Ni 6.9497499921414905 0.7609112738435603 4.97560438317204 -0.8779422551891203 -0.042896799363526125 -0.4441521575748673
Ni 0.9599497925920816 7.45744735393659 2.5832710642812904 -0.9792537470461136 -0.559254789678682 1.3305042340942375
Ni 7.295377555634403 3.8850026809909948 3.727007718381958 2.552697405085197 0.14857068195427317 0.32268861625003137
Ni 7.490154701766934 3.442113317097826 12.756337429255526 0.10169355778676036 0.9006345545803135 -0.8340193285539249
Ni 7.8599596237058655 8.955927431735265 7.133010747086139 0.7332261710942469 -0.35687168988964346 -1.0586393853642928
Ni 6.945168065784306 0.9366598428081269 0.33189717824508586 0.30269726072976905 -0.3766082490866224 0.04554940649502478
Ni 1.8598274518767153 6.686289226603323 9.072959429399639 -0.16122925125854812 -0.31978146990556544 0.10617961858257197
Ni 0.16587931691575938 4.879805901545146 1.3104535761311296 -1.2751951771092878 -0.01944525320880522 0.05146474353819524
Ni 6.353049163617585 1.9812213347708436 7.178654339963667 0.04794207509691743 0.43352116022358245 -1.4936168184184275
Ni 3.495403112773788 4.154014278262274 0.6462952009857033 -0.23512635565833057 0.939129368221402 -1.2929131632143411
Ni 6.169310294618274 5.676237065366366 4.920219216430756 -0.5355402196705615 0.7367544959624795 -0.41286543164644385
Ni 5.109137654355581 3.2186402724950964 9.14322770713039 0.35934457691016825 -1.437373936765299 -0.15819329264570176
P 0.15168621143699934 5.467252325450389 12.382306449943279 -0.09930680272213865 0.7559421246345238 0.11855948030416356
P 4.007111923929032 6.1123803123897655 12.61678155091751 0.4723846700579994 -0.5405507855112756 1.6309054997009784
P 2.3796497136565407 8.47745116945526 1.3653434239559348 1.04094993850433 1.0167692274930684 0.4585562488153393
P 6.391135294562886 7.829063313961365 5.823397492626841 -0.7012832996390632 -0.047753870345511304 0.041703036165741086
P 4.797584772447824 1.0263877247712716 12.651491906870799 1.0767466364879648 0.8981855788191885 -0.9774843138505165
P 4.036061367731249 6.208075564845767 8.221693654415231 0.43630540783693894 0.8497876471317752 -1.0364998731527761
P 4.615068354156459 1.1471477443353546 3.708824896000083 0.48478252950171996 -1.9012112314739193 0.9409229697867151
P 0.28453491022409155 5.48361505455599 3.5467116327838366 -0.22868265691551587 0.41679587704910154 0.4569464811260582
Ni 1.2885807636493478 0.9739219514243687 2.55936264499102 0.2215661004753926 0.4536503268732897 -0.3353870376533063
Ni 1.928674064710078 6.28108756527657 4.926116861957307 -0.4791214745612006 0.5058820304844964 -1.70497666778478
Ni 6.1678705193400285 5.767187398037455 9.289118596692687 -0.6231839842324751 -0.3269116531924434 -0.20531621427543348
Ni 8.513780593457293 2.3151133714674867 10.119218769567835 1.2328779043983156 0.7425075963961729 1.5111219171817265
Ni 2.3693449069480876 5.168956242331011 6.942628990387952 0.11077109460799632 -0.3240335603137 0.8879631297602321
Ni 0.8115795918902627 0.230241799448572 9.292365787980607 0.03744426088938712 -0.19741418581953743 0.527189276602705
Ni 1.7409961878740563 1.0265507181989975 11.540119408883207 -1.67622067869801 0.5883704760977158 0.016096134230914216
Ni 4.027848310011946 6.891860159727485 1.5445528867025493 -0.11492394043410531 0.09319580472839434 0.034822506995823906
Ni 5.752653817398556 7.825658562359979 8.035486340504916 -1.6476531514729624 1.1398487071547725 0.4709880468207889
Ni 5.4088282368010585 2.8785092095927203 4.823404742437704 -1.0274007390649855 -0.660669896993075 0.08082211365438985
Ni 0.548059967614306 7.225806527566703 6.644021408717808 0.6472147999294339 0.7590012231758219 0.9160681155265643
Ni 5.044755250403825 4.505591101867185 7.088347831332095 0.10615519310253976 0.32707260425033996 -0.39338983942033545
Ni 8.27711413639919 7.5363542833368165 9.043762778898703 0.36230443086944053 -0.645947760291552 0.5412370129450227
Ni 4.691222505666202 0.07653265846968481 10.438209584894153 0.4060643495642104 0.7085785477488958 -0.5626972397013277
Ni 8.178005077151372 7.14314169413835 4.711613888993764 -0.08025312852479728 -0.9783106664065537 -0.2560430512063397
Ni 7.32537740152641 6.374754455076426 7.163016026092403 -0.10890755903669631 -1.8080763618904472 -0.9818335919581478
Ni 2.226897706306022 5.122910598998425 2.357344063072242 0.707425407981059 0.5456899065100538 1.7798276514573992
Ni 2.310386562063434 5.378801225337765 11.555201734062118 -0.6794502629243718 -0.5726924032408266 -0.24205290757483475
Ni 1.1504347784611615 3.3660225519210876 3.861501745270039 -1.5615857302592333 0.5102400503428761 -1.2520009983810116
Ni 3.601792545126698 2.764703576278279 2.9133291333502016 -0.5290821227500436 0.2606327274595512 -1.9460039623085774
Ni 0.9467835457079952 3.3961944464312497 8.238962808082798 -0.12651164527170472 0.8302722028066669 -0.5638182406796484
Ni 3.6481007889817314 2.3637035233106833 6.637924549001815 0.751775394851344 0.6066826441433423 0.5583942414505997
Ni 4.151659928750677 6.704499214556486 5.779078674109107 0.18572055153169303 0.8090485175412002 1.22558882693607
Ni 0.7572919142290009 7.408540270428371 11.135645784866963 0.3160258595178751 -0.7218292421112149 0.869482297347225
P 0.1019496724854635 5.618193294715063 8.073350619284701 0.6512354910530526 -0.22759713716082094 0.4422091749158836
P 8.535685099105578 1.7472533244606474 8.03310120334586 -0.21405667947222487 -0.2790487680728936 -0.574136848996837
P 1.7416209960136726 3.328461622020681 10.407462685791735 0.21071630224508225 -0.3813827876571303 0.16906263126003787
P 4.072762054540879 6.150285339526482 3.696326922169673 -0.726874003623974 0.13246400620039767 0.10182699804083108
P 6.8364695598719445 3.852548878492669 10.346272236466277 0.53794445823668 1.3122486303181595 0.13131163776350932
P 6.611810285322987 7.688907076497892 10.395282549145389 -1.474086461694984 0.20276799393228304 -0.9138276562318197
P 2.2765201498581495 8.401469066563674 5.848194226098218 0.25539976119538593 -0.016576159191126292 -0.2660163603689677
P 6.936982173636291 4.053374891831918 1.5743191086814825 0.49782367895639423 -0.12292752746487216 -0.6043696797394494
Ni 5.294089918872408 2.7835112067997696 0.6817942640253759 -0.01456067142299428 0.1194357122615298 -0.8367778651356685
Ni 1.3919185968276107 1.0136923477895046 7.162658346070449 0.06947660673458357 0.1965999174483582 -1.4944100037436845
Ni 6.967806041857356 0.7828646775201621 9.194424848298159 -1.4210489743530301 -1.167740291358718 0.3626864967992076
Ni 2.757975569789368 1.987433195405289 8.895008638122686 1.1414584748440535 -0.6871453175757843 1.1210346597720628
Ni 6.449541272831357 2.0069742963515464 2.58019682713057 -0.10128089572937397 -0.9407085397830638 0.6635443903273928
Ni 4.1121249673367 6.769443040314854 10.606631599282437 0.3388911941518228 0.23181426056596205 -1.0915114535019654
Ni 8.005874962282322 7.046079107927537 0.10711294206820494 1.1158659710869299 0.940810869688883 0.9075721622404112
Ni 7.484929856889274 3.841374773503011 8.221230028665255 0.7140017756469962 0.6360670108427303 -0.5529283332400219
Ni 3.4274982397450646 8.39373593393712 12.643195541399546 -0.6228176020319919 -0.940674858331651 -0.16408986063579484
Ni 9.14682895636409 4.86790738132115 10.26169041922406 -0.10341388291197676 -0.11864612648069887 -0.3920140421187313
Ni 8.86144557479678 2.2372930649187666 5.646519741415751 -0.9210000056105428 0.5388579711898849 1.0900361545080195
Ni 3.561506002907097 2.4192571165939505 11.27836916881712 1.16188588946047 0.8766351063419227 0.0335364411945487
Ni 1.1117238393762445 3.5337971201936824 12.721110927447775 0.1720667081936843 -1.2462005896491504 -0.7922720694138098
Ni 3.111218548433255 8.43077166279263 7.979584122390124 0.5172990140721865 0.03622915753536341 0.5054871090389229
Ni 5.69000095481878 7.957529300580715 3.693636625093152 -0.6580286027154861 0.19102165202963228 -0.3442264903218072
Ni 3.0998090084924375 8.301554095367655 3.695492033612099 0.4846519174611265 0.09450706734065013 -0.22536079163113443
Ni 3.3085039823146793 4.619632170132785 9.36154744285985 -0.5053590681014909 -0.8643280068397954 0.6276787867790351
Ni 7.162338697848298 5.921922492091974 11.524480189492902 0.2731856244238972 -1.1932284083274933 -0.34168109819213416
Ni 0.5628824088278969 -0.08594824547798816 0.2519298860455977 -0.6161378760189712 0.1423349854572065 0.18085448168864335
Ni 4.823129464648655 0.3600923246845493 1.546554083787407 -0.36005882936837347 -0.7727293713951917 0.6918128982547828
Ni 5.935767878258251 5.635153666388993 0.4589315392575756 -0.39811758391330787 0.24920957322427403 -0.12184740702681597
Ni 8.105980092477354 8.953835682746115 11.278726848839074 0.07228836515176583 0.8870480741451304 0.3891274645995556
Ni 0.01963074733150686 4.75709901603878 5.975689496303555 -0.424186770196534 -0.1154661860908205 -0.4224376487159112
Ni 7.986831896809672 8.782538645396555 2.761553275527953 -0.41432761801426704 0.062340252800118436 -0.6631782652372256
P 8.416265247725018 1.7204590159805846 3.5980681453031598 0.1896157728210412 -0.1370218007744092 -0.43420713054701343
P 1.7553577198947998 3.0332805244089553 1.620215341371986 0.42045584239919204 0.6390911423810349 -0.11715488664715307
P 4.7611647965415 1.0122978484634046 8.252878824734424 -0.30663181989748484 0.2464188978530143 0.19570825887202423
P 8.70592267917492 1.6215944468743564 12.488172492289381 0.42124619951097125 0.2549241071105481 -0.2448898628029976
P 6.470685142483586 7.830448758097036 1.468770903519447 -0.5078880051709318 0.07892463952136085 -0.02382152789962994
P 1.753139198239641 3.163439831638569 5.98753821298019 0.22781516670889798 0.7792242350909161 1.109987657929282
P 6.897800364649053 3.946007498912653 5.883580099257525 0.7306956913629093 -0.17684947429430833 2.211951417112823
P 2.5982601209987792 8.477242900075389 10.440714250566876 -0.6894274287417416 -0.7483594271912595 -0.9101463507254907
