# total energy = -340888.28449859 ev
CRYSTAL
PRIMVEC
9.06309255214971 0.00000000000000 0.00000000000000
0.00000000000000 9.06309255214971 0.00000000000000
0.00000000000000 0.00000000000000 13.26475206151139
PRIMCOORD
 96 1
Ni 6.6419236880781645 2.0966921019667693 11.437851292114914 1.9527186553245919 -0.3696477586083892 -0.3649184714535199
Ni 4.68193021228698 0.3928950350195882 6.0395742381572886 -0.5856047404271204 0.0907465718569534 0.5162806001100012
Ni 3.076747749964472 1.741980782517052 4.695948097661627 -0.5988387226188913 0.16446472747671032 -0.03441267315191493
Ni 3.524546093842317 4.956016259678221 4.870670928976752 0.3334993337122901 -1.8727149238064393 -1.646996748835886
Ni 3.850300832331284 2.8547019804688905 2.6417419613373627 0.479803845340206 -0.18356416731032257 -0.5246595682023157
Ni 5.164567084244051 5.039043251284304 2.7190882064814113 0.37813497014379394 -0.8114884944412605 -0.7312101691054826
Ni 5.804249225336608 3.532793508137867 13.30971978669425 -0.8466349604354063 -1.125921555550719 -0.18457358241144342
Ni 5.468343823099271 8.23969254062731 12.4117621633078 0.25252269675790706 -0.33994740333047907 -0.6382449923306556
Ni 2.33570398087034 6.697126985302556 0.10021333416504064 -0.7591722015360475 0.9178560606649225 0.21987482881589876
Ni 0.603820389855126 0.24461196384117553 0.5141229620715434 1.6657395766610281 1.536882056864966 -3.0096821956483586
Ni 8.07595870912906 0.13396247850984255 6.80432705757797 0.38383484874204865 -0.9794712623735584 0.011684635426779878
Ni 8.620215547894311 2.5416990133138126 1.2128321191701321 0.8637780478735962 0.7573127797298054 -0.5181145679949465
Ni 6.789217069541111 1.0055954430360108 5.014699784473482 0.5625049211848634 -0.07861019360473559 -1.3903286624510378
Ni 1.1139537785498548 7.497117108878291 2.341454513145644 -0.799390682736462 0.9414122507183077 -1.377750054455079
Ni 7.955546460414026 3.958459779807214 3.633560597262752 -0.11252844361873524 0.5484345591347264 -0.600913602870049
Ni 8.143578443259937 4.290984648492638 12.508926673111276 -0.9285348805350073 -1.1038177816731443 0.1463363933071157
Ni 8.279724220784942 7.4855979181424175 9.234045217252739 0.06034687651917348 -0.3877274989282355 -0.6643442605208688
Ni 7.182283397011453 0.7628885412661811 0.1238136273799996 0.5033860035355202 1.5456801147725703 -0.42901350216121603
Ni 1.8064828127823604 6.325277357684833 9.038071246332992 1.1701033922742556 0.9069450701793735 -0.5456965913782731
Ni 0.5215836999265949 5.169125819838185 1.2845529027172051 -0.5568955454178861 -0.8445847627745972 0.25915125781801823
Ni 6.614462517401773 2.3738596008530504 7.0046250299926704 -1.2274019688854085 -0.7850434128758544 -0.33653503521482037
Ni 3.618693500108444 4.636796010977267 0.5607371664081403 2.0169165301587397 -0.6335378166629735 -1.4232331264885425
Ni 6.034460841294048 6.0048245283858614 4.7920377246788926 1.8427844547955943 -0.608617656382526 -1.7091680801583082
Ni 5.932265408770285 3.0233208188960456 9.398819491785199 -1.5751629547230355 -0.455968433483505 -2.57828399530505
P 0.6295033817570271 5.7142074000329925 12.370350174142242 0.3554964068086716 0.1634709961048733 0.4627893130600804
P 4.25280183923203 6.210457037124036 12.445985307397281 0.9363399784017228 0.9248931700173619 -0.19087638470101964
P 2.596122884571811 8.865136563194254 1.0825447247227573 1.1284309522361342 -1.232099117250762 0.31695891285510575
P 6.361629422233681 8.03436817703864 5.867994487367105 0.6873898294864227 -0.06863354200799793 -0.43385977450992375
P 4.842247257862791 1.7210994170918348 12.378202437599018 0.15241242429786653 -2.3182526488749233 1.286584392782836
P 4.3462060719022935 6.2774061024001115 8.129436393516226 0.17149386640934983 0.10615005089621718 0.9910908488903576
P 4.979299344651044 1.0774295152409896 3.772946430403866 -0.9661449775782975 1.4653789066186569 0.17213535664809065
P 0.4141008591610479 5.881222071064199 3.5517299338841557 -1.922248254649877 -1.3856276574309427 -0.23017286830779715
Ni 0.7645461809086603 0.1156287484236135 4.543787835455042 -0.8729633139172902 0.1943491737409685 0.27313703057414895
Ni 2.0404012336264814 6.877953809505652 4.363426854213255 0.09419673518908293 -0.017684047543324383 3.191795746555084
Ni 6.251458468193342 5.746100423006663 9.1257385413669 0.3375814742014638 0.41775926940363534 -0.15169817183966133
Ni 8.964259607315606 2.4568231508107057 9.91012292573878 0.1876707332795284 0.05105028170859595 1.27319203063633
Ni 2.789819300313018 5.417916775692193 6.984236696806659 -1.860633567161873 -0.2256353854487598 0.11061142910168047
Ni 0.7559915277728694 0.2666162464435561 8.789197816336028 0.479843954549522 -0.7522045119689625 0.4156442799431616
Ni 1.9631202427493863 1.2199194576087258 11.122852631962164 -1.9375537746586955 2.4287738322556427 -0.2985881236574019
Ni 4.445238485097323 7.086613391183071 1.3647839302461697 0.45423216751868867 1.0295481244252913 -0.24243677327681473
Ni 5.847335167711384 8.116543237937272 8.139809103034091 -1.1022766624382692 -0.3247791802304729 -0.709934547556158
Ni 5.220975772788561 3.191676827636859 4.558949483119906 1.1312697072365099 0.03367373810336136 0.5642702406154024
Ni 0.8047699986301008 7.499156304720597 6.615224723492163 0.1910242231327936 0.08249024538543213 0.1096801755366627
Ni 5.299679669208954 4.656200092303392 6.748389649850347 0.3325554817417821 -0.3667989763056844 0.8226905338046671
Ni 1.0262411680527839 7.35050345936278 11.081294727005226 0.17273030991961222 0.7152865558966908 0.3287268520243113
Ni 4.563847178378494 0.5127562477025666 10.271269040957554 0.9607772855084807 0.31101735055969015 -0.12764832997930917
Ni 8.066089001252296 7.460873801441032 4.495318416056578 0.3646243372518688 0.22617557422294596 0.4156159978083874
Ni 7.326259686570915 6.364203340541303 6.926004514024495 -0.32931357776571674 -0.08726709794878519 -0.3631804057164907
Ni 2.647347484130547 5.706784727166997 2.3392784646045874 -0.17551558597423322 -0.7521129806964209 1.2088285767585956
Ni 2.6464593010525648 5.344868249074463 11.164517481412169 0.16174398611143756 -0.49789824094807156 0.5282007485863548
Ni 1.3326280775861568 3.3952701405327264 3.4977954696283104 -0.6815827358863423 0.7484116205854335 1.8439435081007016
Ni 1.5193459120003598 1.33399660457366 2.365370201984213 -0.006186588426686119 1.2956377612343557 -0.218345793765882
Ni 1.2101041282877578 3.534325170792755 7.6631665605441395 -0.10705302232646079 0.236117001706374 1.8182864696542298
Ni 3.7571684924399946 2.8189843324043156 6.78228108474948 0.08199247981340718 0.18942859651089958 0.16499591738983196
Ni 4.404599577733316 6.817539234017588 5.969682386703449 -1.4063893154583262 3.029022290737867 1.029791350784349
Ni 8.695810803541764 7.3687202755540495 0.34225137969859387 -0.9405421894085285 -1.620017649143881 -0.7818375043440471
P 9.12517481700516 5.881638973325293 7.936858363405867 0.7672850604511688 -0.6109038813135415 0.4636352060001434
P 8.665413190852451 1.8462335370683858 7.88133242008376 0.33793448666550835 1.0566187553898385 -1.0748226799923748
P 2.032090377682504 3.4145745278398927 10.30069055857035 0.02649161853262534 -0.23331989857721108 -0.6903167733252304
P 4.042021493878612 6.725358518852709 3.6510967751973236 1.6503821203683513 0.4825456697514012 -0.5941186914354025
P 7.296269913050063 4.011433556244016 10.459601918478862 1.8488599715657128 1.836696082509669 0.5948383432102466
P 6.373819281824357 8.04342220657848 10.296909436324082 0.7553746821668281 -0.24375009277159956 0.5383720326924019
P 2.537466549054448 8.63000368793738 5.685498241501107 0.7540240816762047 0.34929182065985653 0.7264919376942068
P 6.960464204831684 3.9856037422414694 1.7043218200106014 0.21117550126968795 1.3185786863012452 -0.18548298159959023
Ni 3.1248455825650048 1.7610676556010398 0.31744932040056906 -0.3751704881988313 0.8694419310275929 0.3119293208509983
Ni 1.6576124532013636 1.3203747763470537 6.6831535090818095 -0.5378464992062351 -0.0856259628009364 0.25378382285851775
Ni 7.114083624952095 0.7875736866692471 9.122408761133729 -0.23846904687831835 0.6217876181055807 0.44733081241316514
Ni 2.990829631808631 1.879902926198022 8.931820986165462 -1.1420043200451944 -0.28389684019381434 -0.5055727267741938
Ni 6.812581722347626 1.8065190651528904 2.539072529068922 0.23156743466247862 1.7053044834378437 1.1078356445832855
Ni 4.247844327562067 7.155973239099384 10.298806341612057 0.1893964577213835 -0.7215556767348541 -0.39040864530482444
Ni 7.6351842620413795 6.6206797989476485 11.517028281970722 -0.6093815311317441 -0.720191963618108 -0.6944433938990944
Ni 7.847450954586524 4.042075872434407 8.016035353261675 0.6187377755356634 0.8311080684444009 0.6364513907653426
Ni 3.160807934130657 8.778565902368873 12.123121695458073 0.41328400724110115 -1.623320745375185 1.6915632225923514
Ni 0.3271885197434242 4.890870749836007 10.316356114185579 -0.9035031343773602 -0.08045393168169371 -0.5796120131787953
Ni 8.657791129948542 2.668382922130516 5.595112018677458 1.227348232829338 -1.106911075886487 0.1616804798633538
Ni 4.108444899782005 2.9256206803179894 10.869880871476797 -1.1607736302328977 0.06987898437932481 0.9384968768437256
Ni 1.417875526887195 3.3980706361561603 12.654931282801885 -0.008516265001127269 0.18280646320869162 -0.18915220292106133
Ni 3.252299854255469 8.387266877961864 7.921404884158238 -0.11896340061080157 -0.13393621987054996 -0.24760469063099938
Ni 5.866485482443799 8.254528823266668 3.313136769860205 0.2586118403747804 -1.324538760539422 0.1763445096334318
Ni 2.7962631591747065 8.83756663540627 3.3298509252930115 2.9320024842776924 -0.7246728822075972 -0.24666520953586552
Ni 3.8532191481589404 4.253925662718457 8.964133630328016 -0.48760765765534086 1.008486932879618 -0.3797889608074491
Ni 5.412270468982163 4.89670738149132 11.158428895781674 0.01921025437986369 0.19432346270935566 0.9487887456880368
Ni 8.338081474245435 8.971691343274236 2.195436308816086 -1.8464973848708073 -0.4262572795723175 1.9951328586247443
Ni 5.15748880889809 0.784527581235473 1.6202897314315774 -2.645439924326257 -1.1609615778739877 -2.176822434620174
Ni 6.4864100815975645 5.816366580186224 0.2665111145690194 -0.8745864513430098 0.6324610386590269 -0.20137111358475643
Ni 8.356452363011456 8.941701569753382 11.224288577323327 -0.3747763380842062 1.0847944464931059 0.08576043149627165
Ni 0.15650148357753896 5.048124470102041 5.806300203199337 0.3481888174036648 0.6141190458167295 -0.5935101113171262
Ni 7.554957766058732 6.370882839811435 2.3381782051590054 -0.1786639017952278 -0.3216128666873494 0.7553050052711573
P 8.697351529289286 1.6578390305171753 3.509826725097918 0.32631078638365096 0.6942104519526817 0.6958736985877177
P 2.1748612759218466 3.6542117601351043 1.6193870474053833 -1.4701441892177842 -1.4475462493126101 -1.3809461927948734
P 4.95234570716207 1.3803815126666554 8.169044827247923 0.4208350801154817 -0.5797467389844466 -0.6750562476217342
P 9.007834956692536 1.7180270286894268 12.241124067842131 -0.5096353268793417 0.40435482307227133 0.3659980776709439
P 6.5808203175500335 8.072469418465555 0.9777780928191624 -0.09401084443052196 -2.1951852533980776 2.019297114575774
P 1.93707291452366 3.6596405526219553 5.706549086758552 0.6803216097857315 -1.0767684908648358 -0.7462835184988373
P 7.113132000225686 4.187710707945611 5.632492744240091 -1.111455243613744 0.5181364223718173 0.788677667194332
P 2.471695685820593 8.540415017265389 9.950341305604642 0.12079042651721132 -0.20248362992264482 -0.17724748106367538
