# total energy = -340866.9612063479 ev
CRYSTAL
PRIMVEC
9.28943955613018 0.00000000000000 0.00000000000000
0.00000000000000 9.28943955613018 0.00000000000000
0.00000000000000 0.00000000000000 13.59603378133548
PRIMCOORD
 96 1
Ni 9.153451608500617 2.315299954943106 4.89602707090607 0.1318212304100762 2.2181578030338507 0.3475619824529434
Ni 2.845327516848052 2.010634200560707 8.016697296727383 0.7645005557274962 0.5218948609729851 1.1320448948396373
Ni 8.732565673824954 6.823019156259315 9.389611460749636 -1.0967235938305242 -0.08409127132396486 -1.3337764770876062
Ni 3.8968084877996056 8.568755693864006 0.3919549036225623 0.7814122438811703 1.6720750319607525 -1.237070088102792
Ni 2.4237634530730836 2.63672385857409 5.703754072640356 0.5504981265319746 0.1413152859434405 1.4270830963622518
Ni 0.6205670861019169 2.8414073732876846 2.6063464617571284 0.5488009413352096 -0.2431595103754522 -0.5354114074021811
Ni 4.625128429893187 1.859216333181584 1.3417898962520847 -0.6567803321306818 0.9756346622362874 -1.116346253157458
Ni 0.5440351080534725 5.348051207511476 1.398664490916421 0.815522298191002 -2.012685779906844 -0.6371227058007544
Ni 4.781488279201494 7.450799492301103 2.184827916236771 0.8702546567368754 -0.11985865873156133 -0.060486230310515185
Ni 2.67758810388702 6.338519138404988 0.9051156298342402 0.9645683771197967 1.2635683915036366 0.3306744626689853
Ni 1.8938102066858697 3.66395939186555 11.304082310309 0.4736527381371456 1.2801273243035824 -1.1372873741854994
Ni 0.16102129015805172 5.745518464661816 11.172799303515411 -0.15992518773514391 -3.7443695246691644 -0.6747034922680057
Ni 5.34604468853271 4.928447215516692 1.2490785010493939 -1.0736219748160543 -0.48078549252718494 -1.9001534796333661
Ni 5.958599632879136 9.141839808854979 10.700160042291124 -1.1115053801253891 0.5588716953076504 1.1244773669050245
Ni 0.3319553414375919 1.2372883441611986 0.7567855722168854 -0.34515542989397974 -1.8066727966747014 0.15289167792713024
Ni 0.8955632989737523 2.287710318985069 9.55130902211905 -0.3283987792609312 -0.9012248798661446 -0.3307179143124111
Ni 7.618882614531645 3.030874785745635 7.359097859195597 0.6683729220642876 -0.2358256957182003 0.9015835487571442
Ni 3.99157006234773 9.09972148918032 8.536527840655515 0.5977969116179382 -0.18812170477401796 -0.7966573429656989
Ni 2.2906272030560535 0.24889381621241224 6.60846096712707 0.7877147890604305 -0.6314480240134802 0.36214425114249243
Ni 8.533455822941265 0.6199586278004855 2.7122590797409525 -0.6770383110487695 -0.25799683249860084 0.7527436723018842
Ni 5.930369025580661 4.182393733004291 8.779557233574895 2.5798765366031504 1.0868790969362765 -1.3312308278476168
Ni 3.169473226315974 6.266210139651669 3.369763764987631 -0.7191972038050065 0.7349732356923407 0.01607479407467554
Ni 0.14978664176490378 0.9849685825813371 7.333048412342557 -1.5476320962926184 3.1421924817056595 0.6251117973828073
Ni 6.375221714724921 8.177196520373368 8.572435240935716 1.7789478199556072 -0.045488214239786176 0.09846193822334011
P 7.083272099357076 6.0059200387950415 7.8241773743785865 0.8225187841134932 0.3750015667211348 0.304380819079779
P 4.106303932286353 3.517743610727673 11.457635819878947 1.1676040228911697 0.611958804940617 -2.232191141198465
P 7.5520729640905016 1.066176864583073 8.839175928731489 0.62545298277231 -0.4219717648230862 1.0792591184971736
P 0.4350095988206457 8.308530619085394 7.174368989937038 0.6334794526212122 -2.046435365553463 -0.3790106878805279
P 0.5401697721874326 8.151334720202602 3.1601670656079737 0.6179129656415229 -0.42412532083097926 0.4849946455125261
P 2.1361902677690647 0.42988554387301847 9.844793077914685 1.6273753750605326 -0.8182666937053585 -1.6581993024199249
P 7.596411459857407 4.46802542540756 11.017260640678042 0.6533162848414812 -0.6532779754043782 -2.1547603126138117
P 4.388935135661188 4.443464146797106 6.867383662457427 -1.493053746826106 -0.5362552434597152 0.9483753122997021
Ni 7.389321980257235 1.6997445215682465 13.371468484929782 0.6942834712824624 0.21288451354099466 0.12140054929738447
Ni 1.3984601232426577 1.1801768687840912 11.614317083801444 -0.03709253397692321 -0.6214405191788072 1.7329484704073577
Ni 8.924624839963812 2.8757132741607583 11.86327406820393 -0.38649542629334727 1.2789420457462295 0.04666963614239704
Ni 5.118564888754798 7.114001565939295 12.63363894339841 0.4803442912247083 -0.4169912808893593 0.20562783197858137
Ni 3.056913085271014 4.116884604123459 1.9692228072484748 -0.4115662532190461 -0.4427120826942311 0.2941149183773967
Ni 3.3760332078523034 5.971354033609906 11.313695022527643 -0.7040356655732198 0.7776486630736801 -0.5584837158406124
Ni 6.751118892853523 0.7911360624005982 6.931978710470156 -0.5833951343703113 0.6490176574661274 -2.2230341572895456
Ni 2.1122142238607506 7.672947153681737 8.47990034508764 -0.47767445770202893 -1.1221358632560416 0.3197719568238686
Ni 8.401740857200862 6.960094128716146 1.9208480499247456 -0.11958920712025856 1.4673532567362082 1.4767496103494437
Ni 6.8704417460121014 5.028866058852171 12.837728862914119 0.3422709092573331 0.9929554129029221 2.044688300955369
Ni 7.224295083693424 7.057540351342342 11.278957162707751 0.8878973095193031 -0.24987188939862126 -1.2098894139229421
Ni 5.996983597787758 5.263294359538033 3.28714070131707 0.6371679572163931 -0.5265328739656286 1.59695793911094
Ni 4.043590924760189 1.4587114292439456 10.225590435493748 -1.1534007348075943 0.8919897344211218 1.2181182295906376
Ni 7.306506625184543 8.41731924760545 13.076542708090145 0.38894517338542045 0.04894557666076731 1.0580714286759647
Ni 2.5935186744525986 8.388828535994913 4.71430240645183 0.5367257553382304 0.173091807024089 -2.257058079643474
Ni 6.997409808057369 2.77600971768345 2.1272352478823486 -0.036735150637504474 0.3686514561333909 -0.3021362460199764
Ni 4.336663458376383 0.7636374629517835 3.239771990314639 -0.31075124138249705 -0.6477164221562006 1.5631384194583338
Ni 5.674965170014918 5.441465813300707 10.766699370036518 -1.3367155051112722 -0.29942578906734885 -0.22332190682423475
Ni 7.985434616305438 0.9435376814456997 10.945473708436793 1.0626497920752667 -0.8041716490648732 0.7616178348630626
Ni 4.780243494279481 6.361501212263636 7.967793041339814 0.7549774467284094 -0.09810609754581813 1.0281520154087134
Ni 5.386147199788887 2.7414715808174637 5.4150011284923405 0.8391373665067806 -0.38274161567786985 -0.06254362706017615
Ni 0.19015668888491563 8.932604468680294 9.566631952931434 -0.675289960899095 1.2580515754504655 -1.0384863074551858
Ni 0.44597299557407155 0.21945093703093185 4.988833218393869 -0.655615108177987 -2.171244426311764 -0.24107203171880418
Ni 6.265829272623292 0.21355864541874917 1.5550466348800471 0.2658276413969293 -0.44158028308263303 0.06442798856708258
P 4.762537822179812 3.233570360359897 2.9567840724546897 1.2561641286197658 -0.010801204380562044 0.8391625633177612
P 1.9460354367720925 1.4990090187341687 4.086029730105069 0.2618231482232265 -0.8306149308580663 -1.9268389593443527
P 0.05940968276297199 9.069261416349882 12.730878011518927 -0.15535659452785502 -0.7474631406292354 -0.7599959829889233
P 8.879571057338735 3.3315182127307845 0.5555122108232214 -1.179107395545079 0.32915339803876864 0.9332232871496121
P 1.8330665603796068 5.39367164595926 9.673088932082647 -0.8182564092927133 0.897526605078951 0.3686152035788168
P 4.349278517511404 1.0585130768169515 6.376662506824952 0.3446571501013226 -0.5705321623647142 1.0378484167608706
P 7.531942748224823 3.6886321437526024 5.390718533073382 -0.15994807055327936 0.9485596603963664 -1.9136186039993364
P 4.993872739440076 6.820594612493306 4.413530785198593 0.016400038624578207 0.9715005854632558 1.0064940708193053
Ni 5.5469381118419685 3.193523585742019 13.086291046128652 1.166258821717185 0.8241331797884646 0.3857773171804001
Ni 7.841754852210168 6.506221393607154 4.377719066147473 -0.5785331782923199 0.7607698850404705 0.33078399166365613
Ni 3.8298130485641306 4.484244787152587 9.287804775120511 -1.7998953687415518 -1.1659973405256823 0.8998879062222761
Ni 6.206767014905718 2.579658830395565 10.71633945944537 0.27404128755597323 0.8855586340837974 1.2872819330704928
Ni 3.954217225247641 1.7642782592788457 12.654644224485383 -2.0301890788979295 -2.310015862787428 -0.4901404513795236
Ni 0.09212708944452239 6.203497132125506 7.22559839208565 -1.277204751340149 -0.773511500976855 0.7759082833438058
Ni 6.0866174016123695 5.278519751233394 5.837919592577975 0.6940024497069338 0.8453720345625827 0.22878061594596083
Ni 3.137954157357853 8.534654160664696 11.73884295214524 2.4262659782321245 1.101216082384239 -0.49558450521323033
Ni 8.90691916786414 4.200777534203266 9.181266048899793 -0.16987535696932035 1.2791377066968035 -0.01358725176613144
Ni 3.4942599071243343 6.82037166594011 6.185923370069811 -0.9542387130590146 -0.7461192250068311 -1.1835998840987938
Ni 6.373967640363192 8.429079678286552 3.75613571534057 0.4126414885610958 0.4830256947116133 0.7146314388111951
Ni 1.2651566633107303 4.754112300356937 5.50797077011915 -0.8124457161482073 -0.6893245846152903 -0.9011845135465124
Ni 1.304097994602343 7.594079810488562 11.186490079769605 -1.0458445475924698 0.7944608495350124 0.1608178747527424
Ni 1.5913832072751501 2.825271616500106 13.44540313563349 1.1675747123151312 2.5167258720865946 0.1987467885880319
Ni 3.442573464541669 4.489326110677518 13.22198003417978 0.35176547901132965 -0.2903173990081774 0.3336780253819995
Ni 8.821948662777219 6.595687987516867 13.105176477072318 0.15013905488265755 1.0062061072652413 1.3172499401874926
Ni 2.53867382236632 8.71114422583868 2.1476162786203727 -1.3662168570044986 0.10327015824526085 1.1687419931503549
Ni 0.6961320334758726 6.9827417827449985 5.216336241771072 0.5936301818347582 1.2932332655579213 -1.3870402215077533
Ni 8.570297740856946 4.597371584020253 3.465098497966264 -0.20429882875451266 -0.7293826289784405 0.6048329925291133
Ni 2.115279738967199 5.060598784923771 7.595343174290008 1.604299981298308 0.5571858229647951 0.09502951550302344
Ni 5.56016627399828 8.113888988705348 6.422603430942955 -2.4563255166216664 0.0006155220968118431 -1.8068928831053075
Ni 3.75346314353413 4.348126626986557 4.646308352446831 -0.1257259161456157 0.3564852530845022 -0.19814103668323296
Ni 7.755688193236698 8.202761058473204 6.141953665059652 2.0003655677785934 -0.9530783742023264 -0.45115995635126815
Ni 5.591220870970575 1.9451808083181734 8.622088225164436 -0.7618538621332686 -0.7973890789254009 -1.6101181306419818
P 1.6124237882330468 5.60715226008439 12.801618023904128 -0.5019276738224387 0.39252672008909173 0.2501035457934531
P 4.800327262946577 7.507093496983157 9.86530973447257 -0.8577030453241099 -1.1157633840707946 1.819504401221731
P 1.0722986053562535 3.209352791018954 7.484684581555019 -1.2857840083687275 -0.521091134124767 -0.27099093076542363
P 7.366646457909233 1.0927632410517263 4.547818925740471 -0.5898064372132938 -0.8257547745522875 0.5215256505590243
P 1.5197244693019871 4.896157123062101 3.3850588274808655 -0.7039737019870328 -0.38278455310066334 -0.02005203355486869
P 2.529923170153367 1.1346400352937562 0.5723084467746442 0.6831266833346945 -1.9075243181761403 1.2730678463536398
P 6.590160770885544 6.67272531108589 0.9752053814392845 -1.0692778389147457 0.24897148907153893 -1.0539062415546818
P 5.725360380476988 0.4860950146536525 12.903791642402057 -1.7536062558670251 -0.05361881376672056 -0.05800948663524848
