# total energy = -340859.899482296 ev
CRYSTAL
PRIMVEC
9.39126897214830 0.00000000000000 0.00000000000000
0.00000000000000 9.39126897214830 0.00000000000000
0.00000000000000 0.00000000000000 13.74507142475450
PRIMCOORD
 96 1
Ni 0.4655937485730331 3.2742658523152333 4.008571034720793 1.5969530540149335 -1.3249197980279248 -2.1034938011293516
Ni 3.9684872214098745 0.912639741349931 6.710522638556096 3.021259873183629 0.8944230264529629 -0.06304704905915594
Ni 2.7144804954847324 8.320410554921223 8.798260848349717 0.32300948992455986 1.205718313264388 -0.7224437357667622
Ni 8.416868276329884 5.416564516209516 2.859276955442187 -1.4179446243960936 -1.016328540411224 -1.30631992353855
Ni 5.955585777817102 2.8679713920579153 6.050868651504197 -0.5000389414401583 0.09281630990178853 0.5249364760127863
Ni 6.678882514985078 1.7675119103185009 8.18997334489404 0.7400773896881254 1.2043306888882421 2.2704136750147734
Ni 0.617291851940402 1.053456181607942 0.933357819355933 -0.43908039947891475 -0.42657635347463313 0.635788303260047
Ni 0.12396662585323832 5.528893481818415 4.741238379855039 0.8710218739202032 1.127069553112233 1.2321029739055038
Ni 6.098380019275451 0.07678864812287604 11.563440108222013 1.1799206354749938 0.5502317602444653 1.04650069311923
Ni 7.295184527198436 7.486775801120945 5.983642193230245 0.05335090481731457 -0.5792368892275637 -0.760353109218026
Ni 0.20408447875066119 7.18288373539581 7.186858120334 0.7256547865048921 0.20433276731624161 0.9326018515155294
Ni 3.7319775090200658 0.9323877012932795 10.434886645994427 -0.6474181741894915 1.284289940321704 -0.1339110230595694
Ni 5.1621644368365995 6.550344219500671 12.295694237530926 0.5559686627282424 2.7205073948850567 -0.3509987760486342
Ni 5.1416163407951085 6.765845663679869 4.596145155804845 0.6185721964920766 0.856439605230654 -0.4773137319285005
Ni 1.6795532871354106 5.2987886147212455 13.422419219731418 1.7984293257189867 0.0942422437150377 -0.4880048930937595
Ni 1.3439938631598602 9.208702492890362 3.118935206192449 -0.8310296497979818 0.2973344537559589 0.21532834709579693
Ni 2.111701910282228 9.285748461777194 6.762918405208146 -0.8973497131814545 -0.9731712882974596 -0.8435583783926116
Ni 8.261067127642347 0.05563669350027574 10.371439234268507 -0.527695269704846 1.146641818817206 0.02306562357021189
Ni 1.9167391708757622 5.314528381158878 6.297290848067585 1.075242798248929 2.1477959654808365 1.5337717933707586
Ni 4.300872396545377 3.994416514449434 2.0622559411469203 -0.8087829225846394 1.1927802650464814 0.40942966649201745
Ni 7.599048419117299 7.283436049982757 1.596943930636613 0.7891684907878215 1.0183977642354267 -0.43848261799391586
Ni 4.780343622961423 2.0275467509459397 3.4173268058062956 -0.6663666902675363 -0.5607838247286987 0.495945745207391
Ni 3.249688901976759 5.305259198895189 8.700905321647834 0.3671373334817096 -0.33438122209661125 -1.192466076240172
Ni 6.289548686103871 9.521431742516342 6.986372375771227 -0.2501878779771433 -3.277982466955497 -0.06872301639801068
P 6.805335948805312 5.155844112962778 6.1745882869891116 1.0021165105768999 -0.9052288588192151 -0.3292310453542394
P 1.5086228044794818 0.16484587962792058 10.827061333674788 -1.3760801229518236 0.6944261675079137 -0.985573261506238
P 5.159121665759157 3.1679566899799156 8.623754170550917 0.13266352380571345 -1.200817533528661 -1.0819837165171882
P 3.1573821213589293 0.7519767328266173 2.3919993523809278 1.5650073543462726 -2.3202727646287458 0.2930610231915856
P 8.369517499254382 2.777815211985561 10.46662443876052 2.9177161495620076 -0.5721576137832791 0.2707965553664304
P 9.450339838021785 5.660596634874112 0.8065446999422853 -1.7918043642033015 1.3082014568319793 1.1889691188305072
P 2.972101780041484 3.6170377706965717 4.541124529535065 -0.10020720304922097 -0.7379158632604323 -0.2663097232396704
P 5.612813859435764 4.620081621614055 12.657533248870692 0.8770711654380765 -2.1604951582150598 0.4719370409976194
Ni 5.168804063848178 8.717191659927154 2.858727566219872 1.0731373218701519 0.9927939476243934 0.8146211265329711
Ni 7.48969648570454 3.8910749930414976 8.784351440192928 0.5192988181110346 1.103075504190481 -0.40090311707824505
Ni 1.4492042470505462 3.1550624779758176 6.227781372358676 0.4668801953000024 -1.1009234908444845 -0.5132307575400838
Ni 2.405150885148983 2.597239896315642 1.9083659156515422 -0.8070811094021844 0.7653526193151464 -0.12226084041515074
Ni 0.6345267083642339 8.026304191241438 1.128349671695547 -0.25557331065877276 -1.5804686832066652 0.47594204839195453
Ni 3.1061339677490505 5.6784776105884625 4.344075050210674 0.6466856668988411 0.15472924535650126 -1.3532304720471597
Ni 7.501585831951582 9.054788989223091 4.1074949033051835 0.5234174682650985 1.1047662616293425 -0.3243261518534543
Ni 7.532886930720452 5.162333479674236 11.05396471725251 -2.670270353106375 -0.4978933558520651 -0.9184484428332828
Ni 3.4347062877689933 5.299173656740305 11.742153135297311 -1.0938254463471226 0.11284443219725726 -0.8960083686622117
Ni 4.46088083363629 1.5866079002420683 0.6323958294831487 0.40358837721989205 0.34089176952161937 0.372318620572333
Ni 4.600500826254591 8.261893559293009 10.536091653760023 0.9010449026448546 -2.6891995859107105 -1.256606615473823
Ni 3.5505757616994833 3.768321719111733 13.635605716161885 0.2961879988563415 -0.44962475065366436 -0.9012511051183899
Ni 8.25793044387733 3.471163193085751 5.420574587968984 -0.6895616403267608 1.1156001190200528 2.5017851916163623
Ni 5.254884433279761 7.316793836609528 8.317444792247592 -1.585708848559682 1.5860304935651588 0.7253087160193831
Ni 6.38830726835813 2.8832415950576697 10.640279328483013 -2.6039572317014383 -0.5389536162274847 1.083706612745566
Ni 5.417550599429058 6.534858017319492 1.5334824320075577 -0.7627532340190863 -0.4394681218356367 0.06212196614172527
Ni 1.4324032672433125 4.731602938109806 2.352056408101372 0.571703556964996 1.5676486486238614 0.6416028530592951
Ni 6.842947980179248 2.371501969190728 13.219872091676367 0.2537758524387178 -0.04241600307236566 0.26908702887449143
Ni 9.321050241036776 2.645360757429261 7.897808156466441 -0.8652541181984905 -0.7755102765744386 0.9749546054501274
Ni 5.367485745682629 4.861756531820509 9.594526804636878 1.44896549825764 4.066323833856333 1.2745071499033276
Ni 5.96001845667066 9.095481356749499 0.3750562829891231 0.35088847572301507 -0.8859558695222162 -0.5546571430056706
Ni 5.815712220942348 4.478940243457034 3.9488078177284556 -0.16477454540764525 0.9505880036803048 3.3372438237199753
Ni 3.7553335944200597 3.3810070130133973 10.363014327066121 -0.10388105235638238 -1.2621661118394714 -0.14823001078540277
Ni 1.7836461100439496 3.508784615728444 11.599245259486997 -0.5956233010053871 0.5110964848059004 -0.7205192650505396
P 1.554893585647866 2.781017634631881 13.5558156185441 -0.808198253725763 0.4868247567427293 0.8840234283861935
P 5.03374822784604 1.9038449588716637 12.13383290311415 -1.0824228609371358 -0.6619703609720535 0.294491584990525
P 0.159731394662566 1.4251625990312515 6.047529116334016 0.025503029367110918 -0.17310389120894704 -0.0934734838698132
P 6.725538338172521 7.064187489569301 10.323029122077156 -0.3081883657513273 0.7884403543725453 0.041785825687534486
P 3.3625437786360797 7.384767839876581 6.7502317402435885 -0.31064042683624565 0.12187851737506751 -0.0740004627468661
P 1.5721265638179462 7.126827252182073 4.15351305934399 -1.993981775739437 0.44276221920587616 -0.8581164787124448
P 2.8254759009300607 6.771377120978059 10.080429171898084 -0.6944660196069137 -1.5420841698911958 2.221814683060148
P 8.06500560979125 8.579506268672906 7.866950325582927 -0.9222117665304568 -0.6591367481780003 0.39823482621746253
Ni 2.677807590986551 1.5254989144367757 4.778432499769264 -0.7576272256464306 -0.48639846783858814 -0.7504965281389204
Ni 8.903918256633261 3.831675218150077 12.417242611679098 0.2722847098761827 -1.2152061981501654 0.39382101342048303
Ni 2.825485292198818 1.344284992491344 12.41108475675478 -0.6270792055218233 1.4573164413254966 0.09684805676900095
Ni 7.270372795141024 7.173022903200396 12.655911376756265 1.3901746533716768 1.0593549233740787 0.16888419670064464
Ni 0.3641539590884985 8.671324703315346 5.4818638861344215 -0.8533643087394399 0.3028330149766849 -2.0609217320950957
Ni 0.2045305640166442 7.692087718698217 9.983965815728169 1.2531209709180677 -0.7576735055033339 0.1844432274811662
Ni 3.7616257444876093 3.3848010855914423 7.080347045720395 -0.7902336988275424 0.17908453427241416 -0.5742569195144691
Ni 9.488937952615263 1.5405625095238646 12.338482736244014 -0.386139071395193 0.3854474446448071 -1.150191226731361
Ni 9.228931285794097 3.3141881358035223 1.3439506633235756 -0.20793745394836444 -0.5202948634757169 0.13747122960700195
Ni 2.739048054554449 8.128453021517169 11.834753862627252 0.16058159037222022 -1.5000114090908618 0.07148026742817366
Ni 2.851104673369379 9.135976507631998 0.11937429543080279 0.24447231564960475 -1.6399706952270399 3.090727481057148
Ni 4.807737953927157 5.757552093526923 6.6789088105375995 -0.6582654013166405 -1.4177217097520098 0.014943508683709748
Ni 9.279127617303132 5.9764907420713795 11.944810141196825 2.400499410790982 2.2506804582519044 0.6689969288015316
Ni 3.2065923696484226 8.304736527364893 4.6576682965623455 0.9921863959473816 0.8264176049472671 0.8953447669362838
Ni 7.157752700200642 2.132559918192717 4.1027109910000945 -1.3107507056163943 1.0035172475791685 0.3681050967116176
Ni 6.664373004754684 1.1977530260674962 2.149756270414643 0.5571210311651308 0.07608974117572702 -2.4691653486988123
Ni 0.6241747128128009 8.74240721654114 12.717407282834367 -1.1179308240357584 -0.8459358774858527 -0.7353607009387465
Ni 9.001352669992706 4.992792904794421 7.087274984682829 -0.6746980929513671 -0.8842450574786964 -0.23631600509105755
Ni 7.218467252718117 6.367684042166578 8.018489716508293 1.2207852348998396 -0.5445617064428816 1.7305874263743486
Ni 2.444641170274425 1.545164231215058 8.485450833812424 -0.3456961328887982 0.9698000578323813 0.3129114822586095
Ni 3.269758043311615 7.715152674766728 2.2144959207215993 -1.4251609396388745 -0.70297637107077 -0.30623124202495644
Ni 0.8896658805883685 5.5365755396620795 8.915053483999072 -0.426906226010226 0.5244747058850194 1.1452410818149372
Ni 7.492767430588255 4.7686139282832585 0.3745294328118253 -1.5646237457546086 0.7210322001312163 0.3182537204071293
Ni 0.4070579704073058 0.20353227214771802 8.357965299555737 0.33530167702835156 0.33362480354656093 0.5898997682580487
P 7.094173810712117 7.019231486026972 3.797653468822148 0.32104748110218256 -1.1156456275460078 -1.3580325214214934
P 5.824812360368402 0.754532097055543 5.103545076378929 -1.6222308547451159 0.4859552096535825 -1.309588824097809
P 3.741622342034056 6.849071087409161 0.1258815055529001 -1.389097361147098 0.48104414550521024 0.4396460421743976
P 1.7682538205503466 3.674512335492697 8.40865749005517 0.7887985090429125 -0.3234938857601461 0.1006679447357234
P 8.146155563125125 9.22880919930025 0.3698328593061811 0.031869080794454795 -0.7376045026676006 -0.3960254772709696
P 8.740801309583603 1.4863467149866043 2.963491864844574 2.318860200551935 -0.6364796729001168 -1.1938328746807119
P 4.885610354464654 0.30742787841234853 8.857886952818193 0.6991060894820864 -0.7922473868234613 -2.229005030161
P 6.340815622251265 3.7869727788642016 2.207472190817837 2.052472572886478 -1.498688319404064 -3.129571193397223
