# total energy = -381161.41294245864 ev
CRYSTAL
PRIMVEC
9.31980669767085 0.00000000000000 0.00000000000000
0.00000000000000 9.31980669767085 0.00000000000000
0.00000000000000 0.00000000000000 13.64047916254449
PRIMCOORD
 96 1
Ni 3.682730878280876 6.55114365920203 12.022827248544013 0.2832831178692154 1.1448975824325895 -0.8993754853622318
Ni -0.21987474010334807 3.7504113134514205 7.852060040337064 2.398690125496385 -0.13761161183960816 0.567842531347693
Ni 4.333505010290459 5.043292157378517 7.539433653461371 0.08946282004852334 0.30886173766926805 -0.8974684981475061
Ni 1.6189063166806053 8.185381057658393 7.717046798780314 -0.6193324716968689 -0.8432038232666703 -0.7360857520302292
Ni 8.9621682940388 9.165507833360053 11.619805261991969 1.3073424512657936 0.3352194017271904 0.013456125504905856
Ni 4.667731912808506 3.6961513997137576 4.118497073167841 -0.6152816986662629 0.3619815003123831 0.32492444755908556
Ni 8.953855026595654 4.831070842414531 12.460168490738031 -2.0884780444468096 -0.6122534533629004 -1.8451827798244416
Ni 4.608513861985918 2.813388643046341 0.5401331165633377 -0.6841075591907251 -0.2707847282918885 0.10192598551254058
Ni 0.8958496290257859 7.570320424350754 12.665170683547911 0.8361420313238825 0.4923274317285134 0.3850190988581369
Ni 3.3020913391407816 -0.05984340984213461 4.203081773459885 0.4238867224576119 0.136641534616855 -0.6304141834323272
Ni 8.157142043810039 2.944630158892059 2.5658284856037445 1.1720715717442203 -1.5562620040534747 1.723662160009425
Ni 0.8458553907463381 5.623319637862405 0.26511214911936354 1.4432116264929984 -0.24641941207364654 2.4379986932880207
Ni 1.1977815378846521 3.4735757796720423 5.835246446939391 -1.9415994054829788 -1.467574628718395 -0.04748698983736983
Ni 2.7935094956738853 4.2541654971251 1.3721774859823241 -0.7349218136291149 -1.2496139862060736 -0.9182430116906959
Ni 7.542314405666166 -0.06421067119175139 13.298703173438863 -0.08166749237382064 0.523058542263783 -1.2115657731841007
Ni 4.487263178762456 5.485209424588886 2.2453725292448823 -1.0472092891504803 1.539462930218265 -0.7587140309527063
Ni 6.5302300133024564 7.8482090962703515 8.265325426268888 0.22065310174282002 -1.8727653174284005 -0.18464325930711425
Ni 3.334757261100677 8.995607759942397 13.268844377212012 -1.3616618906439646 -0.4996455626564815 -1.050021818898611
Ni 7.134824503853758 3.4166690408740052 8.787292375903773 -0.8136695612529794 0.9197108544854742 0.16001620478705345
Ni 3.2297975997276844 2.405078598257479 10.908373169047726 0.3315591792667838 0.5307425411716021 -0.5393071429121615
Ni 6.050977601050336 3.842984951918649 6.369435390884748 0.74886413474182 2.597730791175752 -2.1198753278111684
Ni 6.57748143251406 0.6711621408197018 7.801467470477068 0.22549526032646972 1.6967316541671682 0.08059997034125474
Ni 7.912403923790967 5.594586674266868 6.906229220761002 -2.4915398597392704 -3.0349800509831986 -1.638588727277849
Ni 0.5791793780877817 0.7965610699388411 4.5695468188171535 0.006552970627169359 0.26650795529340554 0.3338042665472187
P 8.264916286761315 1.9117719177270365 12.970581676192122 -1.052391347572052 0.3650611676789713 0.5237074887016916
Ni 2.7747766845071555 2.3523564526006675 4.3585286908788525 -0.4058740879302752 0.07065288643087186 0.6211736386706657
P 4.2305118280996465 -0.13922672609828232 7.293346025453772 0.5393793909109937 0.6388049785991836 -0.24645720729011747
Ni 1.5346179862368705 8.603094787256822 1.8126967822101006 1.4276757356409282 -1.3046656757645787 1.024814466395048
P 4.936533773341257 3.7938416119772724 11.667287812406027 -1.3311683500407978 -0.8184821521502742 2.9446654244573414
P 1.6397547239343242 6.220737877369735 11.186556346854323 0.3070663363317422 -2.3989696044100173 0.33312575242295533
P 7.192858939244418 0.3674054138382256 4.472085873794784 1.5222100566750882 0.8764625853198004 0.15344035134174863
Ni 8.531369556043312 0.42820223989048783 2.525807372314107 0.8576634503354261 0.16588783307648206 0.5950214057553301
Ni 0.6906489243363765 2.686136004404285 12.112758721854142 -0.07065957129909121 0.5314853328748976 -2.5126370467292016
Ni 8.529328518408727 5.063450898947491 2.295119792650739 0.4300797386422013 0.7801927696517725 -0.9049686631792931
Ni 2.86180503807677 5.441303815928952 4.910449498767404 -0.9167422587754536 -1.0013942876988948 -0.8362680153787856
Ni 3.559094324580457 7.310223263136275 5.895142047698209 0.9630961634496445 1.064114292435935 0.09178221221031936
Ni 5.591800052108235 1.998874829749056 9.776254328215412 -0.05158532827645955 -0.6574899566031968 -0.5969235078740494
Ni 6.909303824942049 4.212617799522471 11.174948527795536 0.5157280700406408 0.3796642623041268 -1.1667956680572613
Ni 7.746194493767352 6.842741766557578 11.034479471484058 -0.13295482979388717 0.15342158228867125 2.1207549022026444
Ni 3.286154469939235 3.440881898292495 6.303960953924734 2.3001731656653934 0.4182153831044475 0.30985546904110506
Ni 5.370519885177054 0.5461602354596186 0.1454719284678474 -0.7930940510944728 0.1512268886301976 -0.6090424026247705
Ni 5.226472955130795 1.8666640540220742 5.231260539755845 0.43029545419743315 -2.142285834295885 0.5233213090068666
Ni 1.9615024054811017 1.5948332563603747 2.4211301010795983 -0.5653760720850715 -0.20185833763382008 -1.956424129200637
Ni 7.263484433284956 4.638188126043066 4.313883089578801 -0.4057180219683851 -0.9047418918804677 0.18682406900851695
Ni 2.7513839700651195 5.700813829330744 9.20673679357865 -0.8824252306611383 -0.6300984519641213 2.1852823924620686
Ni 1.5182151267077935 5.343632243278539 7.398773541115605 0.11649539868628324 0.4448679526949693 -1.5419479014236477
Ni 5.15663964464706 2.557168521356916 7.710989856503072 -2.4527079744737375 -1.2548839763557613 0.34076372858418735
Ni 8.931515450293837 6.59956005423246 8.462034855210034 1.077880492982092 4.375853287016586 -1.7224239167269495
Ni 5.784692088286252 8.459504527731543 3.4571524165685537 -1.6515118630974202 -0.06958407884672532 0.8784253654731259
Ni 1.47719865807855 7.853353629486289 4.964602234729735 -0.334384821641037 -0.17987412005324505 -0.5501340583243364
Ni 8.621240450610863 7.379926096328302 0.8205194966384994 0.6420617949735845 0.11937863377134923 -0.503543612159307
Ni 5.733572949356145 1.6520941478073348 11.874841768249466 0.5118611308860668 0.5379519144358478 1.807540029771003
Ni 9.7022914114491 5.278803668912482 4.7103299526093885 -0.9447716541088438 0.3010188445860816 -0.25117389603949647
Ni 5.0754641295912295 6.699775934071191 9.891079936802882 0.553378276293247 -0.08852770982876366 3.022201925381924
Ni 6.836040825647689 6.575701349462893 2.5737950562432084 -0.5194497418666021 -1.0430736697155518 -0.9527112206708949
Ni 2.5906732259063667 0.5039256681142102 8.979813483781074 0.7012205647219278 1.1552843249835523 -0.06379035498308369
P 0.4842170732016311 2.782856956786536 9.88069953626681 -0.23337620573644324 0.9418413678359263 -1.0667422169770855
Ni 7.720816660530037 6.857700056071311 4.719756004954677 -0.47293257214166945 1.2284489220926844 0.9644516490362746
P 7.119773016274519 5.991041925123351 0.3225240214324435 -0.4802846416313664 -0.8304187556868601 -0.3081330870333597
Ni 7.988304428339151 1.5289795032737503 10.622168433743019 -0.019927849272178583 2.239479961550395 -1.1801142395430384
P 8.633337559513558 -0.0941188623933203 8.964890609532233 -0.5305257971751057 -0.1871490564481035 -0.5432802686272967
P 3.1061424064141647 7.358071149967118 2.936767970085963 0.13447358043125873 -0.3907850548076367 0.11439326474161587
P 2.25828232527879 0.6306741052218782 11.49032984948759 -0.03059947005341182 -1.6106128108902134 0.024302067080474277
Ni 2.234283823410964 2.853370613148466 8.406040525473303 0.8925420073801661 1.7614964572483793 0.9608505619485773
Ni 2.8145442990586167 6.727893790434386 0.5661903636981939 0.5675280854310677 -0.23613294254597397 0.8791861548985503
Ni 5.0191445386058815 5.365897261127952 -0.046921498059711096 -0.22392483051555628 -1.1232818039350267 -0.1122538498011099
Ni 6.7102607164406285 8.831877398461245 10.696931921892029 -0.4939055748489107 0.47544891080561996 -0.41719748336289436
Ni 0.577127156685337 7.725970513552526 10.185386379942038 -1.1952539233979544 0.6516561235302389 -0.9698730771621619
Ni 6.741780302194798 3.5989830966170766 13.482576432817853 1.4251519407778102 -0.12149388034213915 0.4350468528394894
Ni 4.639399700894646 8.129369020289214 1.3655622872926996 -1.631086505363533 -1.4251825369054294 1.6798387350665713
Ni 5.83004226696153 8.524230584225544 5.733011897001798 -0.2643531137339318 -0.2948163153197955 1.7596606895912212
Ni 8.562600227794412 8.783852435305942 6.633146773079555 -0.12291724305222702 0.4667045889540865 -0.07568762064130191
Ni 6.5267071264263254 1.5308993834231763 1.7499782120471021 -0.5829482766408799 1.096323530178628 0.6635703584693217
Ni 6.0245373098662505 3.790943152140032 2.3800176384428835 0.7560575671664655 0.3135370316577503 -1.1352654586594642
Ni 0.6859340342024218 1.4809265806987948 7.681349143749506 -2.2100629418408584 -1.45126869246952 -0.06528647991263595
Ni 2.7645901359473366 7.942637376241152 10.312584031725445 -0.020824135834202846 -0.9453198133028301 0.14884193333778883
Ni 0.03780393131124739 7.325591624138234 2.9844005693854854 -1.200987483447622 0.7637058277403428 1.3267151993654507
Ni 4.3938787171253235 -0.005822083152167306 10.394208761457016 1.716836138226527 1.0117206093255675 0.7075709324199878
Ni 7.993430321941989 2.6672913555589477 6.287605625409065 -0.01200833731478577 -1.1842719704651539 -0.9699065015032585
Ni -0.4268079968305163 5.15023693754679 9.876034041107573 1.5440927156807924 -4.189025104243011 2.8392648501326394
Ni 5.103889539570597 5.904982831435 4.299942522940395 1.4862328672495306 1.8874468306999752 2.19090410952422
Ni 1.4718024900857458 5.638361805635093 2.664053654763265 1.5226229758427907 0.40175080979052097 -0.14174568861263975
Ni 4.645513493991848 4.184350826254465 9.700631553902435 0.12182041044362246 0.20984109872898055 -1.1914309501074385
Ni 0.6346331590445782 0.5100459850759971 0.2943670218817346 -1.6868701879920562 0.4446807763848278 -0.9704456618361802
Ni 2.3448633281339752 1.8399907676742226 -0.33247477888653193 2.129989790537351 0.8423936686605492 1.2136154566242778
Ni 2.685819130981564 1.1130644963395893 6.493550050661213 0.17121258772350514 -0.3752303949024892 -0.4079955051486522
Ni 5.528891357891604 7.583685026944332 12.948988616395008 1.4294947911275382 0.32773466331437107 -0.6031373499942451
Ni 2.7600700297702896 4.534971268495038 12.29979698753772 -0.5032379079934302 -1.2701825543860445 0.597662700032919
P 6.910636557278787 5.868877900857929 9.374364698159267 0.19006700142584687 -1.3495052006767725 -0.5775065368000183
Ni 4.013434893922792 7.22471403803441 8.157375038973804 -0.7788917914521618 2.3724260495935336 -1.2471824939464455
P 1.170670220628922 3.5198206597761783 3.2587104355896477 -0.5444218384309075 0.06077008009952115 -0.23738249868235894
Ni 0.2531082382821753 3.0917805845196717 0.780476947793795 0.5293819133786495 0.03831766463327595 -0.11403742406409394
P 5.934554577620092 6.3245605223435515 6.473471459428574 -1.15531569244212 -0.09683725813572354 -0.5794091531393698
P 0.11101007978564947 6.805201585771713 6.211969803366918 1.60786353027985 1.0353012248589846 0.47939992503356793
P 4.2529352826604185 1.845824966574906 2.747833123769336 0.5489320675964353 0.4268630314771164 -0.1266450855257754
Ni 6.826413465480906 8.61661782656176 1.5600750378298671 0.22716082095435072 -0.8127498776521873 0.15564815762634485
