# total energy = -381166.88702104 ev
CRYSTAL
PRIMVEC
9.27046152701172 0.00000000000000 0.00000000000000
0.00000000000000 9.27046152701172 0.00000000000000
0.00000000000000 0.00000000000000 13.56825751738872
PRIMCOORD
 96 1
Ni 4.1551876252538955 0.3091309485879446 12.414113669610584 -0.6201148583888481 -0.9498092165327514 0.43186588400834663
Ni 3.0117318460363793 7.828960194933416 10.40620220642963 -0.5044440124863893 0.7369329305218728 2.0201098402850564
Ni 8.501411646622197 6.133179601618739 1.0548561264323162 -1.5884234192773679 -1.111373482533215 -1.0446780380881946
Ni 9.393294917402937 8.63326541776478 6.698458958343662 -1.1485423782740285 0.3526388827552185 -0.7362970967100868
Ni 6.75277088294578 5.835783202950803 11.941314580773179 -0.34627411687945525 2.7546758132366493 -0.21196277305767364
Ni 3.4100557569330503 2.29436500932434 11.270120203637372 -1.2963103618213478 -0.158067822811431 -0.3421472391952753
Ni 5.01765572231352 3.355749394607715 10.153384675039577 0.24368684363383197 0.29776845596958396 -1.395641332913203
Ni 6.439401479449139 3.749020904093101 8.445534868151777 0.7216523502137183 -2.8069720515372043 0.027637044990978212
Ni 3.03152428092279 6.225318716530229 3.2868420557268303 0.136975520917506 0.967927523400017 0.459033445562074
Ni 7.539749613597892 6.999309530893882 6.856270948186684 -0.8355797310625094 -0.1507838875555081 0.6008881489487522
Ni 1.4560650048871377 3.8323438103034317 10.296570658081526 -0.08054340607170644 -2.154497802981044 0.3783470861546
Ni 1.6433375937116694 0.9673170144204215 7.318107716530796 -1.3416476523055667 0.7700448825844932 -0.2652488860753238
Ni 3.716453773528249 5.2505482512205 0.954748122982953 1.0782376192111944 0.36668121978089757 2.112182587152601
Ni 0.1205873795184823 4.3522590916779285 12.264822160753091 0.1697077210432045 -0.19678735086881594 1.4523634681955955
Ni 0.774390371245903 8.230945938045606 2.479680603767363 0.875888200873569 0.7244476535706685 -0.5825782948959708
Ni 4.40577746479233 2.9322098289611445 6.6527611463862515 1.9470311180215112 1.8751808688484286 -0.1640124704306401
Ni 5.304196410793172 6.438390999166883 2.7564187064629913 -0.10850338161974217 -0.24796310241168265 -1.3283560774029832
Ni 4.176843422862633 3.507571739401505 3.6832256590723422 0.5591907692099659 0.5644103657376924 -0.3537673399327068
Ni 8.057708827637011 2.742183913128995 1.0427757883056272 -1.4266244115582785 0.6153094665804049 0.7025241140246997
Ni 9.293915572212153 2.4819527938332455 8.441030351003622 2.1613621342010454 3.596060838127026 -1.4349858961490964
Ni 7.473984961099441 4.047205291971972 11.160691678391853 -0.6126324339688739 -2.4929830199437 -1.340124787903137
Ni 3.8187903958753604 2.781129121071763 -0.11078479373445874 0.4272836639543028 -1.472745117175741 1.8349808995907753
Ni 7.588790353901926 -0.05975739357274052 10.78509523043079 -1.2316103505398015 1.1705127118975327 0.7589343744936284
Ni 8.840395334704858 5.02527604150632 9.36973682113439 1.5699148189502188 -2.068874668393585 0.21421145988253432
P 1.0488229102149504 1.3978186965071302 5.087893372391688 -0.5226633637078933 -1.0585856493082222 0.8512835149510113
Ni 4.521241060347478 0.4001075476517743 9.785087788310157 1.0137782631855443 1.6004135017597083 0.6001479283486181
P 7.271137997282324 4.418413103551194 13.369509797838765 0.4856654463273055 -0.644534167773477 1.4061041801177396
Ni 3.041897927123208 0.4137805510306814 5.23881277425436 -0.7838789602541081 -0.5815133439665662 -0.4015080976520956
P 2.2561243564407603 8.019811181821721 12.680554143888497 0.8323802502886051 1.7401897253508032 -1.6040433852028118
P 9.25026096992639 0.9758921911276484 2.19790864058306 0.1166344953673088 0.2764388412538723 -0.8442692884167073
P 5.7394816509133175 1.473419308450304 7.9852861298292295 1.0121569255320375 0.039526597339712574 -0.002202406967957497
Ni 1.8962450485763815 1.0707475512015363 9.791722657466225 -0.03625589700824079 -0.17579146534343917 -0.3008352678203658
Ni 5.660080149835049 5.485786206837671 7.349857192408537 -1.7140542046060159 1.2989971646248917 -2.2264526960527915
Ni 0.3939287851919183 6.315650091487224 7.144176248570448 1.0873038431785211 -0.396622230314704 1.3550916936256145
Ni 7.8230919929272815 7.755584493703469 13.158115468698337 1.4971731683111182 1.1872804182741745 -1.648952587010676
Ni 3.0494718940094834 5.73712695374182 7.921338487746579 1.106651137356881 -0.14228510605587755 -0.27579272302944113
Ni 0.5585239715718894 6.538956963404718 11.675742748719557 0.021648688618027233 -0.8786279684022351 1.0855413519614596
Ni 5.179490165316829 1.3149963952072754 4.86799246795769 0.3386058017009201 1.5937399463942745 1.583665849987724
Ni 2.1065176518988915 5.501916809508564 5.81832692431328 0.7507760070525521 -1.2945758956287448 -1.6696671938502083
Ni 0.630365411455841 9.037188687289737 13.89145345614682 0.1850510362684942 -0.4904903785197746 -0.9304629507956557
Ni 3.7628338914377153 8.05759758210135 8.353921388396286 1.318136199447188 -1.0368739686627433 -0.7793959847820899
Ni 7.779771127248501 1.3249621411102688 6.488978052416608 -0.48206693034276976 0.10792591184971735 0.3633159028530904
Ni 8.020673334723096 0.9527809310940086 12.94601658449872 0.07480418959508406 -0.5569893906832729 -0.5376271841065773
Ni 8.75972378042779 0.4931635111863403 8.78570424823536 -0.5054184605845167 -2.987434954214384 -0.2139332665204832
Ni 7.806460785345914 2.16315090001181 9.976711931671309 -1.6683299630960235 -0.4305289103644778 1.0725253993177657
Ni 7.526956376996841 0.8213980993857254 3.710266667653218 0.3562042315089736 0.3687298747798101 1.2680958470603452
Ni 5.4718712444187005 8.648895415525196 3.6993442101435376 0.6477873846034521 -1.6157280206295916 -0.06315940626730412
Ni 5.858328964844831 7.880040436724574 11.629854892305392 -0.6171244083019566 1.211486583206733 -1.0050249424729467
Ni 2.5743885635064996 2.9048526976497637 5.302556466188298 0.28032686345436886 0.9573502621048028 1.1283970136744053
Ni 6.424652175512709 6.3439991621582505 4.766650566108616 -0.7528920249542904 1.0561739545429358 0.7456595117615932
Ni 2.4973510300610338 4.553316856463159 12.8747564025386 -1.983540525801455 -0.37556103876903063 -1.7142118132298025
Ni 5.90153858498795 6.9855985186236245 0.27223173145521434 -1.0560855085941876 -0.4855613166492734 1.9982379799126297
Ni 0.26923088313075016 3.355258060158544 5.406896435223444 -0.07443652184302019 0.47491617823060145 2.7146295959480407
Ni 1.378202400385517 6.6298723774239345 0.31606339955190604 -1.0123312463263727 -2.118387173301416 0.7876224864569403
Ni 3.822683989623507 0.851930363694106 7.325380393424655 1.2265211089423524 -0.6028061919070715 0.8932179504012681
Ni 0.8447559536900812 4.2519063480501105 1.1945397291931952 -0.5565497320426931 0.7659226328860036 -0.24036754945261185
P 0.8148457373352735 8.118578676566365 9.16976740850638 1.2314825667126854 -0.1345226885016393 -0.44974456406098023
Ni 4.923254614843583 4.342284075313629 12.203860534256815 0.5501039764173493 0.23360786213127507 0.5757815836891115
P 6.480766277792541 2.809830469272384 3.360653468638118 0.6140210867862844 0.19941527540996623 0.3311568016220426
Ni 9.24811949336491 2.8028034596031106 3.380788910592818 -1.6220647614808965 -0.9996155985319172 -2.117679862821747
P 0.4999615404613776 6.140735027582404 2.74431611922917 -0.026380546876057794 -0.3312920416483262 0.3930239714404844
P 7.719494587842675 8.170140982345389 5.072872443939018 0.06107552715508191 1.0770901358703129 0.16262973115050056
P 4.371013234898166 5.11643248751947 5.287767299268256 -0.12430306765616013 0.42916776835089315 0.23908456897513017
Ni 4.233866030350366 7.514515417925383 5.4036944178886595 -2.0314352926002046 -2.5019528275424783 -0.9102473950797292
Ni 0.3431637390851347 1.9850653383406427 11.701292140076442 0.3957976775308796 0.1934991670358474 -1.5181464281286756
Ni 1.6898938503859329 6.0278115384248565 9.75617414654565 -0.8601599915050349 1.314890953037013 -1.4988616117571347
Ni 8.307566300732342 4.391055972239815 7.07575097367743 -0.5187493733654679 -0.1553933613030614 -0.30097539294265585
Ni 8.66735290398367 5.454201745171161 4.893514047930658 0.17812679834483516 0.374692005900516 -0.4516620927986673
Ni 5.215858185016777 1.3425296652834526 2.590058424250527 -1.4243708396374113 0.37440944166309065 -1.9838997089130863
Ni 3.139098713907289 3.2896510055022787 8.589249267488116 -0.3932183468394776 -0.7819421482427114 0.1975108592984018
Ni 7.20437213496292 9.240601149246466 1.5978659810101035 1.2031518380887924 -0.49008877220598174 -0.9648892507943254
Ni 2.618682827622316 1.0284000839597927 1.171863253794765 1.7496776102365803 -0.7831076293057222 -0.735521909106959
Ni 5.996523731520109 1.4824580082227865 0.22536213318883805 -1.4633302516197444 -0.10988509245861722 1.694173663632005
Ni 5.652524723871384 3.814535254136315 1.50169421543089 0.05529748702072412 -0.3108767112167678 -1.064356233243412
Ni 3.002248164121252 8.904602549704052 3.0267796588268343 0.9887519163445357 -0.8788902209246864 1.4834432203195356
Ni 4.014462022642322 6.560900145313915 12.54951153811011 -0.953997543582486 0.5904576976440477 -1.2622609855461229
Ni 2.282081648095069 7.739092343041678 6.729625322205312 -0.26722966395077846 0.8473870081100825 -0.46853110063986403
Ni 1.527818375388691 4.525208817786065 3.455998309068916 0.6700803916736976 -1.4912933124915735 1.3789106504220832
Ni 3.122875406623346 7.656779917113605 1.2069964480488717 2.0089972753116627 0.7589850252259057 -0.5543429541993614
Ni 0.8310940748647402 7.352235992779428 4.655133405931053 0.40155206351615363 0.172483998236761 0.8497701636302785
Ni 6.514316077255735 4.1008627220059495 5.106753198870805 -0.639145392657738 -1.4851303782139715 1.5072629484469524
Ni 5.84860425093577 1.878631172096672 11.686693017613154 0.5439999204021405 -0.08982585981489692 -1.3501184087807394
Ni 0.5404410097501413 8.76614821011223 11.2944069581645 0.7416007683111873 1.2897599622973401 0.5948234308119111
Ni 6.322278471320376 8.087726581342958 8.89589202426177 -0.218729659467862 -0.36429189361311454 -0.06951928704706092
Ni 2.288635864237782 1.8322139723419852 3.2750379773470337 -0.09199278555922866 0.47799893092098317 -0.2255852489371147
Ni 5.689448971249638 8.707892631270918 6.330812857997861 2.05599961220313 1.324802812834086 1.2722445791213959
Ni 0.8913585626708702 2.1067586838928247 0.3406458817946668 0.0054867341461841 0.6664983307493941 -0.36705248707738725
Ni 7.923250056867693 7.327085231258664 3.030212510648117 -1.186493660706821 0.14341484878494656 0.971422681037469
P 3.1599294404598717 5.049295806747861 10.899937705078495 1.4103040771317001 -0.503389603079946 0.2873781138741954
Ni 7.18960429010388 4.790798263716169 2.9880152248795158 1.2190996196673005 0.7842934220837073 -0.8384305702477433
P 1.3511048419906797 4.298444063801764 7.8461837849921805 -0.8418341966126535 0.14576663684657476 -0.15077103203970163
Ni 4.766611630171135 5.88310890791339 9.675008476681018 0.5443920136342367 0.47243557790059276 0.49375465109334316
P 5.168133850218069 8.663774505919898 1.4392391176183625 -1.2879277941846077 -0.151781475582087 0.055125480219234094
P 7.002164832975856 5.719327668036008 8.973353217788878 -1.576500956808169 2.241416002230843 0.21273050446163363
P 2.746392702561515 3.4624060519230078 1.7696402126247521 0.5963519516412956 -0.7407139948308598 -0.180237931150567
Ni 8.31919145920895 7.148869883129225 10.114891865608499 -1.0331440693066658 0.403592233874634 -0.42630150254669164
