# total energy = -381165.49496909196 ev
CRYSTAL
PRIMVEC
9.28130674348675 0.00000000000000 0.00000000000000

0.00000000000000 9.28130674348675 0.00000000000000

0.00000000000000 0.00000000000000 13.58413058795460

PRIMCOORD
 96 1
Ni 4.916762991752789 0.8783392526525253 8.013727166969524 -1.4224918774471438 -0.12859758126645596 -1.0217566534053306
Ni 7.482106907753533 5.709052464744686 10.739504967784663 -0.47974368152623187 -0.8826628005932411 0.6445382815385351
Ni 5.089729425128415 8.457590814205837 12.615079797487214 0.6471327817385887 0.6047558594342746 -0.702016578260662
Ni 4.0572118884393 2.820273569656484 5.031045578543987 0.8759396229367947 0.6806869635449503 -0.4241659442609276
Ni 1.046458059490693 2.6667050674761277 5.821492712137673 0.44507209828597544 -0.4771615226213524 -1.4259001317977442
Ni 8.665779806857087 7.407420231998346 3.178781678980212 -0.05820129093108042 -0.4983818654527094 0.15480714978228824
Ni 3.2700364154897903 9.215446638999433 1.7124020312538364 0.0715273186160252 -0.0035635489815422504 1.0635735894411167
Ni 1.7062661593336481 4.2638880280834535 1.215411255809461 -0.41435307193556387 0.714291538973273 -1.230521745461313
Ni 3.905481085003758 5.179906601919442 3.333328430896445 3.0673199007664853 -0.08192023181457504 0.04018505685931789
Ni 8.044572661962041 1.1786238682087078 6.313985766310648 0.1201731046481866 -0.9395278892114013 -1.1254109344628875
Ni 2.021607838898485 5.8842185678300165 2.9088784930769473 -3.374765989035149 1.3870037118428626 -0.4096165856918429
Ni 9.144323985052372 7.676531722432254 7.905203631042759 0.5573097501371693 0.7313477231246114 0.06898424047919732
Ni 6.592586464808692 6.885346724948604 12.678245587121497 1.0308730138843019 -0.9439545575241872 0.2736859610990835
Ni 6.100770017900853 4.52355114820311 13.53191327005954 -0.013430671583609128 -0.8004337792889957 -0.6536605555547775
Ni 8.69621321182804 5.628629941392045 12.85424143903403 -1.4435576969785076 -0.37873789383511547 -0.281602901953315
Ni 0.38225897340444465 6.870932855500635 10.5914653400603 0.9684921376542354 1.3337613075789545 -0.06464807499768867
Ni 6.805555330457818 2.4168522886356105 7.858038814317874 -0.09165031461814539 -0.6584433216554015 -0.06412434128373472
Ni 0.7928491357914553 0.8869578741395722 13.5558896698953 -1.6628954223440136 -0.9395482009263755 -0.26004111662213925
Ni 0.7998184690615646 2.370362222914505 9.855246097660203 1.8208159209443027 0.31095410142192254 0.5794443772526794
Ni 7.277741813500586 4.637442063847685 8.121014432831593 0.44050093397552526 0.5867622510703314 -0.4972027575429437
Ni 0.9018803591997425 8.411119311098316 1.7800098543187686 0.2721060182064733 0.4421017028037418 -0.12522429391884887
Ni 6.127231023564832 7.063482846207372 3.8916092438724412 -0.20910859143833016 -2.4918710178264436 -0.30432142659675326
Ni 3.220520643754495 8.379711368914203 7.962080407194785 0.8075868453940093 0.8020440611989091 -1.1102409115906684
Ni 4.593764234084555 0.7661263972759421 3.833197339577018 -2.9498616239463002 -3.1687494062585815 0.779072282894084
P 0.3703185722165425 6.341499272164838 0.9551522757937587 0.7791972385077226 0.37957581635537857 1.419846983625129
Ni 4.862690098382623 7.3514817959629895 1.6821097021461215 0.6988600349095513 0.3212089463807113 -1.0158307748391988
P 5.670804199454873 3.6947490142915016 11.50832572842232 -0.5316372850717295 0.3242518469720932 -0.28276504058221624
Ni 6.77486204889669 8.989001315888327 7.895096287946275 1.8242439727892452 0.6232438909361332 0.4523357218269242
P 5.9493733415098236 0.41655804265426377 1.9574461650454207 -0.6889916267559038 -1.9472152090078596 -0.8069461264862167
P 8.573365835129188 2.0973247397075836 12.160921324757217 0.9129357405451696 -0.3173564054038406 1.9510806055005365
P 6.401159512223786 8.595204750010755 10.194577170890312 -0.7279183857280883 0.9470591645914398 1.1597508453953382
Ni 5.90502725765767 8.64770910253307 5.665791365656516 -1.4890721364705386 0.13490166910761284 0.8449462598790739
Ni 3.362032728412049 0.8249828761667019 5.996863932103106 0.20150403961819494 -0.9520203652514572 0.7231106799267997
Ni 8.226876089970414 7.7395796394702785 5.6354442768387285 2.662094245053486 2.0497124936428377 0.0318143162971194
Ni 4.182658031039909 6.212117855484422 12.502603352997738 -0.1980507909622718 0.5924747280740764 -1.5067165890251792
Ni 1.5025786004765165 4.34308541893955 8.63694000226232 -0.16123027969981263 1.7921846303608555 1.2129192018882016
Ni 5.5492562057069 4.799493680435925 9.547972658089648 -0.783208930770277 -1.1661282096765917 1.275011857453888
Ni 9.002115802385417 3.800574474333833 2.504519800070083 -0.31489328857532867 1.0082593902498442 -0.03989760752588613
Ni 7.600100161000171 3.485659734881428 5.769995381402286 -0.24017188850203794 -0.2042759459363772 0.8622528694783215
Ni 4.679096568730161 6.111313582416559 7.791368403238933 -0.17465966573184113 1.3186272801509935 0.4098433569906683
Ni 2.6073603918481085 2.1296144060369357 0.9861184277745723 3.163932958706545 0.3814529787734333 -1.1348085736277036
Ni 3.3902664636732993 0.43084475819918233 13.049907164430842 -1.2913486469406987 -0.3041571331047471 0.6084945005411004
Ni 0.9621373872854145 1.6267532040466235 2.046245067777837 -3.1167226195693294 0.16076619557920055 2.5165908891706272
Ni 2.494323356428396 3.392698166052802 3.3673295701982413 -1.913315470936621 -0.787559751539805 0.23021734839248736
Ni 6.333405972642218 1.6631080827508693 11.860603296496585 -0.37379906177260136 0.005816349571460951 -0.7211851807693128
Ni 0.3111279662812709 4.58364760968128 10.890098811138184 0.3428602061018998 -1.4225155315962277 -1.0968279806188723
Ni 2.1765963810180167 1.1782711785506121 8.215654990058892 0.7578727659983335 2.146409626656271 -0.8343417448903501
Ni 3.7822346121128505 1.9111324441533635 11.402342486164525 0.29141088918267233 0.14917463408685921 -0.672086623470449
Ni 3.882073629274345 3.504157379317875 13.042884927712016 0.42710522939490964 -0.20114382806529876 0.037656891120825466
Ni 9.290680911855347 2.993360660020407 7.745453778538933 -1.8027914593424241 -1.1210254038006824 0.16755493636625984
Ni 0.9882178593709215 9.499231875471484 6.4024180574247795 -0.22043970018043324 -0.9663648068985873 -0.6114085888641019
Ni 4.96797724263102 3.9857179822205584 6.939616382022758 2.3247948208688154 -2.2358127971114525 1.2509699860133359
Ni 4.462730744795163 3.3395534033618364 2.09357230737158 0.06283698993087888 -0.5277862867567555 -1.161743450345335
Ni 8.629359959005296 0.7895876845847483 10.50750199816651 -1.1465909109746124 -2.907663907532328 -0.31586388001871407
Ni 1.7556148675466878 0.700556749182532 11.515485328481669 -0.9985203085852093 -0.23504793701191132 -0.3885073145170535
Ni 6.8903122240823205 -0.2285846643266595 3.6067770759942523 2.3746222859139037 1.0701090765667893 0.4733979418138622
P -0.24862114942921923 0.028410080090298016 4.3676780975463005 1.5475364512550187 0.9640217605877073 -0.3848568622486598
Ni 4.594720208684131 5.604795545550201 5.459855874294362 -0.8594390541786102 2.3454585198657543 0.5383540349702728
P 8.958484379156246 5.81530486489945 8.96999505583968 -0.30114919951635877 -1.3423025122807462 -0.7814168718668607
Ni 2.527615403891284 7.096904831965347 0.5576561810288951 -0.3501102027960938 0.708093123472045 -0.356920797960024
P 2.4948338283019558 7.604759377009753 11.758708469880663 -0.17942134878654262 -0.1857056391333576 0.010017789247318231
P 6.875415726681168 6.430507004300075 6.045794053379827 -3.4753010077374342 -3.0391827762106365 1.0183093182866785
P 3.6072912603905287 4.172318655273626 8.70218387648733 0.9271187169137711 0.17521168158056924 0.31302049703264795
Ni 8.177861508801886 5.3604558629441295 4.464641765863635 1.888936013650992 0.7372296358266851 -0.3280275119644415
Ni 3.648528106467364 8.951699743891298 10.42262816007643 1.2071187931563403 0.051425662770143696 -0.2196902236089184
Ni 7.650219217676947 9.188113190497006 12.599416664145041 -0.4742471771880349 0.30404863255134085 0.12477743618941736
Ni 3.0953900655848128 4.195688985775871 10.932929257591207 0.23444835575469944 0.3242171370794158 -1.408671940844916
Ni 5.30543627628118 1.4643117725731192 0.41692651053390595 -0.8920149312321025 1.2745925105282825 -1.3566772929451796
Ni 8.521993802035494 3.5681241457283077 0.14695000230698446 0.2778948569741085 -0.8368084612632878 0.17773753332621645
Ni 4.939975540039568 6.830921141920341 10.379716038123641 0.5816478126619016 1.1221826573335771 0.030548047990186098
Ni 3.705292578807208 7.556645082600048 3.6495936004870853 -0.09574556773344156 0.6233403073046814 0.5768825300627742
Ni 7.788167280526374 1.5709539876131466 1.4158874825165624 0.02679475159534095 -0.06833323715875973 -0.11090504908269933
Ni 6.039996021026867 2.0931759955715616 3.327296509612327 3.0959835872497647 3.216609977385286 0.27478253659737195
Ni 2.3013185816888515 6.407396550388007 7.0591976668615075 -0.9101800321769035 -0.14811174003998365 -0.1768124504087858
Ni 5.287207789741702 2.3746501866524072 9.60156199537595 -0.4479707599900091 0.9563621871599207 1.1566819766620273
Ni 1.4266667922247858 8.930065017759157 9.56989788912438 -1.5681243027086995 -1.3942475378894696 -0.5095576795638708
Ni 3.8918375640195246 5.239631811125934 0.77837308158798 0.03906302743973273 0.11188823893157504 3.090025312783801
Ni 7.912908043810793 3.025381168452791 10.407685256141319 -2.2656712752337818 1.2708194166390954 -1.1368870534232873
Ni 2.667456853326279 6.823199094669402 9.434695236824023 -0.240333868001199 -1.5878253806820524 1.5371198839073852
Ni 6.852592993279652 7.004927081656673 8.915944437605814 0.18108768074537201 -1.460640363492407 -1.0349245582458564
Ni 2.7584600664217946 4.133151540611405 6.681395576978578 -1.1398481929341402 -0.4890657302581062 -1.4081870307886974
Ni 6.852212459701179 6.004300115104853 1.4875298896439748 0.6271509393000232 -1.0621265725819449 0.9297217017542568
Ni 1.7046326493382569 5.433137776432246 12.404457246195104 1.2598315501690238 1.1663737500284945 1.2530325249693195
Ni 2.171658725804675 1.0206653079157375 3.8627833612378617 -0.4037331303278724 -0.82552748903283 0.7021140230704747
Ni 0.14378136416819723 7.786747240587199 12.59926723510569 1.525969009496888 0.9935313400110501 1.6728286222973254
Ni 6.117578464501157 4.600316836679704 4.227381864078498 -0.6602711188927597 -1.3649217923421588 -0.4649420977370251
Ni 1.5891082236982899 2.8575937042670976 12.57052395610156 -0.49211171617328153 1.0167643423970618 -0.9699278416594972
Ni 1.56427144672291 7.46897385864286 4.770502590540448 -1.7759748533702124 0.3064904092236141 -0.2538493859891306
P 6.561763244952474 3.9547369801488776 2.2863719652310217 1.319200379045644 0.07517031468525118 -1.39774346685787
Ni 8.384036457879274 2.220738276120747 3.9346438790748866 0.6491937780326755 -1.916694928931815 0.6225185827343344
P 5.815527616262457 1.5693668841517154 5.861008803935273 -0.47811051679818306 0.8374478946194998 0.47853243482695
Ni -0.19821251598053363 5.246230820255042 6.748324008386337 1.2036146366578238 0.7116728704035034 -0.43568474353380443
P 1.064686546030172 4.475288352884733 4.686185630857887 -0.6291250323072585 0.89738853683919 -0.5361732252688701
P 3.3678428264638383 7.804650881388959 5.797068953314538 0.8497117995885173 0.5475585842876763 0.4368630801126218
P 9.045329566808947 0.7700208336058634 8.330427629848709 0.40427306199174246 -0.06469435485459181 -0.6492081762103786
Ni 7.532040338294469 8.06667145343378 1.1345831393500103 0.13660991004797118 1.7389784786515212 0.03449469134275994
