# total energy = -340859.5581058254 ev
CRYSTAL
PRIMVEC
9.38474948718149 0.00000000000000 0.00000000000000

0.00000000000000 9.38474948718149 0.00000000000000

0.00000000000000 0.00000000000000 13.73552949950816

PRIMCOORD
 96 1
Ni 6.479287221301173 8.62881712342098 9.703739738269027 -0.2761169391380793 1.4550132471136168 -1.5716289734278481
Ni 9.041849324613736 3.9356166183180967 3.1016474416019704 1.4176988269338746 -0.30008424858695415 0.6051605510718611
Ni 4.151287541851094 2.982370093495825 4.158733401941215 0.08469728033907994 1.148663734343241 -1.3207240147790222
Ni 7.846635808735755 8.358930503214639 3.531116092708816 -1.974171168771413 0.013090771745687133 -1.4880884324010306
Ni 3.2839302425705297 7.853242672238963 6.047905019813213 -1.8976268565567707 -1.0371724737397685 -1.630873360911462
Ni 6.446637678506199 3.50025809855413 -0.08818755064388924 1.1731216102752895 0.03780498666291554 1.959363157224303
Ni 1.366963812713514 4.451486902278121 7.945729376534585 -1.2571856279057447 0.5374973433969324 2.0716841128179224
Ni 3.9347344518844296 8.20899036373913 1.151052639598582 0.9586036748959297 1.4274034558161484 -2.209775492507427
Ni 8.345904471194109 8.905432608871356 5.682374665648639 -0.19005131769656303 0.34159933711160523 2.0872238603247344
Ni 3.5732996023118995 3.2125873784350336 9.316081083743352 -1.178773666354744 -0.4427408790496375 2.2509604513861685
Ni 5.178401428369036 8.445748818936485 3.4119879621164504 1.4873888352308449 -1.4923466934567524 0.3692757199809511
Ni 7.564896250170675 7.350914581510657 7.55639554425987 0.2601753282071584 0.12855515806429474 -0.6426870872624093
Ni 6.9144111223327815 0.513205015160434 12.368912813415935 -1.6813569714833108 -3.7605721025709555 -0.29935971171610376
Ni 8.677242429779723 5.88049329257645 11.528888596455108 1.6699227615044403 0.2875889443334208 -0.8210064612340248
Ni 3.978260919111532 0.7659241134826573 2.663305510037336 -1.0720008942728636 1.9742755555597613 0.08213954691423273
Ni 4.22011529317571 4.424468209059745 0.4586852526099536 -0.14640889841626398 -0.5428166987273167 -0.5199261672823885
Ni 6.760191537179058 5.041046237697223 11.697959547367109 -1.3749382960378964 -1.6639696292447987 -1.2615364486752725
Ni 3.8826303238023097 1.250264455238521 5.51179277010025 1.3235923374657528 -0.6725571353489643 0.6367529811661614
Ni 7.3415298322163265 5.4930908417065085 2.1125108200533926 -0.531198140651782 1.1842022935694831 0.6352933659014994
Ni 5.133232630015427 5.691277977304169 3.8928409310345407 0.5300581135100678 -0.034083314836954204 -0.41384347928899695
Ni 8.526438893369134 5.681902612759133 9.099733519786234 -0.8646625073610785 -0.07103958034632926 -0.8758061826827239
Ni 4.772933335107511 1.1163440828084323 9.674524075240848 0.26325242447058533 -0.3003853247671407 0.1894561073147253
Ni 5.194909202377763 6.984205502834714 6.9964666777877556 0.24725990569707096 -0.5657044019587677 0.5445357383009526
Ni 1.7696634049332127 1.8158457562106103 4.072735313307693 -0.9561852952624242 -1.5489456728977193 -1.0442612622657501
P 6.79285984947262 2.5325965988157675 9.485673826716118 0.5657136579301483 -0.7469262942891587 -4.694952900363779
P 9.259584892991485 7.110937157305346 2.4351716394414686 -0.007009598548613734 -0.18872437135502335 -0.3487981688528896
P 4.973044344310509 3.1267920003862684 2.1893062235288947 0.3814738047090398 -0.154218881378986 -1.1760033026984587
P 2.725293656076244 6.8738408511333935 -0.032439324410780956 -1.2354171258804014 -0.7347369513118185 -1.4992025400363211
P 8.839495360329392 1.5836295196717098 5.878504664200982 0.40906585539469553 -0.30865296409257165 2.03682432482626
P 1.031721798421459 5.220482644204813 10.18420793246605 0.5902772062021253 -1.5760466428795694 0.9039034551395724
P 1.8460928031862358 3.7788162271084316 4.095522423069256 0.01726701461056381 3.036861841386944 -0.6420641089664296
P 2.8279909676040975 9.260391981430798 4.18194657932074 -0.5033176121914299 -2.133876527186267 0.17786248893985498
Ni 6.91928180721654 3.384656756746573 3.6171967671361283 -1.6372700084664251 1.5592365133007664 -0.09976985840148624
Ni 8.1812302753265 1.9438255823373882 13.305634671680751 1.3289111785755048 3.188583153155057 0.8593716912757845
Ni 2.3807513552335084 9.45776264383985 13.028548071815798 -1.2845164545102137 -1.4390315269733798 -1.5185698888193395
Ni 1.0986538303886202 7.164843157251977 9.43959095378124 0.9607263776658874 1.2916834045722978 -0.1696858666663336
Ni 3.146743977386014 2.002865040148018 11.662865277380963 2.5116633699620228 1.0263303888189421 1.5821149605608367
Ni 0.5241344941886108 8.022290161277729 4.364148671445368 2.906393011239704 -0.3893395806103617 -0.3601691296939926
Ni 1.27128629365782 5.792023260978802 3.490033414197957 -0.40824541637592915 0.449566129501587 0.17387290816448764
Ni 6.305922747587016 4.70186262870155 7.758156392388812 1.784765712188965 2.4789108581213504 0.7754501127604645
Ni 5.9121574366955185 7.4599184445643 11.461529558395055 2.577811940764638 2.313292219545855 1.3124561183432752
Ni 0.8926604603279364 7.393202261830908 12.206792207831313 1.817640865650431 0.8189135832607379 0.29133684141162725
Ni 9.331040374118514 1.400213979463325 9.464054179766771 -1.150837087845476 -0.4936674906961756 0.40428771727976176
Ni 3.5297825198340917 1.4654098328110354 0.5686960992628778 1.2570269908406932 0.93948546600924 0.278307776141811
Ni 6.999249255953525 0.6762856805978648 7.788429716662462 1.0571314333601987 -0.20628886260134796 0.10768654214540163
Ni 1.7414903875516343 0.5009100551099325 5.949585693831166 -2.060363545598781 -0.5540912431998715 -0.5314099995522719
Ni 3.0532531049158993 4.711134761004347 2.396245576318447 0.4634976519810146 -0.44390918832612586 1.5562375785734424
Ni 4.556014239918368 5.97063380954849 11.535564907103094 -1.292935017591212 -3.7696684084452694 0.16912228085337971
Ni 1.0062891278338248 2.2658257153751435 7.594195437467572 -0.03519377429231358 -0.606606282379452 -1.1987200275696839
Ni 3.1609243335697466 7.345687276153716 3.019824627929496 -1.3019873576014673 -0.7772699395780226 1.8197903078932658
Ni 1.5831602822069935 8.360310061360906 1.27625176450945 -0.8053340448040904 -1.3604455017383603 0.2751787435945261
Ni 1.3037387567176129 3.130883751078597 10.914292626868592 0.5333972051856297 -0.9008836944766421 -1.5702295219771603
Ni 2.5899843407505947 4.909960059554022 12.08129089399317 -0.5433445462063288 -0.03289186563201432 0.15102300014950765
Ni 8.370323588857955 1.3893839787776683 3.8323778067559613 -0.7293461193135504 1.3976593917844962 1.3934075584866779
Ni 3.3337538765741277 6.056091336622658 8.973901862772928 -0.3756407429670305 -0.08505697767134383 0.8990116742649098
Ni 8.494023969306518 3.58814627569553 10.344020828199197 -0.7675467987529878 0.2443633008755663 0.14974927564340662
P 2.539935472763933 5.659041363478146 6.8420246740757555 1.4782285088878153 2.201520451587486 -1.573386065328271
P 3.3360437554019438 8.158434719290574 9.095997451092162 0.06176201169914525 1.1152473636663245 0.05310305047256661
P 0.18286371694987824 0.9647522274571203 11.681641345294128 0.42978971820560824 0.3930723081799166 -0.6779353689417421
P 6.212488183612667 7.275404888688478 5.06114461678596 0.8595357276574745 0.14345187267046908 0.1296008257199897
P 4.5477087367928855 0.07979758477475826 12.71666845241705 0.837772367838454 -0.1363700261230232 -0.2534740049275829
P 2.130666556038203 2.8600586559428227 13.576499182763563 1.426605385394885 1.4766256831770699 -3.9390357154299194
P 8.796372437321947 5.202736083289235 6.889645707419974 -0.6771907774662337 1.887920170791968 0.7564090369686134
P 5.004839874919698 3.774696322168221 12.224826880550228 -2.6856926011987166 1.3742399844192914 -1.4580060111933535
Ni 1.169095758591861 2.7270579889435784 1.5046446541858405 -1.8028040577479145 -0.6339419940799276 2.994651012346849
Ni 6.072627264879268 6.0849775949506055 13.582515745536156 0.4028183318230869 -2.024989022754229 -1.011651960871161
Ni 5.419627024230494 2.4697093937944623 7.552988880266029 -1.3463543137526166 -0.6158815370337909 2.149459212115872
Ni 1.4895567927453464 5.0179785239317605 0.6243129390058655 2.110812703388268 0.6334424287356897 1.2735851523096906
Ni 1.7606915846078333 0.0207966044362352 8.07864745774004 0.9214026403656003 -1.4116302521422914 1.2935068309342819
Ni 9.04794941165505 3.6741481182287696 5.555596087431535 1.129076813350249 -0.21685378260138785 -2.5241118801380207
Ni 4.3180357673127485 9.291793352569625 7.425742941534067 1.2488351990585203 -0.06406083503565096 1.4845709061660755
Ni 4.19727281339331 4.427846718805704 7.645786219763293 -1.2999998948577933 1.1972953793080154 -1.9978494862249596
Ni 2.7425991337749887 3.3682240607322016 6.073466261466181 -0.738131064595032 0.14329709226015966 0.20074684973719623
Ni 8.22347103190028 5.906535971868216 4.421439750462464 -0.32874639240833703 0.5189710024579707 0.63457474256792
Ni 0.33819633336991006 0.535678674295566 2.456448743041574 0.5106727670049205 -0.6601335648736308 -1.7885722304192488
Ni 6.049015235654733 0.1665830538740746 5.46650666238046 -0.6670174364776578 -2.428485868701579 -0.20857251642920208
Ni 9.080692801942968 6.318301231906236 0.24845091434316205 -1.6276965058453774 0.3227050713102636 0.9978392233577847
Ni 6.516188055526479 2.260635949015379 5.686096657218769 2.15274945283137 0.631151575818984 -1.6460230720687072
Ni 3.0876388263303243 7.598991044356976 11.150172669532 -0.3011402006552943 1.1925187838549784 0.38419300341241575
Ni 9.10117970965249 -0.084745224602729 13.550607597935434 1.1548811760078628 -1.3403533589741754 1.042995508179449
Ni 7.901057969893574 3.1995050379187373 7.495093423394378 1.161976135181431 -1.7226393751718654 1.6477092015218784
Ni 8.64214346741893 8.37572920445149 10.425624038738183 0.17619332876754815 0.39261825136163353 1.143194997919186
Ni 6.234251417226218 1.2943915464204603 2.964828120114863 -0.44973196565549 -0.779797848206199 -0.36157526601289985
Ni 2.0410422002773525 0.5514497454846875 10.40379792730436 -0.24012406598323807 -1.2640471309122683 0.250173222689124
Ni 0.5553012465950805 7.266939844824993 6.918599535942842 0.6692000459512734 -0.6256059634104064 -0.36989818405629843
Ni 6.363338643769726 2.4095813050656902 11.367001671127916 -0.47834500140649233 0.4359721928672362 2.115934083775233
Ni 9.727386491065952 4.011708165596524 12.736255362669247 -1.944733837346902 -0.576162106956982 0.6304488933250045
Ni 6.326531657037364 8.083122106203575 0.6663444156703809 2.7655379527621338 5.234482443699392 -1.2150452470922688
P 6.178778164147434 6.635881148026364 9.067069899867318 -0.5020104633442322 -1.1814977501541264 0.3777022534817495
P 3.2675913940491013 1.6527481982244498 7.960357385259657 -0.8367192439835912 1.1089553600100257 -0.7070842225915565
P 9.141965830085649 8.806601814052767 8.354566594792775 -1.557004281536138 0.10204502758890813 -0.5352386292697427
P 7.608544719138603 0.6292812252822837 1.3779618004115393 0.39894213669713224 0.09091035112832731 0.09389257368510281
P 8.083093951955693 7.707807212424732 12.539000132676511 -1.9641114705425662 -0.3415885384783278 0.021302618132518148
P 8.395531025462525 4.017367169421005 1.106412202630243 0.9983516442178292 -0.9729128924297501 -2.673939060207214
P 5.424272475131187 6.706567079711257 1.6883163980499607 -2.230915359809835 -2.737255046657041 4.110478673996675
P 5.270897517413952 3.9638365594461473 5.697703715145997 -0.25622894196490065 1.191934629216734 0.3155777162368629
