# total energy = -381172.10425776377 ev
CRYSTAL
PRIMVEC
9.23605847686380 0.00000000000000 0.00000000000000
0.00000000000000 9.23605847686380 0.00000000000000
0.00000000000000 0.00000000000000 13.51790517599196
PRIMCOORD
 96 1
Ni 4.600129736970549 4.5137910627067015 11.166019665684338 1.4849375454768747 -2.0641060433603484 -0.24683027435882007
Ni 2.2693734463009823 6.1061152453243945 5.746420643940584 -0.8080391024400794 -0.21626859952187916 -0.8256653001622747
Ni 6.185573056053094 5.59134352836937 1.9876865944713504 0.4402877895234546 -0.9121258430493647 -0.319378835150508
Ni 2.311646885764571 7.470973780769426 13.24849315707135 -0.2677788515860291 -0.3810657706373437 -1.4993892021258308
Ni 3.1179917314995937 0.3402914898205355 8.063498332065782 0.19241878948747507 -0.8199911325956329 1.1381587210468591
Ni 8.587363872157328 7.009281691648626 9.87979046652626 1.1921076644594888 2.2555704393543543 -0.20015523889978432
Ni 7.40959093640084 1.5964896449725283 12.950991402381 0.3934345766153418 0.6818604150277611 -0.7111578784402979
Ni 2.87381805461541 5.843367854924529 10.944164000405971 -0.6069788352275224 1.400836246850581 0.41241471726227036
Ni 6.3674956990756675 5.156916283752943 6.006735256548292 -1.5940783035702997 0.6871700001661327 0.765837529371365
Ni 4.554365067417986 8.915807346215598 2.4600694212323306 -2.05395944184465 1.3581122256194933 -0.14071981845128667
Ni 0.9130804314499065 0.3218359978528395 13.35509574354475 0.42013291184213447 0.4763801643706377 0.553258462885931
Ni -0.008858303646390316 1.8355834897166696 4.386966126286715 -0.4418384218400262 1.172735430580464 0.617153461767679
Ni 2.773440571528172 7.382704770292362 3.5194407058628654 0.5032780172027461 -0.6988623489023965 0.12351451031659373
Ni 1.9438762748839373 7.814379669494729 9.986433691656778 -0.8123431291320719 -1.4214662643961067 0.2785474029564428
Ni 3.1858767610074334 4.166118114983762 9.169816501728747 -0.474079541261919 -0.0014192489450298136 0.7305139143694064
Ni 8.487956175205916 8.685450812752329 11.79767093133499 0.11835713448537036 0.09460682614330804 -0.16348333740004745
Ni 8.077367197413942 7.427739791228446 2.3928715544721624 0.3316717935852481 -0.5672455211936425 -0.6095136858342342
Ni 8.109287015370281 6.688836644196314 13.149353305814595 1.033852151117284 1.088777856620886 0.115251241866537
Ni 6.124661250664768 8.376347645059965 9.278851865994305 0.5833295712396986 -0.1896826215032346 2.057311389036018
Ni 1.0447367500379945 2.7559012965573713 11.019971720840589 -0.16913616481045063 -0.1742089513476677 1.1360252196436242
Ni 5.918263052785626 7.560563547602901 3.3296489410524446 0.15648530881565953 -0.6449699697593151 0.44625377729890237
Ni 0.42913221231481535 7.443025467940756 4.361268640899007 -0.02275400586706404 -1.258990285214651 -0.31390932739550453
Ni 1.1057132078353764 8.47541360784923 7.883682433972561 -0.9087152747059187 -0.2709911878757397 0.19314229791706092
Ni 7.87922603577698 8.816371941088875 7.932333371786514 1.1021396226397728 -0.3941799394217985 -0.3548919404554533
P 7.793653954363356 1.1062950795168722 10.482499619460478 -0.25051286541672985 0.3906726975994884 -0.40985492695489417
Ni 9.305236514129684 4.776335259820966 5.311185244210969 -0.25958114626658524 -0.5760667190296982 -0.8251454231030627
P 1.3384157001415011 2.5287589114299838 5.847223909321742 -0.17385876709710055 -0.08089487587385422 1.093628242734652
Ni 7.717807442483305 -0.05901656619716906 3.911459664562531 -0.3580166021273641 -0.3471446924098667 0.6073261912646121
P 5.5344401723424586 0.13360420331233355 4.575108331060387 -0.6999301280452784 0.7817644850142665 0.06970209248182833
P 4.231398576012526 7.352410498620835 7.593548283096962 -0.32974783708965794 0.15045092969612153 0.3625288881754208
P 4.471360610249692 7.116327608926974 12.628156986611181 0.5617526163998713 -0.021502392848150066 -0.21337070914879383
Ni 3.7096905791717334 1.1371342786361478 5.835490420684088 0.6808456006100015 0.6538184212888803 -0.22746575378927925
Ni 8.790686462577135 1.7820974753112415 7.207463491942709 2.782939436068033 2.530331121574855 2.026880069129354
Ni 6.596078909319139 2.9649410071493345 10.881034617387055 0.8834814398397944 0.9810627752303943 0.3774034912944081
Ni 4.143545188165101 0.02060841718923023 0.09364162566954176 -0.8049028708039427 -0.8399156394337018 -0.22758016787995644
Ni 5.6639204755629216 3.2579919052791624 1.2138702229436285 2.1634796947646806 0.22330339488147347 0.5327852826332438
Ni 9.2514826540296 6.351831343967464 7.0192667944242615 0.8158015199943176 0.8804133424374323 0.22362761099011164
Ni 3.177019380966887 3.599356625090013 5.681534562607057 0.33963270030353765 0.895386933028129 0.3718941314404047
Ni 7.289328219499945 6.003013124998407 4.169462491743597 1.7644267435212966 0.32196202249665196 0.1689245630202768
Ni 5.39937205376795 -0.027297170708900614 7.4402952890669445 -0.8993461747861932 0.38081225986564093 -2.3956533955525905
Ni 2.101942178965184 6.2101409714940266 8.091736657129356 0.8463354269171167 1.514801680026159 1.8280006116182002
Ni 7.207053410948132 0.9570773194177354 6.098927744649156 -3.141697544347112 0.05560859050323971 -2.1326699084726757
Ni 4.120565874775236 8.113203104147333 10.417857370069674 0.685147313309149 0.5143715560127463 1.2409501398834886
Ni 8.271758519325711 4.717076708892762 11.80849836264003 0.6748449029418765 -0.6822095708370637 -0.891052310208517
Ni 5.134158635765553 1.3509859756734968 10.325827436597292 -1.6622557318774855 -0.9841956644324211 -0.32951720913609056
Ni 1.6703688764056177 2.1627800958860193 8.869097827884985 0.853826335977523 0.7666525690734926 -1.517091247391284
Ni 0.7653977042629062 0.4176379375906648 9.919668996037279 -2.3600670138075484 0.7193609830763805 0.29043849796707405
Ni 4.855719182082174 2.2261764009937486 12.779313395376127 0.5924104504950443 -0.23364540023742986 -0.8511318198644955
Ni 4.142695470788949 4.5135416891289175 13.37926558486707 -1.3994252254356672 0.3982710787720367 0.7767845153011719
Ni 1.1161868981023002 7.78777982119778 1.7382132672563368 0.33158411896744827 0.7066761885198602 0.8864721470370024
Ni 0.09255823601494725 0.9483954244874813 2.2559765435389245 -0.25548589315128906 -0.3807788355245442 -0.7185909376795754
Ni 8.630782582867036 3.1846206570600777 9.383967447059435 -0.9407162530925476 -0.368291758801127 -0.2750301338318038
Ni 6.206400367827269 7.579931562144117 0.7754345289657864 -0.9371529612213215 0.5328487888813275 -0.6621364542362725
Ni 6.409187266857761 0.7284978035976382 1.304144381707244 -0.6042053862474432 0.33607506485926636 0.6767405773026925
Ni 0.15790334945276552 2.671151224344591 -0.10226256261411555 -0.2497855003324021 0.6761867616817516 -0.5649204726048916
Ni 5.791119472349584 4.1759729893354445 8.345846485679463 1.0558849625476074 0.2603481063395968 0.7316385148921528
P 7.952431034944208 7.568469613624494 5.806278615061313 -0.4470091674076882 -0.47678845555264987 0.02490807609558936
Ni 6.047937313233255 9.15432855533668 12.213562330275323 -0.8239390614997874 0.330719714084624 -0.3450150476613736
P 7.451448753234789 5.358613327887936 9.665423397428157 -1.3941868598548635 -2.7419108002614974 0.17101307011818936
Ni 4.672651267813482 2.3056526838393214 3.871365934889942 0.08785228102829386 -2.96291640024773 -0.45411878186927596
P 3.235068008239917 2.4658244092440764 10.80460438661382 0.5449800249272228 0.1718913589580846 -0.11534071625654975
P 3.901588165305663 5.306069391443025 4.2505569320272345 -0.2437925159737608 0.15883709687728773 0.9119273538853133
P 7.420120043018383 3.356910091133443 5.3659051960235065 0.9877085626816859 -1.085214307639344 -0.9034797373385924
Ni 4.535283370688299 7.026885619028482 5.238998982289279 0.6415966824117079 0.9723793885237835 1.1673158022267895
Ni 3.7928151050997005 4.211550286432614 2.5025562136458017 1.0342051635813285 -0.6856029127893289 -0.7268755462858707
Ni 3.771516754345268 6.565258182316737 1.3910732401051806 0.6521050381421994 0.047740757719388745 0.17951339427971663
Ni 1.4393658188517984 4.737128191758274 12.589400638200189 0.07219477699669502 0.10294002859935174 0.681740087399813
Ni 3.9188503585233705 5.174529447191236 7.121543211126032 2.0372200176027815 0.17854151728475054 0.5292122205700047
Ni 1.7823653210058983 0.17898188201641058 4.168637711725223 -0.11101380674642172 1.140809785516461 -1.6531892507998431
Ni 8.646557770676475 4.17985213387875 2.995445860953211 -0.5054649975517359 -0.00646529600936951 -0.6853974816467422
Ni 6.3367303884238835 5.250200473960994 12.90996483080633 -1.0856470243013883 -0.5121539795361373 0.8916884011306193
Ni 1.3376029269990943 4.2158358175471236 7.338073365109949 0.08903987357849182 -1.294427028755706 0.14356757231272696
Ni 2.5221089493557463 8.48179572422881 6.010222792213892 -0.019639371497482305 -1.946888678906376 0.9129997610138856
Ni 7.279621122083246 2.2052382565183377 3.2168018554701683 -0.9847744197540266 -0.09146596652148119 -0.5123720090842144
Ni 5.39332243549208 2.9598611750092916 6.0711613821716846 0.6415072080216951 -0.47663856023834683 1.0960389090586735
Ni 0.7449989456001832 5.012547454332937 9.979674744092993 0.805107273505265 0.32284751042539883 -0.2039059641914682
Ni 2.375717423138161 2.5592748485039842 3.8985772102553833 -0.9790318608432945 -1.1978188559116534 -1.1405462474424293
Ni 0.07050622289210134 9.25259098104197 5.918341559282337 1.2732629930835813 -0.8801986553234646 -0.41946802456462595
Ni 5.93312387080986 4.036979545925448 3.8697163748531933 0.06747037493783219 2.1708101669878226 -0.36320920207189705
Ni 6.540117631252746 7.151535463686686 11.29230336907995 -0.7159565853805218 -1.6121266764315785 -0.04289859913573902
Ni 7.077434566851123 6.4882756352490025 7.805536143541837 -1.0010171068651341 0.31323672680851217 0.35695165119795946
Ni 1.719430818819991 4.882697708775018 3.686576419328697 0.21240088903635682 0.6149533687925667 -1.2829041157177712
Ni 0.2330857887312368 5.7567890431413336 1.234044545386346 0.6302023245318372 -1.5998954244727093 0.3084066524097205
Ni 4.270504047432415 2.4179077380758223 8.113041473124694 -0.22841114842168406 -0.6895228166690254 -0.1363024061098814
Ni 2.47276992518828 2.5171399499169413 13.001196768829805 0.6797143152190359 -0.6055248763898152 -0.5449052058252294
Ni 6.687220333969936 1.6524786312142319 8.432928662647445 0.3782337005051873 0.7702467141826541 0.9070952226039927
Ni 8.12738045384727 4.25943924942556 7.220629493243855 -0.24388661834946385 -0.9784734172366634 1.5947815002849115
Ni 3.81601608389204 1.8611027191765555 1.5982620445864812 0.06214587740112523 0.10827326788680708 -0.1645259197319489
P 2.2488693965720836 0.388249723251754 1.9132836785249148 0.721929258024189 0.21058594731480507 0.045237531681560805
Ni 2.563597323852238 0.33164653912402686 11.440325059611567 0.3386178858857781 1.2600673203289137 0.7846983708316099
P 8.243597777153003 8.891008529313753 0.8197140403217705 -0.14506344013196307 -0.16160951741610233 -1.3391809359326292
Ni 4.950047046893543 6.171284873651921 9.579166000478548 0.40432191295180686 -0.2789819193907002 -1.6919280621309378
P 7.965158323469624 4.01696500729368 0.7689683644544343 -1.2935381983928498 0.5323006296873414 -0.078934923934006
P 2.2876238977713887 4.84236384158308 1.203569246969466 -0.9925748896350517 0.586531366006448 -0.9021800446905623
P 0.7573198475543952 6.71022735553511 11.764145886422398 -0.2683835750495636 0.15491025101905578 -0.8439530427278692
Ni 1.6093000580238717 2.760260716139371 1.690291978058864 -0.3769226950032476 0.778992321585768 0.6367318981202389
