# total energy = -381166.6578859495 ev
CRYSTAL
PRIMVEC
9.27654002265165 0.00000000000000 0.00000000000000

0.00000000000000 9.27654002265165 0.00000000000000

0.00000000000000 0.00000000000000 13.57715401019091

PRIMCOORD
 96 1
Ni 3.572933579339759 2.2012116149070584 3.849313245094336 -1.2647672969077444 0.28803065985652976 0.35470373570404723
Ni 8.175767178529705 2.590538720643692 4.065814700691205 0.07781366584536921 -1.1353346213345028 0.9369696415659219
Ni 8.166119576967455 5.584050337310624 0.8436911055047898 0.04977501454059815 -0.3792140621405856 0.7267832436823806
Ni 6.2829634112559045 4.764811263496158 12.241433454581491 -0.2901569621709132 -0.7808329743389326 -0.419655972205716
Ni 4.66309400279416 3.010329983621125 8.473488452124778 -2.034067073796097 -0.520009213914498 1.3548361259713828
Ni 0.4454037898172158 3.978967733551021 6.582339619580499 1.2417458963119066 -0.31517610992307005 2.164496051844337
Ni 6.817607515523939 8.040431736999249 10.843557213375128 0.9234507811438806 0.027242123545404697 -0.06509776094059756
Ni 3.055562392484139 1.6954917622458483 1.4452199905651162 1.0596675695184912 0.03949214455735134 -0.2680894408479125
Ni 8.465668328935376 5.415514159250076 8.105709821069828 -0.24179065505238356 1.5696075721224452 -0.6966031205545745
Ni 0.7064020246579771 0.7840327493442222 10.001637927003406 2.4602279369998663 -0.4619665600484689 -1.5228762295041773
Ni 4.871510026158665 7.607393574953649 11.761779751564289 -1.4245451604317467 -0.7325260597034287 0.6343366584151849
Ni 3.736747998558783 1.6478845591521267 6.52359129199037 1.2779215749015154 -0.5245983759470771 -0.6151989091444695
Ni 1.1613022084360352 0.07135236243881116 12.97753246662527 0.6791314461323724 0.17725159482873343 0.13614813992020425
Ni 7.1805706946837295 4.420651630842793 5.531983901456351 -0.19564115307951468 0.7049620340422311 0.21212860921157659
Ni 3.68582907069802 0.45803565428578963 11.520676911983681 -0.6770503952336274 -0.023981707626578055 -0.02665256959052184
Ni 5.933692405082539 -0.13179736918830082 5.511468833326623 0.5649778082053882 1.3581613336898737 -0.9107698432421024
Ni 5.996364709077313 7.944196911415799 3.3972479719291853 -1.3645286706687985 -0.3965255568358396 0.5141674104217403
Ni 1.6289882472460646 5.813041726314622 2.189885887265374 -0.8685937240946847 0.22399270763901422 2.170907354687319
Ni 0.9627935297527637 2.075022841780812 0.5880250258351647 -1.69084074260403 0.5575195521551303 0.2369880914574177
Ni 5.6671124761456175 2.416047003926446 3.0071360709116224 1.370758196518278 -2.7019183190289597 -0.10418701363257542
Ni 9.085081455391725 7.80612489059605 11.652877810660403 -0.7952694614792367 0.9066007994660773 0.5237766513767302
Ni 8.655568378532331 3.8066374506453187 2.2271553142235456 1.5580916010630457 -0.010856997319161945 -0.15074686366998555
Ni -0.40163243599848514 5.308537100388658 11.77742092559709 1.0300242927307617 -0.5140216288724954 1.0205600619940682
Ni 5.132162246058781 0.11416544967929132 9.694780189198084 -0.19789189678690436 0.30243243710415657 0.3508082573043829
P 8.350082640987642 3.534148365751519 -0.1658663898589949 0.2625461424321801 -0.059709757155806835 0.003114377259265604
Ni 1.1904954797018072 8.707368577689646 6.350672876450969 1.4430905275341017 -0.4945223824973031 -0.9775146528678197
P 3.19762332548828 8.406344855867498 13.243577139206286 -0.7867205434679612 -0.3507362664158669 -0.48573023812696986
Ni 5.363769619332543 7.13041244309999 9.094615883166417 0.5406849970962947 -0.5905191470096024 -0.43448403835748395
P 1.9542793976132593 4.6700606843068995 10.941461816152046 0.2077939863919647 -0.5797030302307049 0.3821163233890451
P 2.8048082407252943 3.5326548428173625 6.882761293959004 -0.2965896051701344 -0.5983694962919567 -0.05571297729158792
P 5.76265156123179 5.88641915742751 2.490145222194514 -1.013498012940964 -0.352096122877871 0.018263059975245965
Ni 2.773982298425911 8.019503862841136 8.353031653042104 0.16513527118117366 -0.002444861996066757 -0.03978062233204762
Ni 0.661010986961584 7.113890925424636 0.5011697098090139 -0.02117586274666676 0.11266985429260597 -0.6420355697213395
Ni 6.511583738661354 3.5700578519510118 1.2469988846207196 0.16159640478997975 1.2190880497030747 -1.7553178392414932
Ni 5.019238925080629 4.162457694033058 6.545939404416927 0.030487884176212007 -0.5960678447419734 -0.40414322128209756
Ni 0.957635773532945 7.276109779769903 4.390118827206262 -0.05296112557806363 -0.7210427416541776 -0.09517889659669415
Ni 7.171071517760898 5.603466135454654 10.170048871774444 -0.12292367081013023 1.2691651688651238 -0.038963268637074826
Ni 3.249423524645595 1.023322953015923 8.723335358275172 1.3196084131173402 -0.7161077662464055 0.888492777011457
Ni 3.074570022869765 5.279455147602451 5.22398607688949 -0.488505743989578 -0.7974916659415363 1.1671245121515899
Ni 5.455087878735231 5.902782973923482 0.353585524910484 -0.21642337993218855 0.38484554939475013 1.5550996083142574
Ni 2.2580304221847367 8.434842386635992 2.0720228087565506 -0.23265141175527673 -0.021694968474930378 -0.5680700739774668
Ni 3.075766696525083 6.347491023243419 10.003755761077118 0.3979666601577404 1.0401945483955441 0.12005406257181905
Ni 2.245488540153811 2.7709766994776706 9.811326926686059 0.682485964426902 -0.23950365879041982 0.6100489895124138
Ni 3.7164416525782378 6.835919405412287 3.517528516752549 0.16153726941727017 -0.1355632139510117 -0.49731974273678226
Ni 7.763165234024143 1.6518734713365189 1.6592232739497603 0.16782901596325292 0.4379557989561683 -0.500956568158421
Ni 2.8642430322727366 2.1806455258075297 12.566267271528476 -2.6339422080993025 0.022416420021987203 0.19775100033366588
Ni 5.431488361067572 4.26526030991081 4.120516601549166 -1.413956843392939 1.766326531647171 -0.7251112552965964
Ni 1.3241796971187252 1.2697449606117184 7.735189972455605 -1.2053773849852016 0.9681740921931841 -0.4888443582759194
Ni 7.565296636598367 5.966327272674844 3.6931352735734317 0.484308675189095 -0.26615185750556747 -0.21335553964014223
Ni 4.585013365919675 8.196203396069743 1.2963510048816138 0.1820436169007381 -1.178143746080229 0.2280067138944138
Ni 1.9454110254079597 4.294063966498107 0.5729747673980538 -0.019834261117107777 -1.0447775397805361 -1.0685900688191017
Ni 2.7693440284440594 9.049348223451542 4.427237974217021 -1.0662562784796021 0.03127978394988807 1.8352565218496653
Ni 3.274275375208355 5.1582571529766765 8.031131078031642 0.10516840370923825 0.543273069538445 -0.23584395055064541
Ni 6.209483938203417 1.3638183523836263 7.758203212797559 -0.6668469723380644 0.4633169034287763 -1.0555540615707497
Ni 5.356886426679476 6.27365904167231 5.520389154155719 -0.04903325127856717 1.7078452475818262 -0.33605192493081476
Ni 2.012239219306473 8.471354847933124 10.903771234279521 0.3896157170898838 0.40588154412944294 -1.5347966350908469
P 6.590898155351011 6.135401490053288 7.267049383187354 -1.125154081257075 -0.04195834670965677 1.2969492809569279
Ni -0.09740274196488075 -0.1768516684840115 1.5960351943330038 2.6563763687331026 0.43427372211889076 -3.4227484304516986
P 3.1714727593306025 7.343670820325548 6.06130327178522 0.1067671156549258 0.7828728875870968 0.1758025210870327
Ni 3.199589951960585 6.273677594752238 0.5124490547508799 -0.5932455448018299 1.3548579803482537 0.2978723285372999
P 8.88644290514896 7.326063947474442 2.6608094385227354 0.8769037866222769 -0.974691838707044 -0.9592924734328383
P 8.769994498984603 5.714580531139884 5.807857995782905 2.9373688907959283 -0.18653867655761422 0.24440083898172105
P 7.445072678668781 8.985006142263302 12.875880141703016 0.03959961666949309 0.6501759394402867 -0.3960830699817824
Ni 1.3176119068244236 6.413530711245017 7.38181688031029 0.08667137334631525 -1.0289079197381312 -1.2107211657956183
Ni 7.617801852792923 3.3477177421009876 11.105527629604085 0.6434748732710273 -0.8940540731493183 -0.5857605492786944
Ni 8.543368627671349 2.0823420318121735 8.705019757770836 0.03376989736159346 0.56510919157693 0.879625556428814
Ni 4.243404781756327 4.132457363790444 1.7540053933748951 -0.7632314592070855 0.4520886388131246 0.788595391893171
Ni 0.7387483918574116 4.6001990618402555 4.421345516032077 -0.10637373687124906 -0.19997808989197172 -1.9048051194727647
Ni 4.45767430183793 3.098067498597824 11.03872819297946 0.4754697367412262 -0.7591763153011054 -1.3454413150200442
Ni 0.6551806815943969 2.4967714546905864 11.821315657397335 0.7768889020895201 2.124154929023129 0.05357021991697226
Ni 0.8203040206022992 6.6721606454330455 9.995745468818463 -1.6789823006035471 -1.3291307507854786 -2.705324259386715
Ni 5.429679435774649 1.023944481193491 1.0346106468437561 0.6328508178982779 1.0100522204842088 -0.32510802432480135
Ni 4.839478133664 8.654585065296178 7.380310370220185 -0.8634628306260226 -0.5468525593595872 -0.24817958929786293
Ni 8.417894148122308 1.0101502662674653 11.327800020712374 -3.5809309244641234 -1.2587195480517677 1.5459811909527568
Ni 6.754146705632249 3.8873526248694943 8.589246683715837 0.3491313838225923 -0.46156418240372765 -0.07991888511383011
Ni 7.036153520528807 8.282920491650435 1.297695175522354 -0.45885243989951946 -0.4803298930470051 -1.0517328880524468
Ni 3.849569277597334 5.3923135328008565 12.070090195527927 0.6346809291284812 -1.6820185163267096 -0.24827986232115307
Ni 1.6758254975227989 2.283782097123975 5.478313551842353 -0.47844784553294367 -0.25742064828015665 -1.4216277296746354
Ni 5.782809482572916 0.992942284634797 11.924244434218595 1.7076621850367426 0.5622298131466059 0.6273676832965195
Ni 9.64778709304996 8.234246486460888 8.366160740052731 -1.5830068762474867 1.0720821411327603 1.3187316669393419
Ni 7.23962514809266 6.84734810264757 12.836316626411822 -0.21896131586269385 0.49737990655075637 -1.0425532784357077
Ni 7.89992926270901 2.639593063971751 6.628420831850192 -0.2559684892146624 -1.6735922399362275 -0.580432966418194
Ni 7.420174445406204 9.235435615123416 9.062139644407493 1.453088262176762 -0.7864572625042455 -0.5802555603000652
Ni 7.867637627095362 9.261511968961385 3.23437697682447 -0.505539302433097 0.9356804904408532 4.45204818631161
Ni 0.4863393053690426 4.18618708326021 9.457546594436335 -0.9987519649800414 -0.06917913009882279 0.16723586246394423
Ni 1.8231833348462143 6.556528574785493 11.958417352136882 -0.2385279251407118 -0.6272843795540939 3.667851180596451
Ni 7.824687247063419 7.465202770390016 5.829812782915001 -1.820420228167781 -0.15589909729488635 -0.8622888649225794
Ni 4.651229308180583 3.0288088512288205 13.231438786663782 2.124790248614283 0.7750562197561555 2.0607355842262187
P 6.103415980258441 2.287780285848331 5.246225653798471 -0.1611904276008127 -0.19779290931519483 0.3665503506299881
Ni 4.796351499372746 5.0171795332086875 9.82662765170219 1.9099786932539042 -0.8931565010357133 0.10839513817665203
P 4.167068134395018 0.20314045508714826 3.0292123807172415 1.5633279097613204 0.2820343330637788 -1.605207837824558
Ni 1.1326376999481942 1.324801225296293 2.8424858354418685 -0.40429311659640044 0.7849750215317642 1.681014243431911
P 2.6538974885957805 4.210862679563658 3.3324986506365373 0.2038080051610232 -0.0018738199839451598 -0.38995870225159934
P 6.594330475137581 1.8064299036717675 9.992730593330258 -0.4188720428518398 0.35820043600339596 -0.5659882517477736
P 0.19848734264135506 0.7426111430982973 4.912798050229113 0.13356700945658934 0.2523540323905267 -1.5648749425334663
Ni 8.245341228257477 0.1554525460957424 6.490653081541253 -0.7556089096648212 2.326881528194515 1.9541507597854282
