# total energy = -381171.9578172525 ev
CRYSTAL
PRIMVEC
9.21849038384243 0.00000000000000 0.00000000000000

0.00000000000000 9.21849038384243 0.00000000000000

0.00000000000000 0.00000000000000 13.49219249604101

PRIMCOORD
 96 1
Ni 6.451311524830462 3.5576182067260174 8.877066901413103 -0.9341954212548943 2.071889286850193 -0.4780734929126605
Ni 6.960319684257973 2.180154514783531 0.5113985139577112 -0.09620450964773108 -0.5229592976817574 -0.7070124888133565
Ni 1.7874376102672422 1.8345625325903627 9.399632694498793 0.7398758152002807 0.18406424687519268 -1.1993532902783086
Ni 3.6762970506203554 2.2772252174561562 13.206791745770575 -0.9180766613161608 -0.035656058640712786 1.031248909166482
Ni 7.6251295479466465 6.677404217494168 5.4782482519880515 2.1780095129497394 2.261568308809002 -1.028951628491873
Ni 2.4494819268712256 0.8863541532470911 11.5543091458401 -0.09749906008943854 0.14127234852064702 -0.09148653534677147
Ni 8.865449759959347 3.135512755189755 9.092212636866575 -0.6476277190971362 -0.8771770948883216 0.28707472370116366
Ni 0.8263639058859916 3.339232171938316 1.554003311942713 0.8849019743364049 -0.6913560132230222 -0.6190691907331531
Ni 1.4730686546602265 4.50239362028816 8.923789897559915 0.36396073552594094 0.7910551662875731 -0.041787111239115125
Ni 8.057873137268684 8.832751774928028 6.902363035853149 -0.8903971931230213 1.2908308267640156 0.6838339938143643
Ni 8.722258950404372 6.1874506774801725 7.600516178892905 0.8138374542894112 0.7981964053180447 -1.0320690910749322
Ni 5.885959952797531 3.827471072759803 2.082033826067751 -0.009938085049318368 -0.4953973289030887 0.451485458011487
Ni 2.741035119029547 9.146917923748832 6.406187014898601 0.19436640013214915 0.2850486944100704 -1.2082739898067063
Ni 3.013644313657741 7.065392036495636 5.3551998436999035 -1.591015862594892 -0.12403772980991541 -1.0723107122037985
Ni 8.348255581161155 8.615140093324039 4.185561484077715 0.6118942702512689 0.11351960388741096 -0.5643126638175635
Ni 8.030485002639969 2.735983386354846 2.386835832459795 0.7158599119016574 0.3632693658858711 2.0110798688723044
Ni 3.322887788667797 4.755966632483404 4.516066485074869 0.008360199039237215 2.0335348554417108 0.15694707894342647
Ni 5.616051775822051 2.210833650443027 12.076956061640274 0.008863106817584737 1.5737413917851606 -0.019242393169379764
Ni 5.944644861934656 0.6244854216468059 5.164392766289761 1.522091785929669 0.188555706987643 0.7772843377557258
Ni 0.10136651914417756 8.899613484945553 12.676278692212513 -0.3411275396815093 0.1288246096755975 1.0387603870521787
Ni 7.205033727291926 8.528587688063519 9.79616789769001 1.0078102185275677 -0.9932225505213799 0.1728804623442313
Ni 6.945385730000646 5.567304399209245 11.75922788817439 1.6247741899922599 0.06754493692950948 1.8127881655438198
Ni 1.4264138753415032 8.79108419885203 8.2458612003505 -0.49847545360778023 1.2404963401755216 0.3512587145782402
Ni 3.542186453993446 3.9948235453446888 1.8994984999879165 -1.940447808377039 -0.33143988008010017 0.40059381336794236
P 5.564077927610439 5.666430825214824 9.003394326694666 0.4080330432548069 -0.39251694989707886 -1.527764410834414
Ni 3.3976958373086665 8.887518825695174 13.448019355779762 -0.3702542818441365 -0.4176880498460677 -0.141486264303666
P 8.89687559333171 0.9054963483182883 8.777170731468953 0.14041539983699042 0.6228008898614436 -1.7579151676550242
Ni 2.855261432117534 3.608061785550767 10.987636564149716 -0.5703763535131403 0.3344958932976046 0.5188920695909193
P 3.799456080791892 0.6151977926873878 9.279957331804939 -1.1661881163802497 -1.945426492538553 -0.24564165336735758
P 1.7833630375624652 7.371823871969591 12.595096057541433 0.5517754505825013 -0.14508246629535657 -0.11570684134671684
P 4.150016829247219 6.548769404094945 3.4499268813991537 0.1990776895648894 0.48380525319011514 -0.42444902271898516
Ni 6.151387943495812 5.3654286805171445 4.3425431550950115 -2.550420950346195 0.46019815529413644 -1.9479387174374454
Ni 7.743872921272962 8.057946885190942 1.7249224184178205 0.8357964750590057 -0.827337288548059 0.27693814948779405
Ni 3.797676912167408 3.820972037110782 8.347781750760644 0.21142129873190682 0.30436462112986296 0.5809258468942124
Ni 7.921033867518214 5.32033182605613 2.5117472976339967 0.6630060013254194 0.8756825126206661 0.0033437196612523057
Ni 3.428688401637761 5.989667968473412 9.341589392285316 0.5062718097237474 -1.0645989453818376 -1.7450174857567493
Ni 2.0946530174151925 8.334483156679397 3.1720954120260365 -0.2250905686888833 -1.4536737023665867 0.6769220971858794
Ni 3.4956976074998045 6.625817545874413 1.0690415844165835 -2.6155811890936116 -0.037507767137470886 0.4345801976157161
Ni 8.561442387429638 4.027069824352176 13.194096040953792 -0.8726175005420971 -0.9289472854820775 0.17749379274652657
Ni 4.55676427597317 2.292435726421952 10.012528630162691 0.8034334853472679 0.7404689686995893 0.31250936172418436
Ni 0.6379591670434164 1.2013905275505452 3.3161380100830966 -1.3178500356653369 0.08278849335214129 0.32626322097516713
Ni 1.3901206791000855 5.266772397515963 2.471135238695321 0.34960318125268824 2.6004129659936055 -0.1385606060164388
Ni 8.506490966856845 6.361256093262668 0.20172269175341495 0.8608750152941883 0.7682214562225091 -0.5264279729566482
Ni 4.978021626403462 0.057688390337609016 11.535730200525153 -0.5652632006562911 0.5779929895181335 -0.26526816934903347
Ni 8.85705171531217 6.990288996165733 11.305701212510906 0.7169780846665006 -0.5068153409320434 -0.4399913413289584
Ni 4.199114508490753 8.10537601769338 8.03404702728505 -0.6310245633228165 -1.2823847528791914 0.08080334460131246
Ni 7.495471482126089 0.9253889284984649 11.696152212115804 -1.328227779355235 -1.4059823098278945 0.6438312281691815
Ni 5.130596859065818 6.98085848060694 12.682782337106676 -0.2375797022948295 0.25029226476549155 1.2794678363427126
Ni 5.133030540500346 4.748628714218692 10.986098919970628 -1.314117308095782 -1.7924844209894615 -1.3601889056428638
Ni 1.0466950421232586 7.797865618856396 1.1155368838534232 0.37868672888220584 -0.04011640840491156 0.5229829518308412
Ni 1.932905386921946 6.7141583382497 7.518416304438735 1.396825325918975 -1.0010793275616372 -1.3993326657218612
Ni 0.669752818178043 8.216633976910465 5.932341864803899 1.226068594785966 -1.7742635271060605 -1.323250637855618
Ni 2.7866574274366527 7.984918005174557 10.156450465997052 -0.5829037965561896 1.1714462794553955 0.867376563858132
Ni 1.815341980351766 5.093999452645085 13.410213405283018 0.3500922050739648 1.0662711908779379 0.806986492805849
Ni 6.435888990588174 0.8779690144863105 2.7856793456177007 0.3157067856155595 0.4932486579912022 0.09928854788969352
Ni 6.115601764219922 9.105167381260292 0.5098175428742967 -0.3950374023260874 -0.07170909560952812 -1.6991909143409383
P 0.8156372705935067 6.713725069206432 9.24928925833378 -0.7103585224674541 -0.025412012315201394 2.0243179648291334
Ni 0.150077021795854 1.907711252980418 11.141299578665384 1.0241413515874234 2.523841142975137 1.0957990251337257
P 2.579868253424085 2.011502235068841 5.079297804342872 0.02575988257292338 -0.7589955667488671 0.24570695938765424
Ni 5.120935881249967 3.266184854941366 6.174081101023751 -0.2414528120969906 0.03803998549185707 0.18026338507186374
P 0.21023781122717602 6.502547893819489 3.8757271038405627 -0.2734633035653161 0.7203727121703465 0.2589319427183605
P 7.342785627580343 3.273670269050594 11.333805623834554 0.6651662422015319 0.43846050650672874 -0.8205410915618321
P 8.668091101505572 0.6693656415861864 1.5208803545093788 0.532912038019095 1.4380892176647684 -0.30739158088164475
Ni 4.474775023402388 8.77169771378835 2.1413050311868314 -0.7791134205446646 -1.3568323304658052 0.28527906525332164
Ni 5.618992474222106 6.574378370099176 1.5095877039135606 1.2229732436900937 0.11955809677200699 1.3251313998180985
Ni 4.013048500632797 0.3028181872832929 4.290490027866973 -1.3329439538839816 -0.5752257111856416 1.2187167824065848
Ni 7.952699381637917 5.384953442935057 9.60800560514186 -0.10365402394724085 0.14210050084889722 0.23028445418499696
Ni 1.3193134552417347 3.6426956535413697 4.054363008530984 -0.2818445856504759 -2.2091183185394017 0.00733689998104543
Ni 1.462070995753442 1.2670446153410904 0.516101787699741 -0.24186444571311247 -0.4658419838434752 -0.0829666708012184
Ni 6.344017516434766 7.754824487728334 3.516253918980307 -1.2761266877846216 -0.4359421109602492 0.3144459166252649
Ni 0.3740642112790814 8.99576233858995 10.374065834997154 0.8144532334965393 -0.8524896194439706 0.06387622982867064
Ni 1.104024833188886 5.393692571722678 5.597627701143845 -0.7808239754778682 1.7942140020860582 0.03251956989426012
Ni 5.401509851482069 7.320873276179316 10.446559120728137 -0.8174138587867601 -1.5780492751318953 -1.4717878954687942
Ni 5.132274624297198 7.526205928727278 5.4873690262733605 1.408570382270045 0.20468372289775716 1.0700908217343443
Ni 4.279960668266529 2.9100745753360933 3.932029955088742 1.3570768423764434 -2.1992331982152056 -0.713149712059346
Ni 6.630205547248789 5.095041142046985 6.519414043639987 -1.368544733806727 -1.4401967509260745 2.774012051671416
Ni 3.721089694902054 1.7414004697974328 7.32160522430773 0.037548904788051465 0.013371536210899551 0.3512497157171757
Ni 7.0536476798759855 1.988723345581276 7.030093515355679 1.8617314282117419 2.2923037902196457 -0.5991971343995746
Ni 6.648218477260404 7.263276148895501 7.679580404497112 -1.9552085116259812 -0.8676244182028799 0.900065826561037
Ni 0.5485997314919354 4.663532830422776 11.326722135901635 0.0361031734804604 -0.05450584435736419 -1.5491670448799062
Ni 4.554109350771867 4.624151439936787 13.482140675710669 1.1363342662436107 0.4312575610003863 -1.091714570651707
Ni 5.841812602835593 0.3812675395856711 7.5095379764478505 -1.6319851059184023 -1.9570010847500299 0.7034877634895498
Ni 3.3292854209237137 6.0373091262523415 11.53340898467207 -1.5092781791047685 0.41372803675705516 2.4228764929346016
Ni 1.9922909013205266 3.568671176574496 6.5516870562692935 0.6441536445056067 -0.8692375283262707 0.6393251127687118
Ni 8.54282103705939 3.982341709502454 6.913898132743393 1.4980769110723102 -1.112897118266593 0.7015535225813143
Ni 2.7315585110193417 1.2824487126028143 2.678294996017237 0.652471934563315 1.587165892721183 -1.0574003707508692
Ni 8.018657679607777 1.7258857506523209 4.911347051738665 -0.0012331010761527151 0.6311137806025131 -1.1751975189677115
Ni 4.182770125220234 5.493768502227334 6.7366385486521185 -0.08572880692738784 0.48515713923231923 0.5294590464734881
P 1.4404075435900356 3.131051005893121 12.733459143735567 0.470488481476551 -1.402561457071804 -0.22264107870712624
Ni 0.3844497624311212 1.4594160705521395 6.539341654083236 1.2379671459957649 0.34657904971438375 0.7488317388419877
P 6.843604378793765 5.148277923427271 0.6293841273828203 -0.4770429947656171 -1.4070835133118733 -1.1426496669386774
Ni 6.904363448244409 1.4488977731400345 9.336677780662905 -0.3687944094691584 0.24076427067039824 1.0361188356642737
P 6.991782391591466 7.9771929103179895 12.200382428029998 0.5282979362858514 0.4983502408838256 -0.6226857044398179
P 4.610489637338418 1.6474179613693782 1.678711970330704 0.6885812786913625 1.4916234421374828 -0.8122289721517109
P 6.501294179141096 3.2634654003080876 4.465510440668676 -0.7977562324568326 -1.787029568522477 -0.6615522995980283
Ni 8.270147312999221 4.335797063906424 4.681872094990384 1.310687970699259 0.29746069492117805 -0.4931774384336345
