# total energy = -340871.7156983867 ev
CRYSTAL
PRIMVEC
9.20795858232764 0.00000000000000 0.00000000000000

0.00000000000000 9.20795858232764 0.00000000000000

0.00000000000000 0.00000000000000 13.47677813995362

PRIMCOORD
 96 1
Ni 8.174512572268151 2.1183369151478537 8.813327591111747 1.4706823211094413 0.8947737249241622 -0.3338924553856508
Ni 8.65863020349031 6.281881138262217 10.434988140306313 -0.2077029693400552 -0.3922441558516664 1.514837675470417
Ni 1.1459856952104552 7.645625846344948 2.4348761454665304 1.726976826204955 -0.3760647178783265 1.8038091019736613
Ni 5.4550801198755 7.82487717636248 12.851927182424914 0.11736520288574626 -0.023988906715429654 -2.0510055014226483
Ni 4.792171556565685 5.093925567764356 8.81954020077748 -1.2118591360548032 0.5631680086901591 -1.3251535113052855
Ni 2.111523025785704 5.1147079303189145 8.493861150754926 0.05785573466620359 1.5595666429466752 1.381325173400847
Ni 8.801464057254728 8.724218492580302 11.732828726319157 0.879693176441956 -0.1292958928850612 -0.1556556138255126
Ni 8.771667103233218 8.041199747693547 0.9340718944558717 -0.5203182605144845 0.5480784613468883 -1.7191689001247619
Ni 4.026032569419298 4.851645761146937 10.937847650457822 -1.8934724680687651 -0.7879955535256429 2.1495517718296786
Ni 4.080267445558573 4.285135316394349 4.330291145356489 0.0620224644493835 0.17161625091982702 -0.7384475673941863
Ni 4.822382868724083 0.22842459131576082 10.781166868554482 0.8650885391549036 0.07564134078439876 -0.1802844681177863
Ni 5.790010405900963 0.7036648296540692 3.9069313081440753 1.828648015394212 0.6249048235783237 -0.5614489691165234
Ni 8.725526022701146 4.578556125062284 8.751711615360717 0.6696340481648984 -0.7973127171615108 0.3288911455163175
Ni 0.9877193028366259 6.591019932256082 12.414470881395587 -1.3748524211923097 -0.21045173572978593 0.09428466691719892
Ni 6.0565071436298075 4.369038235134769 13.060749871478318 -2.65187642398022 0.43933339602998533 -1.5662867352793284
Ni 1.196408476490365 8.746087394249365 4.882690393558409 0.7584885452054615 -0.23929128566929755 0.7432832982199328
Ni 8.893727802401678 1.9263325624727845 11.018141970223882 1.7449850898569175 -0.18087736450677883 1.590605514530351
Ni 4.540564087888999 4.308523531232 1.4183902591754551 -0.7220187324142016 -0.9711781691268306 -1.2718560854337257
Ni 4.928707166649414 0.7188349414434503 1.6416602352683356 -0.5821985429590489 -0.6016389110718476 0.16891222172510265
Ni 7.460757661582942 6.366189207180926 12.534387047006687 -0.4447309128964728 0.7101276374035705 0.014396120820671982
Ni 7.0969328014785225 1.228231181403325 7.024568375656631 -1.1066094854856683 -1.2051634692021824 -0.10358614682378291
Ni 5.627812215206002 8.599579565004543 5.776402884685578 -0.7814780641220993 -0.39042792857853403 0.3993067191254026
Ni 5.873139856119193 8.062948945900843 8.956599743705407 -0.9796049597379451 -0.6737591260768654 -0.8494891420547499
Ni 6.9274050757399515 5.9066568254140925 8.557295698328963 -0.19420776306709778 0.7204081933939722 -0.3770831318405119
P 6.7704738373627595 8.670701837211631 1.5504627717269763 -0.21279246804782062 -0.25665034577303547 0.5186344450541583
P 3.5256168514795654 6.719728777531937 9.728737715878067 -0.33369807998665757 -0.5544337141409548 -1.78810660363674
P 4.341359111590684 2.193611976682416 4.6946758493436365 -0.43067212081056155 0.14797881400654514 0.00594773294300266
P 6.638109432523698 4.486237132163749 10.560403298791842 0.1481816740459706 0.5473163863698832 -0.5719071883353699
P 2.9538118305334153 9.010420261707795 2.667889983347285 -0.26766906548104225 0.17606965870549032 -0.6022937710470272
P 5.727074008887052 5.558706485931765 3.0669104235989284 -0.04708306953073182 -1.8977736665472804 0.48804268831023045
P 4.000425236559651 5.881390187022554 12.993662526728652 0.12146276999388758 -0.26471821038283444 -0.2025011134241416
P 5.455623389432752 0.9397642544608461 8.853838925757309 0.503371862468133 1.6831850258309853 -0.6275792850866934
Ni 1.8436358863086375 5.645519119588994 0.9956768206565854 -0.17448508782718983 1.9691929988305314 -1.052511160979368
Ni 3.5153591856019504 5.892494985091139 2.5946434350917524 -0.41153642842237514 1.7676511639958654 1.9689099203724736
Ni 7.582753905041219 1.694945770876208 1.7854710534399496 0.0561112411712711 -0.4881625017175463 -0.07125349612934824
Ni 2.2734818095571305 2.058485184264104 5.8676270513068705 0.984722997690801 -0.452337264488821 0.5886029038234959
Ni 3.8497369941115642 0.2731863196499276 12.864258480578686 -0.9660596169533427 0.8565131387810668 1.8116741065440347
Ni 2.6433194666257167 4.16211698953175 12.811496877815012 -0.7975289469373749 0.5123527258105047 0.09062315890521166
Ni 7.657835599445233 4.470767761719949 4.210334464727558 0.2788243107669134 -1.3944887073659984 -0.6848228400901948
Ni 5.192202109875473 7.684059865530913 3.1045240136738554 -0.036597339508059545 1.3655707387800675 0.2892681318080567
Ni 7.102227377672087 4.025240684979913 1.5495999860063907 1.7295350738504343 1.612503857265339 0.3652092632210614
Ni 7.600700216347746 6.65589000057547 2.5439167911781255 -1.443964702608939 0.6866578364164045 -0.7728227024399464
Ni 8.024404431211707 8.87324009452224 9.216580009134802 1.2297288172463723 0.20826886914585424 0.26353241760484936
Ni 1.6501214284235783 1.9965340388201243 13.106315454598047 -0.34359425605444693 -0.45494487731499716 -1.9735422769381628
Ni 6.720281255047787 2.2787303459577055 10.61208664960375 -1.9988874405711703 0.34080975133077435 0.22639926019797785
Ni 8.817136002787674 0.19648954930791143 3.232567123543111 -1.033466228532775 0.524350264492013 0.35944356438187774
Ni 4.343163871475794 1.622064778576996 6.986981488661637 1.0162388089108951 -0.15080599904269512 -0.22875644757624472
Ni 3.646940913960225 7.584300842085598 0.8817872639475474 -3.623873232353604 2.107695497915525 0.2337148200227846
Ni 6.049877413439607 3.1785044362296095 8.234904810321574 1.5772121239425805 -0.6582057517232986 -0.6292774987247227
Ni 1.6368895919189708 2.910635712669738 9.651313516806848 -0.3857960862334775 0.8487023844873964 1.247573301626961
Ni 8.352824690508738 7.441135501811669 4.572562664811171 1.6088374641573455 -0.517895767115921 0.4298190287816469
Ni 3.6741504316158373 9.345341339774661 4.706697760088533 -1.0988131293697012 -0.7025307988929191 0.4899951840509109
Ni 3.533600151583598 2.344889528480743 11.857327692924235 1.4159173095534194 -0.15941790908142223 -0.3497337932932815
Ni 2.5843424918087297 4.579366425418864 6.254504956555989 1.6455142507530887 1.5877670166402913 -0.13882362986983834
Ni 6.525827585385783 6.220629797671648 4.982742230087124 -2.1783545549939842 0.7000301439582525 1.1086841086265098
Ni 2.099184361265054 8.015316176075974 8.684139011192963 -0.42661697690458145 0.33523431412552585 1.480888829328798
P 7.641325729679916 0.17025515446777428 5.244232600726507 0.5661761993888637 0.24312788580656838 -1.1996628510989276
P 2.222764373602101 4.178240125035972 2.41130561304865 0.36553990708760276 -0.87510247174748 1.603160725487542
P 7.99187271348674 3.229921677038049 6.696018284143375 -0.607161897772606 1.5824466328686424 1.380975503370912
P 8.739522119769347 5.791253480311626 0.6296475752639255 0.5213320464909795 -0.5174566226959734 0.2792688545034997
P 4.992601191357467 2.431324635835475 0.22496884445411905 -0.7906347909207028 0.03501199729881067 -0.25650405000315823
P 5.158712764456366 6.791256199917317 6.9474406728522515 1.3958400791875702 -1.0545055657015776 0.4493874378318777
P 9.029563607631998 2.9644838545479177 3.1163700524095392 -0.7300763126113555 -1.003824494406942 0.013445326871628456
P 1.0147538692788858 4.583951988800418 11.24164122448584 -0.22730454562106658 -0.18551434905815792 -0.4967281318993704
Ni 9.124902810950513 1.9681827342984217 5.4150641734024845 -1.0025597687619057 -0.7248194350877903 -1.401937964555192
Ni 1.1191352879401453 0.8786703699622936 1.4188617066556473 -0.4954112128601597 -1.5449568634533004 1.3085503555309657
Ni 0.5901933142653576 3.622512199801058 0.8361894529727276 -0.6437098720999688 0.18040479574573448 0.8041199698913313
Ni 0.44824894930145665 0.7293651628955512 7.424249026539714 0.39404109985108915 -1.0086465983859336 -2.101977621595141
Ni 1.6097353220149433 7.045478728835693 6.729925670882809 -0.7026076748774416 -0.8693244316131222 -1.2466027101835757
Ni 6.306567675262114 2.834126784683111 5.268665918864973 0.4937646783956722 -0.3589105746965432 0.34743445573614357
Ni 3.027917481326095 2.3358104813036076 1.78572703468896 0.9569615113068163 -0.018643326132800148 -1.4378994702514654
Ni 0.9699663586606461 3.353243866534366 7.313672493334057 -1.7344222267394067 -0.8516470689380172 -0.09789578130722494
Ni 7.515986997250747 7.785586817026948 6.798064564504308 1.146146367238026 -0.8659598860162635 2.04597796630107
Ni 5.641513657599082 2.888536612035738 2.845514267080639 -0.7944289678558125 -0.7468275639277653 1.3945121044047661
Ni 3.049510144237232 1.0698819174021181 8.995251070714273 0.6495025675223459 -0.4146220093262343 -1.2586431862878775
Ni 0.10899828910204605 5.189504178006406 2.650625981772833 1.4472847681211074 -0.42571863346002814 0.8824457994864287
Ni 6.362680974955278 0.6580163749069631 13.133942092778124 1.3972886387086385 1.5669886464423592 -0.5823854621588744
Ni 1.8660480575349523 1.5626642376645234 3.671370548915252 -0.8523559220795837 0.21261480481937575 -0.7867529393677934
Ni 8.89139818887651 5.254272958781221 6.228602969021222 -0.05533631067845954 0.7543994627377525 0.0007913855530437984
Ni 8.108878243385172 3.9742746341427515 12.414457990253549 1.7877469063044757 1.2985384798209185 -1.851238241989902
Ni 2.874761505973878 7.486871432165452 11.516068776954711 1.5141925856872505 -1.6920347629121308 1.5701017381500444
Ni 4.389811389730729 2.9274034052757854 9.815434329256968 -0.4006902297364906 -1.063616783974226 -0.68536508574691
Ni 3.852223142932889 6.829819130523647 5.129018939571148 -0.4498414946501607 -0.47289323426330165 0.5403091018141146
Ni 1.1837199095430102 3.9235571981877215 4.655027300418661 -0.42028203582548906 0.5426187237838977 -1.7030246862647314
Ni 5.44915019453871 6.480588884796266 1.0793062630266592 3.455177497514682 -2.3426807000103005 0.6548581754073044
Ni 5.457603100531215 6.485192864095016 10.77546622138677 2.0045742065433028 1.1470825058990501 0.2684691927848344
Ni 2.4022366946259726 0.2957522637848208 11.064030752690384 -2.633419245716297 2.1879260007325025 -0.7082638447219544
Ni 5.169025678085566 4.569403414216368 6.451846242034169 -0.3557792281564131 1.0926213987366926 0.292173992600942
P 3.0686626981200322 3.217002911125757 7.930746601133095 0.9885205170600202 0.13784738199949806 0.30008656257979927
P 0.838345956876262 0.7987913291289814 9.397977714301412 -0.035699510284138515 0.18709377773013586 2.7901230983006653
P 8.47889085166711 2.196484859764836 13.32806151354304 0.3636655728830253 -2.244656620655328 -0.47390856290169353
P 1.3991493088901192 8.883276769393516 13.013581182766764 0.6638961172398565 -0.23858577496184072 0.28077140719095517
P 9.031221040179547 6.948657044182981 8.54695884400741 0.7082435330069803 -0.0522908389839164 -2.6716250673620574
P 6.872479602705864 8.291941668262067 11.10632106493698 -1.3114603300889092 -0.5045905653665826 0.23052048145520299
P 2.651358014481334 9.195122703215047 6.773806197579194 -0.5722684283295305 -0.5969903565562429 -0.15600759784829263
P 1.0986936198536954 6.352119446443946 4.542078797078287 0.3808765374446731 0.15268316146074992 0.45006492351487654
