# total energy = -381173.78261333477 ev
CRYSTAL
PRIMVEC
9.22455635818338 0.00000000000000 0.00000000000000

0.00000000000000 9.22455635818338 0.00000000000000

0.00000000000000 0.00000000000000 13.50107066265123

PRIMCOORD
 96 1
Ni 0.8519449610717933 7.737788388554825 12.457087043011844 1.208693079621996 -1.5264410640373003 0.4815059156329772
Ni 8.426632125824614 8.160559025619595 10.227047804470258 0.8221490594789003 -0.12334481750794886 0.4168802092327917
Ni 5.011396995183756 3.5170281087563207 2.8354274930466814 -0.2727099703390594 0.13010476193960174 -0.8342586982582406
Ni 1.9193072942087557 8.838776074100167 9.629948736203001 -0.0631501502959235 -0.9414976113432625 0.49511502177597955
Ni 5.730091396448256 7.591754438709253 6.7189564457998685 0.11863198541331182 -0.09315698107065891 1.0556293948933757
Ni 6.076713321746544 7.9818516975696765 13.145154995101796 -1.2428499280093628 0.7644403919135222 0.16768400574495637
Ni 2.1169618607769483 6.538439259815537 3.259401012245231 0.11424799741300323 -1.0244897360657776 0.07962526513281125
Ni 5.786324291291198 5.867094505734241 12.533489430074944 1.5402486593443536 -0.32953854929232923 0.18618077899756325
Ni 2.022816039784977 2.1586384058721597 5.122089825160186 -0.2325017735512899 -0.3630181691070135 -0.20875377920207275
Ni 7.910167671023664 7.115213863317791 0.5557352356286032 -0.01805531483981407 -1.3637995058122576 0.8302189809712283
Ni 4.477036901275963 6.555412443298314 1.075816638931509 0.22810904380023295 -0.6351779233695577 -0.2774721676143931
Ni 5.124490054694001 1.4231737613621755 1.2475068470491724 0.4857474645181506 1.2538609344078857 0.3707613033875421
Ni 1.1055353917719786 2.472420910953769 12.49695557508389 -0.5210361125171156 -1.2000112355772816 -0.1490206250074982
Ni 7.6001672340007165 3.7302076034775107 9.363896852477334 0.18282060427607869 0.7614836232780434 0.6793731298295332
Ni 1.5664403443355548 4.113727753738358 6.482822565329471 0.032696718902072715 -0.5635745000999585 -1.1897491915296414
Ni -0.006217350906191341 0.8851570533605936 8.940854091003464 2.760703250377652 -0.12069632414150826 1.6273668904201006
Ni 0.4261339102701079 0.8543073699250212 1.2334458559715649 1.0138271141456088 1.1208546825507728 -0.3384841885213912
Ni 0.07176612509655492 3.980598958073442 11.111948415167362 0.9954059313259437 0.4224001106097564 0.15240548231933107
Ni 5.233718025139419 1.3429570202935701 7.955303424709115 0.17193326793961358 -0.05824782789829969 -0.007130954617826428
Ni 2.2036357912140017 8.817061468709701 3.656413920919263 0.40526679336357946 1.0109395081851684 0.0035499221347874347
Ni 8.28446326504387 7.24649774773458 6.72285843308966 -0.8638700933667703 -0.3521637428910128 -0.8513809597608242
Ni 8.109344289371561 2.051642778036977 13.300714221721451 0.7141051339940798 -0.1669712959486479 -0.17429739729641597
Ni 8.243211049535729 6.595880571526002 11.966876597727376 -1.9487373020793404 -1.5235439449951633 -0.8988548369720714
Ni 2.303399366956523 3.8246117120442196 10.761527817609178 -0.7395433715615264 0.9936616949413274 -1.0786885907056842
P 2.4263442525317727 8.552925525315215 5.863123334272646 1.6723784221337843 -0.18641423516460798 -2.239834773786652
Ni 6.616432882830148 5.08296110249864 1.3210597686895391 -1.12810313658307 0.31087336878265814 -0.3433397168414797
P 2.223191850444158 6.060413530869333 11.079990862527287 -0.77787646281377 -0.19797622897059453 0.5090892245678845
Ni 1.2734684381328294 3.0548224937628143 8.791249315437142 -0.873040961232761 1.0912620564953208 -0.32852527753646643
P 7.980689403483356 9.161663216191288 3.2066928203418383 -0.8731029248189478 -1.2627806054950188 1.324578612638422
P 7.332295345328772 4.549495790546191 11.547141762121402 -0.4881419328922561 1.3558614819121038 -1.8462428456578395
P 5.977318728253648 2.01493826875547 5.700381868164028 0.14114893556890531 0.47793388201100273 1.4383859229695808
Ni 4.037173161497287 4.792765787724347 11.756839909317373 -0.05630047436394175 0.029232157392239982 0.6898624593966313
Ni 8.828684409572906 4.911245988079128 7.617911590385212 -0.8886290454790052 -0.10969045994930786 -0.4869111458089485
Ni 1.8269510371274684 5.448604062765128 8.393210636109151 1.142591560007232 0.4914918232010954 2.0420194958739537
Ni 6.314467034292798 3.884792716958155 7.427275988660522 -0.8829492214854083 -0.05503497738795683 -0.011901893643908534
Ni 9.002142965121902 1.668233322451017 3.7918165696974966 0.4999378970859196 0.7656626943563974 -0.44887116031709146
Ni 0.687734945609665 9.179319016835873 6.665221560786892 -1.3257690334020975 0.3487405761420769 1.208411800936151
Ni 2.747773914736872 1.3134292157672818 7.533259682676106 -1.1058641226792116 -0.23471497915252482 -0.6982411703786298
Ni 0.15779525905238737 8.038573493893372 1.8909602328812691 0.8093112842842836 -1.3872160849639852 1.923483155498242
Ni 8.742425584166682 5.490511221766355 5.055988500051009 0.09389925855332217 -0.12064798740207609 0.7544262022106296
Ni 2.796184385887751 1.602563706573901 0.7765987856982461 -0.043993889082446815 1.1470470246754245 1.6195324819773464
Ni 5.786370414072401 8.403856696466475 4.539383831995201 0.4150130741170659 0.4482494675726925 -0.6859032176385671
Ni 2.1210575637477924 0.35517216647773675 12.56974009118941 1.1549554808892237 -0.41531697851072985 -0.9412759822507595
Ni 6.139523325189062 7.680799080100151 10.752535720185803 -0.31007092748602083 -0.4393423948910498 -0.7471985741139391
Ni 8.881310502925759 5.765098587381485 9.878895525291647 0.4215609025379127 1.2013487234417828 -1.1867731396204528
Ni 3.5929554311730283 2.357971841676149 11.83813038873239 0.9217574526018577 -0.7779386835102731 1.8559307623695647
Ni 7.129797886734244 4.24723475620914 3.4151899303152797 -0.39269692711836884 0.7673583368912655 2.6096936199645833
Ni 3.7066296377264347 7.29160582775131 12.322791340982485 -0.6212805965621752 -0.8588716117109143 -0.22190471476173396
Ni 5.576908415516189 2.739314996664205 10.576643726700528 -0.5334961926573392 0.7618741738482426 0.6158434847070039
Ni 4.061941095003405 3.5030621306079914 8.878276546378212 -0.004694577262191915 1.0381322665498764 -0.6024176982194013
Ni 6.9771868282890965 7.026944084651109 2.846147349853929 0.8229476441207956 0.8729687132339288 -0.316483515880584
Ni 2.9489245881202675 4.489739115219324 2.1334664368027014 -0.4296349377952987 0.26591017380840654 -0.44475970925187913
Ni 7.57845262861025 2.8321878288949685 1.82126778802761 0.02946895599339441 -0.3480422645234716 -0.6633986087781478
Ni 6.040313222820978 1.0385651134649325 12.626268171832052 -0.36384812120747656 0.7675807373147169 -1.2064330799432255
Ni 0.7777186468258598 3.1645947130264296 1.4261855789747444 -0.1542880440540246 1.0178778871762146 0.07979778615493355
Ni 4.842347777517787 6.345387746811424 3.3793580640541374 -0.3966325147273492 -1.16561296060307 0.3651889515060872
P 0.5118863075387211 2.1698831399295 6.996336084589041 0.08755968948853952 0.1281628077218825 -1.1812982325488106
Ni 0.17017645843857435 7.882789188101444 4.491846926320311 -0.3549037675299952 0.11424979718521613 -0.11493885283244076
P 0.5026211632506223 0.49938795628827803 11.138545578175998 0.42480923427188133 0.4090545425407859 -0.017279355905737984
Ni 3.507416121153574 4.498465545422969 4.430592183059965 -2.3748559991912646 0.15238208528056335 -0.3370657109073098
P 0.8784286620386706 6.171514086231602 0.7682690114129482 0.37333677742420224 -0.19339915112287337 -0.22973783765290756
P 4.751116916297859 8.534780823189877 8.97818494765371 0.9579819821515307 0.12731254390644525 0.42730140456611565
P 0.2980324977563406 7.456291830315456 8.425099927033044 0.689966074854031 -0.31315470861766714 0.36411268772277294
Ni 4.42538861088462 5.5346968461590205 7.437631475496264 -0.1131650487614696 -0.11422768569802907 0.42475729798802325
Ni 6.279478292472051 3.4848528565889687 12.952886646922513 -1.5167397775891365 -1.391540680481268 0.6677851678816177
Ni 7.775120167660694 2.0265150868374735 7.921186403453108 -1.9441147157056649 0.5087614089148206 -2.0547024906582614
Ni 6.495305234834304 0.8937100619069149 10.031281504564523 -0.28947587694348853 -2.337930072699193 -0.49514998877897304
Ni 3.8310135540752244 1.3541002842322634 3.3922521487673043 -0.32737445176147495 1.077984365549808 -0.06204534726751895
Ni 2.260947959137098 4.231423866812683 13.277465572628167 0.2796799738989893 1.1215560794931718 0.5793322771548474
Ni 6.410725278663876 1.8240545264679073 3.597494835299047 0.2108589984705336 -1.450824662953566 0.3259660014497225
Ni 1.479526575436245 6.552875690332139 6.448569943096726 -0.9644642474417648 0.5867761350274023 -1.1089959834399739
Ni 3.8570637008987916 6.396288848147274 9.759127576885675 0.1034532207903444 0.9898328081135404 -0.3806741916258799
Ni 8.184838057644958 2.0462371880799615 10.970483388027779 0.08713365769471444 -1.0362188515772475 0.0892033957395496
Ni 6.719544972488022 6.201973570938193 8.652741681028308 1.2290803850290961 1.2725736803260408 -1.5761186337680857
Ni 7.920462275788217 3.088648941497241 5.471659918632983 0.1763735630991543 0.04599523578319176 0.8932819708699841
Ni 3.9220138013891375 3.329114673578244 6.424200510420204 0.6214906556904523 -1.0777457671764406 0.5852296164758889
Ni 8.8577140880622 5.345289032869959 2.4878554384556075 1.498436094183942 0.5391657322382908 -0.8758414067960336
Ni 2.462403042876434 7.919078592352121 1.252489952330366 0.1662547294975975 0.13441521638949752 -1.0321775916283384
Ni 3.7745131471013043 6.740613858941643 5.480961961146044 -0.15701444184625218 0.6898688871545344 -0.21247930768277598
Ni 7.868445003147249 0.49307190263031186 5.55825544034199 -1.2524221450788302 0.0731568837996482 0.20589008450103252
Ni 4.169471747100545 0.772591638467312 5.732257322253559 0.3607499418981271 -0.4455048149480198 -0.41959375150921285
Ni 8.069300490730944 9.115300596525833 12.471789140748175 0.45985002792609836 -0.7787259552982588 -0.3485035204306063
Ni 5.561245119019582 4.67013453706128 5.303476886798011 0.6983931225754617 -0.19974797615903664 0.09067792340254706
Ni 5.666718695075059 4.967257493572293 10.050102366662301 -0.12418274002821193 -0.2331669179391146 0.9008924362273905
Ni 4.624334615326502 8.601013136997672 2.417515429753856 -0.06671986992505284 -0.35019402075915174 -0.48884512960686777
Ni 8.46924035110013 4.358547476364943 -0.07590057120360975 1.2162084141624343 1.3617030282945453 0.7842216883055074
Ni 2.912109384163873 1.7835587245714979 9.707945126584484 0.5190144541013965 -1.5565170574870741 1.500952175737576
Ni 7.488891412069877 8.875065478350844 8.314391415311004 -2.0173209646860095 -1.17785012609921 -2.133432497670313
P 4.208869826804318 -0.15119232169533728 -0.025681164573941682 -0.6776674599923361 0.500716170012841 0.9983069070228228
Ni 3.0658458384703793 7.833899040026052 7.7611440425005 0.8156107441397502 -0.3897807819128384 0.38297867138934044
P 6.795416947567285 6.340388037328997 4.908827309432831 -0.8156277134206147 1.3429907965970225 0.3133560259951958
Ni 4.315164388365213 0.01318650314599484 11.134981209644614 -0.33697417963476806 1.091796588842552 -0.9540286539307378
P 1.150698819126152 4.648373808889611 4.05145554192467 1.6234079057723525 -0.0741513865024336 -0.10729187781014425
P 1.7286264921584868 1.9946995923635062 2.9091160156637854 1.3235139188193337 -1.1071360474130998 -0.36063012849081116
P 4.495965690681756 3.7502341150759397 0.6310269861203308 -1.1092872894281476 0.4827909529929878 0.3484433566166321
Ni 7.322415845595047 0.31469481369380853 1.234747440857119 -0.8475428169616565 -0.19530690966854752 0.4541084974566308
