# total energy = -340889.00615360594 ev
CRYSTAL
PRIMVEC
9.10349175142657 0.00000000000000 0.00000000000000
0.00000000000000 9.10349175142657 0.00000000000000
0.00000000000000 0.00000000000000 13.32388037326144
PRIMCOORD
 96 1
Ni 6.4629965566887115 2.0347396163074247 11.380245728100233 -0.8744041601288748 0.5030509887936047 1.2931579322352955
Ni 4.778832402208835 0.24560401044382243 5.776168156380623 -0.9681031297459327 -0.06172344515172597 1.2196783749889057
Ni 2.7527319994374873 1.4607917808921709 5.017159991810311 0.366606143568588 1.097267382149136 -0.4240499875083536
Ni 3.676226602128575 4.042860623152794 4.943225984715207 0.5806173145148581 0.8256524446464684 -0.5070117732135656
Ni 5.162781264271641 4.7353541262885965 2.7804940074455193 -0.19074345866758116 -0.5584400070868705 0.5274944665479496
Ni 7.449232423542756 6.028286625419195 2.512284206640487 -0.6203490858868413 0.7582211504766877 0.7206311080380556
Ni 5.331896827875131 4.295509825752117 12.036313430264585 0.10534015340041214 0.2502323580618335 -0.933341043674399
Ni 5.728763544529816 7.703574875581184 12.255331603816142 -1.0219574565622271 -0.04388770252188571 0.6337553319904182
Ni 1.8915781072786004 6.532993303663316 0.45670305664550115 -0.6375402529541472 0.9087240164566672 0.6839543214423125
Ni 2.5511442812679412 1.6215412357078252 0.16192653628058026 1.9266155304796369 -1.4615294509655796 1.9120885405080554
Ni 0.7502269365651488 0.06248272500128691 4.733055494657554 -0.6090177200344221 0.32910249019617516 -0.07126789430705145
Ni 8.764459373621566 2.5222680058870792 1.3577966975365618 -0.2234427486728152 0.6355293931717055 0.830420812569389
Ni 6.8519887531023995 0.7447885106784758 4.981132923771295 2.2375665465777654 -0.1998611046981332 -1.220402397639124
Ni 0.8624374844756277 7.765351169633683 2.478614942927966 -0.028525875353834742 -1.1386845116433422 0.3711351417871931
Ni 8.029953256714428 3.7722502316107094 3.7131257846636467 -0.32649050649462485 0.25296364095006757 -0.2045595386150671
Ni 7.749156058062891 3.918452306836635 12.879328615394353 -0.3882828572110732 0.10022160122692418 -0.6896518860477219
Ni 8.30840175453108 8.716720663628742 7.109808738935118 -0.38302109459150163 2.3679111924423157 -2.2345285310823906
Ni 6.7237478668192345 0.41205953379942756 0.3268936387582626 0.6092025823517185 0.5891299799715597 -0.9172032575722721
Ni 1.5994652685582067 6.539711680470086 9.364395856879597 1.2884186177780972 0.5236583806313111 0.6043190290071722
Ni 0.15221402108390897 5.026775099646776 1.3965420681697538 0.6814996892542328 -0.754590752812952 -0.5682991592691374
Ni 6.168771707915241 2.19538893271539 6.8852347044551445 0.733142353131189 0.11016225737940383 0.1420015133771877
Ni 3.8977236564450144 4.452918299147603 0.6584591894097971 -2.4979923002328333 0.5491539537992541 0.26777550915191944
Ni 6.119285127533663 5.944871331814265 4.746432165226481 0.4948026327418833 -1.0624394758366735 0.7750716463751233
Ni 5.419973109183402 2.874709683494286 9.364142779812891 -0.4537976510844313 0.10609451506793341 -0.16602924375035277
P 0.054429776324770446 5.575651919173349 12.307041256848416 0.5713263761312354 0.9854968997423479 2.1044916462662466
P 3.974111054528498 6.173660282908785 12.726290728319912 0.44131751633954963 0.7099438035275386 -0.5908965849536791
P 2.3318047544626195 8.799680782653267 1.3318180635345551 0.9571751699795193 -1.1477630769058427 -0.8074917145770416
P 6.639968433549982 7.825652698045671 5.887729625339445 -1.657051819079043 -0.038016074232457106 0.9579161619106019
P 4.749309778923799 0.7689364325180955 12.4464894516503 0.0025088824647827757 1.35665003925167 0.66942938835326
P 4.055050198416026 6.167260528308297 8.337205201979076 -0.29031508501533226 0.31608499489058467 0.027938635391797046
P 4.65950383420999 1.173112342584917 3.6944991304843335 -0.038791004725268675 -1.0499074048079338 -0.05630510234963207
P 0.248837570663016 5.765232131911824 3.609225814242193 0.23305738894444378 -0.4280405967249854 -0.22469873256710335
Ni 1.5014934918719416 1.2741064784850682 2.55733192451396 0.12868499877393966 0.4542272824226822 0.5523835164801455
Ni 1.7159899611417595 6.9155311245268685 4.862497131483826 1.5462727540512466 -1.0407717610552527 -2.239400000242079
Ni 6.026948412152805 5.470725074898503 9.137823605991645 -0.2664827584824249 1.7839622424510628 0.057546430955900896
Ni 8.612804306922394 2.0102421203900542 10.22713102553081 0.770116616362693 1.8309843768368725 0.4432422441660882
Ni 2.817776446977291 5.257530404928642 6.85790784334598 -1.6430768449561894 0.28362507458966635 0.4016921886384437
Ni 0.36998956803096095 0.026774279168553666 9.330966014996367 -0.37370007430089186 -0.28666154742314504 -0.9668993392458185
Ni 1.1788111283315814 0.7610946848468868 11.697380423854623 -0.7713224637453362 1.8345826357110921 -0.3138491635815305
Ni 3.8891572708418014 6.762619775985779 1.7497056526614818 0.8467509171879803 0.9773809555034327 0.008414192205624218
Ni 5.600058380174639 8.055242756401702 8.11919933669434 -0.5752948738606801 -0.5629906025720304 -1.6748857619366704
Ni 5.756856919632382 2.867690891464449 4.508294838599614 -0.8763150039983424 0.279603355024783 -0.7638359255603039
Ni 0.9493212083832392 7.152950185665857 6.893309501511521 -0.3893735191720907 0.5380802124835959 1.941430226894966
Ni 5.305077941597697 4.721161782871584 7.049997888720805 -0.9046277349001065 -0.6930603975086386 -0.5868879780149183
Ni 8.016998988156116 7.3489574634796435 8.710486592575522 -0.2396026462621293 -1.693262464671645 2.73031898165884
Ni 4.817358378694272 0.2735599228231062 10.244038940494514 -0.30841385149857203 -0.3447527951389224 0.8470229399024445
Ni 8.241837023892725 7.463087937770269 4.586812453719391 0.4057311345945077 -0.511615590534164 -0.08186983819261386
Ni 7.468604653684771 5.807335780599241 7.02382990209335 0.04780015020241445 0.522766464944661 -0.9120191422681713
Ni 2.2835107314817016 5.179495274864094 2.8181205589600764 0.24972867895253767 0.7482475842037437 0.05955549096612969
Ni 2.170609228558169 5.599248169421519 11.708133468142101 -0.4438947901484226 -1.3473079359151376 -1.8420185231638473
Ni 1.3627835902394734 3.247616010236479 3.9903425800657226 -0.8052422564212326 0.3225407778182574 -1.1723983589560196
Ni 3.550643935394973 2.8963942005047563 2.7327944424666097 0.7588413005591899 -0.8920928356578894 0.23838780001842172
Ni 1.0759689836349882 3.330985786383368 8.062120444311615 -0.909725204027672 0.8938262734092284 0.6216228103929423
Ni 3.4790540773889522 3.069879440080129 7.685933219193866 0.4485500295322469 -0.5567551631852798 -0.5145361066150687
Ni 4.182207769197829 7.010762750239098 5.985433759372433 -0.03221772238312516 0.17974402223328398 0.48809950969009486
Ni 0.3142270405347661 7.550627113073663 11.361099264550099 0.22300077603939011 -0.558336905850103 0.3410275237685353
P 0.2792623499664138 5.524253605554073 8.173508036580722 -1.3741487102570658 -1.1172312268655726 -0.9910039456035064
P 8.513357764595618 1.6614873568841244 8.029556344480316 0.0549097646640022 0.13852769589597436 -1.194097184085692
P 1.7010511314128836 3.265404232838687 10.315108078780552 1.32433101540399 0.031137859055385086 0.751311567841048
P 4.0444719411674255 6.254162459199126 3.94522749635435 -0.8303094838025056 -0.1397363714920948 -0.19398047754764014
P 6.942814288876314 4.145393249134712 10.514566490262965 -1.1611855209593356 -2.929182241220078 0.23804892862176424
P 6.2469342868623015 7.608616354617196 10.079408667206332 0.12308487897834286 0.06949743267019 0.3612698189573391
P 2.4653347693700844 8.648917858131687 5.998890540667511 0.9509754689267107 -0.31903405021657955 0.5701390406913536
P 6.894984543967409 3.918006235747839 1.6817535499020544 0.5194230023937247 -0.6915210780459767 -0.2765437422628527
Ni 5.104946782085445 2.6557069858784637 0.600032980269075 1.2443545375793472 -1.9435827544615947 -0.453757027654483
Ni 1.4518339451498103 1.1055280208864566 7.2300440146981275 0.41000662204141003 -0.5102338796952889 0.031944671227396595
Ni 6.868165657689975 0.7418499035873843 9.132467111529447 -0.004756797958695033 0.7712923818383491 -1.8733283890207222
Ni 2.9956313625245468 1.6688702885782856 9.611726799681472 -0.8795671923870529 -0.6929580676028195 -0.7397009801853132
Ni 6.4916816587458035 1.7165088601634206 2.4596551009557968 0.08636155541538029 0.4945023278926451 0.364100860648231
Ni 3.9992093808920024 6.9419221466987215 10.517604325412586 -0.05650436284463172 0.41808734216701543 -0.2726966006026207
Ni 8.179997005398969 7.335702779698265 0.2871487047465022 -0.0835449119021916 -0.4989130553658311 -0.22694176296500918
Ni 7.545337984449363 3.7279162274793105 8.381399922688871 0.9491191324442622 -0.4376243837586785 -0.5307739086301698
Ni 2.959690777655807 8.39695141740297 12.32713357317663 1.1393576264509668 -0.5401430085498956 1.1594091457852034
Ni 9.0379373650202 4.541914033108291 10.374399119624043 1.2382147432301966 0.5171617171633739 -0.5967317035782175
Ni 8.982342341769595 2.225521489938168 5.728682523454504 -0.9272161617235837 0.6490114868185403 0.4415900532746459
Ni 3.496387125410756 2.7572109173086674 11.687414831591248 0.37485038585525116 0.1790130576045304 -0.3099547136231307
Ni 1.1060287129249016 3.073229524991906 12.615848988828885 -1.0956961810072743 1.849062831605138 -0.9187862857886756
Ni 3.05867304191057 8.373928687126112 8.363226622391641 0.3039239340480185 0.04806805915182044 -0.5351784654557686
Ni 5.57708116735582 8.01116365003533 3.6701964492873764 0.05503986248396328 0.5697356346053478 -0.6036816525334894
Ni 3.1229436926636858 8.550727597646828 3.48744567595329 0.3398841541927114 -0.05321566479103093 0.07296045151812595
Ni 3.8607725840077767 4.6021427335874145 9.979252962883285 -1.3390495525610875 -0.5294315356696624 -0.37140767872228936
Ni 7.254590669470182 6.075042158318346 11.174791757044732 0.850980638998612 0.8279895774200772 1.6238401082137648
Ni 0.33548096239217395 0.4095569839563636 0.5925717585470844 -0.619019054221508 -1.506752327359121 0.1479011666910743
Ni 4.590708748127653 0.1465452768595513 1.4001270231650196 -0.7584276100605389 0.28789824804372355 0.33903389037727416
Ni 5.909367714542715 5.5967811231957265 0.6531127087883658 1.0870403051044892 1.4973474891054535 -1.1082609050461623
Ni 7.5566263140433945 9.032875823686101 11.102735800268377 0.7396945524274099 -0.8679355216853956 1.6602374158958761
Ni 0.34891043321242843 5.044645253673456 5.7661224533910955 -0.052046584183594244 -1.042364302353353 -0.05348665906423047
Ni 7.854802078174775 8.761746533122356 2.516508226746641 -0.2062811492918641 0.16624933018095883 0.10018020646602747
P 8.593441180271988 1.5440250046649384 3.550800515450632 -0.1751476611118532 0.1236042418169226 0.1341871595390915
P 2.0738026987977394 3.5127734103053183 1.3460714003453416 -1.9236299654887516 -0.5357636485352774 -0.2433988800797679
P 4.748918328784651 1.1420057117600733 8.11774732978285 -0.7449460306343364 -0.47185836524088415 0.02316203993876011
P 8.356741294970037 1.705420807384767 12.535199335974493 -0.4039609300679623 -0.27804989449473405 0.21121329648615883
P 6.203574356332969 7.645977084176797 1.465839666988857 0.2456887045552091 0.03272577236779525 0.07569430550952126
P 1.9396627499525323 3.38235678952782 5.966753394592631 0.007849063730773579 -0.7970784896635176 1.6628547989140652
P 6.974858579336791 3.988039396688876 5.763430550922584 1.3826683176923025 1.096639261646834 0.8983606709444723
P 2.053556533461347 8.580377669814377 10.375412338240022 2.3021212905307 -1.3572725033270174 -1.1613945516463482
