# total energy = -340858.32048963744 ev
CRYSTAL
PRIMVEC
9.37052682817555 0.00000000000000 0.00000000000000
0.00000000000000 9.37052682817555 0.00000000000000
0.00000000000000 0.00000000000000 13.71471320039825
PRIMCOORD
 96 1
Ni 7.978178792282972 4.2372303109963925 9.74921300466297 -0.1575397182221029 -1.3714151133759866 1.3895056523291103
Ni 8.36959505882896 8.80162318765285 13.475199566129723 0.08659963956811538 -0.6956160740509569 1.1486346808775185
Ni 5.805453530941731 2.8437205594801047 5.459470262608577 -0.8321293106200637 0.12963630694361547 0.7973749378580138
Ni 7.070483992265972 6.185334679244964 0.14505481469213632 -1.099201108836739 0.3463849314257067 0.034007724404012396
Ni 7.835793640618749 3.7794519750798212 0.48061993155307775 0.054930333489292486 -0.35544807006923945 -0.19338732404833145
Ni 4.856706453896698 9.052818894178868 6.309522268254899 -1.8956206247600191 -1.7659251824436943 2.097174286669227
Ni 5.993070214496919 7.329372901129359 7.377815712485629 0.5956803794955676 -0.7424145224617343 -0.6169670567884857
Ni 4.143562527117776 5.260360628180328 3.1248016864867223 -0.4909194956373933 1.1980497409755368 -0.6783032938041221
Ni 3.403394001628777 5.154829757628009 8.389042649731488 -1.2136653360256067 -2.266873265961683 0.4654195515940759
Ni 0.018119787283521472 5.94362194563663 13.127147285523618 0.9263931516016563 1.105910659646431 1.0089214493138752
Ni 9.414286957716046 6.8537530825692405 6.703984892998059 0.284000198540898 0.2832028994505832 0.758675464405287
Ni 8.370972526238939 7.458217641858749 1.9218153558764774 -0.5920142434978901 -0.8524397400426416 -1.3514648955063047
Ni 7.5226306416968445 5.327472339678792 7.676714895819297 0.48170337635576393 -0.1780370668445063 -0.14616592916752247
Ni 3.131723694485035 0.6749271710995954 8.33159195115608 0.15064299110226959 -0.8367495830008943 -0.937429869031792
Ni 1.263128244424744 3.5136663586399375 3.5273417051577898 0.18445274056286298 0.5918250103052194 -0.02337749838367587
Ni 6.282272776906458 0.6541883216317929 11.192083879142182 -1.0322660375770867 0.4944311083350775 1.66847497331432
Ni 4.454448488076245 1.0735906029168634 0.3626974766269012 -1.395052036068636 1.1186579320097703 0.9204143083104018
Ni 3.401829123686827 2.535627015447989 10.009984452319996 -1.948931420368018 -0.009144128393113283 -0.1772060863027787
Ni 8.40153918400325 7.749256827481592 9.41225636460215 0.7327091222485124 1.3212341216462213 -1.8529539391294283
Ni 1.8371667038489181 5.624714813909844 1.103736524036901 2.337084436869446 -0.26156732345867856 0.2889493150160572
Ni 5.56334723521626 8.725206543242074 13.360160422237906 0.696066274214498 0.045429335977392724 -0.6980614502676559
Ni 6.497157692863284 5.431054140698623 3.6732389301911312 0.18874262618746848 0.847857777098914 -0.3918366360006026
Ni 5.461039825813826 3.31229374203815 10.119730185736321 2.027951190706346 -0.1744686327669576 -0.3529301887433922
Ni 1.5867206394507807 4.650892207687221 10.214964721662206 0.08827034240231896 -0.41310068758570145 0.3674538362808639
P 7.830883484681134 3.900865888216599 5.720790823124275 -0.08850714100347337 -0.10115131213004515 0.20383654440611343
P 4.712334750593593 5.72907436863735 13.679150951651417 0.5613476676519688 -1.5165759983177622 -1.4010966996008192
P 9.256206173999333 5.707859496418344 8.989404792476172 1.1632292908622417 0.11413666864611956 -3.219675503684487
P 5.263715276702591 0.785585593806614 9.311535385352842 -0.5629265821033145 1.4173309020714946 -1.2514842066455931
P 8.649370871480405 7.214640173457312 4.651948266034872 -1.5858811124714882 4.586593243410753 2.6715844439321086
P 0.17099524347476677 1.6282695543885344 3.528575803510812 0.6853614862024843 0.4306587510741229 1.923069207889275
P 5.928900848350385 3.7704094169122673 2.4879179163243808 -0.13726348447157005 -0.30147392984562915 0.6644262787117139
P 6.774450315966126 8.748220556567993 1.2566485252818804 0.03080541541663082 -0.08768515932281028 2.804862204283053
Ni 4.027602260461325 7.027866837295989 9.104704437007427 1.9287055802394462 2.852518886929068 0.19842411514129052
Ni 0.7580540496075581 4.319972060861157 5.993699913884339 -0.35101086023349226 -0.1825120718967244 0.6563229328782891
Ni 7.6586813173804815 2.6527679684558505 11.595295764570361 -0.3780439530918844 0.20304335908085677 0.5911495815047497
Ni 9.184587239206989 0.7948530446125316 5.810101312134589 0.25078000303518744 -0.8908347948810722 -2.3169061621493583
Ni 4.02107100342217 5.253192175332474 10.796276583832135 -0.8813816198879724 -0.7807226740133135 0.1943363182251621
Ni 7.3084859973412994 1.7327134438554268 4.271652940455986 1.083418906301818 -1.2807955540152007 -0.2935744724928944
Ni 2.6365101048074515 6.687145119647893 12.180324914641917 -0.5531563900904279 -0.22939022450550173 -0.5809716125304834
Ni 1.5025451990164456 0.5772712911006569 1.534045161229967 2.025417625651215 -0.44569944745732915 -0.15308091111980085
Ni 0.2835380790807439 1.1934021560052976 12.671064077868717 0.9434938158376847 1.4222445373230281 -0.059336690087104266
Ni 3.790424861726666 7.315335852284804 0.7603432692555719 -0.37535457918517934 1.2592795343202958 -0.5954132418771101
Ni 1.367656468631023 7.758168198276767 0.3230554638519425 -0.33586654839288604 1.7013974350739538 -0.32899424675308503
Ni 4.733886961770145 2.4738752451638675 7.872286219403951 0.27745699810574154 -0.1367862877248354 -0.34161296395836005
Ni 2.8244079041605943 0.5950893474277066 4.180368081491368 -2.867678368278326 -0.812347500007446 -2.475979800517484
Ni 4.977483171224779 7.531279637747261 2.800407174383854 4.02671753231862 0.16957376656850148 -3.4115749303333827
Ni 8.208234590802773 3.554587448295591 3.466146544153619 -0.28802320365736206 1.0226508830848258 -1.089709624406536
Ni 0.295452703650738 3.8152942393190874 12.317430711620544 0.5010501563134919 -0.934730467822758 -0.741266267789904
Ni 3.441607009097464 6.432454206700633 6.446888565872965 2.157796271226658 0.4054801949259662 -0.8039543908477444
Ni -0.07713442674822121 6.385489127388947 10.86789551862448 -0.04984546276721738 -0.46850538960825117 3.2693651576001312
Ni 6.217288174945853 8.156959069255775 9.48822228668354 -1.2363362952605612 1.6259167882371355 0.7994351628211522
Ni 6.02770368080498 5.270396462167323 5.9094363904999785 -0.9529354208665589 0.16701680447460268 0.43560246823264337
Ni 4.912189341886423 0.535511539314437 4.193657362313362 3.2385394304685255 0.18441468823607596 -1.329147205845711
Ni 3.9808245916816083 9.145690183296612 10.657155186582171 -0.8981889212532982 -0.46396405009447184 0.6475788681370719
Ni 5.058688154727388 7.213843678696439 11.889448776181887 -0.2620838580837809 -1.5597383926378494 -1.1200797520579613
Ni 4.412983907877878 2.4571769667653385 12.20549133792751 -0.36667170669920074 0.07512583460056094 -0.8278042008821487
P 2.5195940444379534 5.19983639688061 4.970623008702016 -0.563039710642411 -0.0952917680254746 -2.550593471368317
P 2.40577962837256 2.122555461932866 13.379250996077033 -0.18436943682043733 0.2732748417035939 -0.289944589049791
P 7.899456998328965 9.09981208507035 7.680156690238926 1.4949910730581348 -0.1292889509065257 1.8810072457222184
P 1.714422175935153 3.852467118335341 8.223176832516742 -0.36796831402343727 -1.3769296154363124 -1.2889166404604384
P 7.340486345675181 1.594470064947741 13.515122694702637 0.06690344669076864 0.20118265172303418 -0.1615591237941411
P 2.2421608634361334 7.707314350426701 7.391887432278598 -0.9990862083910084 0.9133820840539689 4.095406610154901
P 4.010772794690418 1.4774415582590614 5.8659196649765395 -0.6859880640428895 2.9978774897039466 1.2324827258424258
P 2.4837892623050815 7.699246327025391 2.346985196282925 -1.4379478069908977 0.44691146548755933 0.8474461434827922
Ni 5.92368146503502 4.464840402073983 12.258457302472879 -1.7219454344286342 0.3396157310226732 -1.6951313995595838
Ni 3.6417239751350525 4.087133215941602 6.2783212258398695 0.5285481046234446 -2.082550623218781 0.33860837280408135
Ni 6.951946830794933 0.3283929158024487 6.042592510517339 -0.9967195079310447 0.15758959762343183 -0.8504448210997999
Ni 3.617632351250306 3.269770292334152 3.832644706368872 0.4124309152121865 -2.2600827254024107 0.6954013869369895
Ni 0.2199290704247991 1.6458674033405192 7.717296772412085 0.4972690920045049 1.8394708170413288 1.2857693530807084
Ni 0.7453410561713717 2.716749924070416 1.0679814056950006 0.5631332987974818 2.4210846911415014 -0.6553597976340713
Ni 5.302115694703248 3.6521158891327903 0.4572788868488715 -0.5430936065377873 -0.7517100888310474 1.5708072488575011
Ni 0.9645457848901067 0.18517097611297917 9.266784561476381 1.0363265807997055 -0.3859459815477805 0.34596789849294607
Ni 6.958215713089331 8.814723183837556 3.6390477527385205 1.1498328149506776 -0.7531954151273222 -0.2795802150963314
Ni 6.050258538327572 1.4883301101665196 2.3402374800793444 -0.3901916441980119 0.3978915839454309 -1.3319628209176353
Ni 1.844606901968128 7.132854217305595 9.56630032546023 -1.0477577054547829 0.3049857996536296 -0.487432051309425
Ni 7.198054341377965 2.3312089777016887 7.937759962852999 0.04296519070761632 0.07161602167508956 -0.5241034385885296
Ni 8.166142185322306 0.9469573064647201 9.831227601663691 -1.274313802945599 -0.8880641741144706 -1.124129753757619
Ni 8.610277034511459 1.2549102925978588 1.724611686558363 -2.8932086513389463 -1.4513013454796682 -0.9708878915799214
Ni 1.9416105933158108 1.936194428941877 5.64036734153998 -1.1758336098898137 1.661040885633778 1.4037017413238342
Ni 6.140730972636099 5.861095717883631 9.963793378505345 0.4960467895616295 -0.3446198691054839 0.12651601614707889
Ni 0.8453367566619558 8.57476273870314 11.394539728618755 -1.2857636966537533 -0.9361751706890845 -0.2718491650006608
Ni 3.634602374920192 7.580606089761771 4.271324034972379 -3.0986369657122115 0.05869185741425376 3.3536760011340694
Ni 3.0318057693652176 3.522577729435112 1.3596137456515296 0.5090771403830264 -0.7626053955873124 0.4647351239325415
Ni 0.2367463545111289 8.813598720645736 3.180113093839694 0.6600623453160631 0.9307892237868228 1.7849215210405387
Ni 1.7666441206685992 8.68659997365625 5.719090072546647 -0.9065329223426195 0.2622568933265354 -0.5113942185519773
Ni 1.2948755885404655 6.872091203122508 4.0736265389025235 2.6924967686047436 -0.25604767919203 0.4869286293104452
Ni 2.7283600065259583 4.246272869163946 12.718407726454984 0.27755212892270914 0.07936918325794719 0.12116812157160424
Ni 8.844802574218743 5.78846476621865 3.4154576175716875 -0.14403679863966162 -4.529607055833695 -1.9894718036842254
P 7.88354584416471 8.578173610384994 11.486003564641404 0.10649175050635208 -0.5118688441955507 -1.9659271835950656
P 5.778625713290224 7.5258166207403345 5.0544892217586 -0.035092472827758917 -0.8401161854802822 -0.15582479241352518
P 7.747438945321482 5.153967669180947 11.998824373797571 2.3358585348821452 -0.13441290239665238 -1.2481782822008114
P 0.30267550555286254 2.1469000900357718 10.51900644999313 1.2102401123941413 1.0866189012963545 0.8995320655447541
P -0.09701306187428133 5.22046092592391 1.4344083519081052 -1.8591225298339853 -1.2041442839090488 0.22343992045933778
P 3.5295868833307904 1.4586161703226728 2.3093381686207874 0.48583488202563435 0.6429858494497507 0.3013068081401456
P 2.598615695243113 8.890661931391808 12.370561597434046 1.0356190132097196 -0.014860976272232469 1.3503824610754034
P 5.432656500746967 4.65358154882099 8.236480169128633 1.1281175347607733 -0.38170623243482005 -0.6997658345532722
