# total energy = -340865.918671156 ev
CRYSTAL
PRIMVEC
9.28658891724716 0.00000000000000 0.00000000000000
0.00000000000000 9.28658891724716 0.00000000000000
0.00000000000000 0.00000000000000 13.59186158318290
PRIMCOORD
 96 1
Ni 7.840657838945125 2.8008631138961038 11.395661632216825 1.8003072594679899 -1.5718757993313315 2.201934913417085
Ni 7.232646281390971 2.404929390223062 6.595831439273797 -0.01611798860778514 1.475626038267962 0.137393325181215
Ni 4.511406381914303 5.542700667861028 1.2153191916591615 -0.026173830181890408 -1.6677725479306569 1.1062857835976625
Ni 8.345114642126626 0.601805330099465 6.005346461212738 0.5742278660487464 -0.3294770999267745 -1.2413453184393783
Ni 0.02402161986689473 3.273634075276915 9.491550559589827 -1.8695969470027478 1.9983547079961521 0.31934438236814683
Ni 6.786193513346371 6.646996830242461 3.717306438563271 1.9738904043062004 0.005147348528894361 -0.9129797064092277
Ni 8.139816018243902 8.534356753561111 11.168283214235238 0.9679478351149912 1.689898947516051 -0.4815424252978674
Ni 0.6844346133907896 9.032526535963283 2.4660806503852437 2.109506582982335 -0.364978635267494 1.0099899997877058
Ni 3.176626366176678 0.07495763208629819 1.8584424137104525 0.13547399667131507 0.15432429660859873 1.754706430909739
Ni 6.313859021650388 7.265994422629621 10.798964854747654 -0.44034512512395135 -0.8662640475202437 0.5176818513329019
Ni 6.3869351907974075 4.6297825323930235 7.067115617749482 -0.9031141264690575 -1.194605491180678 0.338701703848836
Ni 3.6580431419526946 6.797606731275166 8.242322316714066 0.7869172328597995 -0.17279818704307015 0.11225616379395505
Ni 5.983600055660371 6.509360294097084 8.23124527330848 -0.14164952935440767 0.024246274141874368 -1.274413818858573
Ni 4.580396451884211 3.0734059290094247 2.2974324788033997 -1.2485611194615271 1.004278294114909 1.6916619529537444
Ni 3.7512433495469875 4.4443757822316 4.524675988991972 0.6728983207384669 -0.17512220719055646 -0.07523767758807687
Ni 6.776479741211693 5.409883871426834 0.2988229334344733 1.796726484095267 0.3168378138962092 3.021787206442009
Ni 5.244155403438818 3.4618360887390436 0.24920283088188042 0.3147012271691806 -0.6829783306822883 -2.095574289171959
Ni 0.26030494807787247 8.269846837966428 0.3513683115343162 0.1280306530193924 1.6490335767602569 1.5897290254626686
Ni 4.069531902265876 6.742602264397825 3.0274243120422684 1.6531748526221401 0.8319668169002704 3.42003077441022
Ni 1.3166061609885185 6.986328793723473 8.04189729475895 1.2228125497425133 1.2144829468308955 -0.9143773580877026
Ni 5.447745294938385 8.275260919376102 4.440461484951708 -1.5705655651603403 1.4935903360558664 0.1467572828946182
Ni 1.2236102583530817 6.333119407317045 0.17196719850434272 0.6695245191702276 -1.7228800304277618 1.7146280748316147
Ni 4.687229372187592 2.242014758713829 6.168666916662971 -0.438844886429341 0.06231325621692495 0.3270258101728045
Ni 2.9874028279202713 1.395356436038299 11.574421970603115 -0.88352026349753 -0.2315486656094012 0.622941786314682
P 5.791813418829231 1.769206650976862 8.017921179178346 0.1514660012241972 -0.1763905323800188 0.8811779885175987
P 0.3051712457014579 4.720846824508371 1.6503782436119472 0.7868794376433287 -0.3687144481608424 0.019187371561728245
P 2.168975735922965 2.9529774423531094 4.859539245827469 -0.8734893616240893 -0.19825082278821984 0.05599194198458744
P 2.4253598861086187 7.037033569875808 9.958974303002046 -0.3334671949227741 1.3063242944139244 0.8163969874864715
P 9.23270824928558 5.507875958965193 8.074014034291045 -1.9186304553916314 -2.518738274530933 0.3806708491917702
P 8.294038402412736 4.6286031355850845 12.450376695719628 3.5653438686591437 1.1915145109601801 0.4615173883261923
P 7.280323629516628 7.725959177725804 5.7585460709152185 -0.5964985045214889 -0.2587406526431608 0.14565942184474914
P 5.65797509760076 4.982552190213308 3.242624297158256 -2.8421267450614662 -0.012565238259520294 -2.319653128766876
Ni 3.981857215149723 2.964966428802315 8.54535300364206 0.6805643219241568 0.467911207667678 -0.5921412559940575
Ni 6.51599091867085 2.063377931961756 1.7575909854070193 1.7971887684436663 -0.9285960727902458 -0.2516930017677601
Ni 0.4775024784961251 6.308519232953027 10.265701981026423 -1.6340540726322887 -0.3264845929573538 -0.03821224940366322
Ni 2.4294459852857297 5.268987742528807 2.426894959276747 -2.1570262258298527 -0.47664215978277275 0.850317037272684
Ni 2.644857704631804 8.437414050584145 3.9376576946191295 -1.0645788907771796 0.2671602441654237 0.36232885634947276
Ni 5.260388361078796 7.028722072686002 13.290707136624059 0.6775669298587299 2.0060507910888288 -0.4729212592877598
Ni 6.420088313666241 4.687108646530087 11.884927433048512 -4.237318649142077 -0.39925915371691884 -3.1847414108114633
Ni 4.076840447839482 8.825082710012577 9.992614043136518 -0.32600276822492885 -0.7247988662625001 1.4374145601952473
Ni 5.3631909017393 4.91465793774999 9.617248256866809 -2.5968375899375213 -1.1592294256742293 0.13175155351440535
Ni 3.720690471609042 1.689657729269737 3.9810567111745705 -0.42696561849325176 -1.1996286554268822 0.20557512436377498
Ni 4.981790689912119 0.6542095520459168 0.4252626291756616 0.43323088267667326 0.4583952977574428 -0.6736485686409301
Ni 7.3912705087642365 9.02662955192359 0.21607942509797037 -0.87641810523511 0.6888643571494201 -0.7563452736102135
Ni 2.7969720330888093 9.224805362013484 8.236627780315418 -0.9385169314483837 0.26870959093041463 -0.9868374729306423
Ni 6.41750664191343 3.876603014982953 4.706739567099395 0.9669510184193605 -1.4816038531179516 1.78819093582043
Ni 0.6926160983340509 8.905764595582445 9.573509351152543 1.0553152060870665 -0.5817876806738754 1.2866620400983066
Ni 4.15176464820524 6.418026690899609 11.056367743750872 0.5380398461639637 0.7319534750294103 0.013075345126719417
Ni 1.1133784464614669 2.499745464310121 2.164109563266587 0.7676987509498198 0.26895230306884005 0.22548034792813423
Ni 0.90089850327497 0.9933121367776682 13.0669170566471 0.8323627667871085 0.6515666491402262 0.060320651266928364
Ni 1.3336284786968025 8.089361979995617 11.92824472762041 -0.09032645360039927 -0.4515641337682223 -1.8526904010553962
Ni 7.49040484675438 5.1431080281066635 9.848228014077677 3.1858351580962747 1.595156367125827 -0.7855581477287438
Ni 0.8947934996408042 3.4434022094968486 12.20319462661261 0.7370239475737823 0.3648251404087652 -0.7417552916111806
Ni 0.10083749841987466 4.200714259029225 4.116349312246532 1.730824224975503 0.23661091062365702 -0.46787829754721355
Ni 1.8326990602357476 4.780810329932479 6.0830919273285105 0.1526044857040146 1.1401631530713978 -0.7006585215708707
Ni 5.961070790652026 0.9850749323001735 10.682605751408179 1.0098136221108416 -2.2550839866362384 0.3898188342396254
P 2.9199543317308194 3.5969652458439203 10.43591308554351 -0.6579339861191508 0.7392651781994752 0.9065421783140001
P 8.906748974020568 1.0948609879179219 1.3033272673218108 -1.0236870376588239 -1.1791140804132982 0.30306544270246516
P 2.898595176941374 7.20448005683602 1.4121948792836128 -0.44475559548682114 0.4348573625365027 -1.3253509720280723
P 3.6926078263554407 0.11876804453616195 5.817575345482013 0.13404472042395624 0.9052568838436732 0.23818339731709948
P 1.2922567245285508 6.422196369378069 4.35712920687014 1.7544560054618301 -1.0806696256914547 0.4152822686180525
P 2.8112919533867764 1.7399631820934 0.6044464360221251 0.15689642821114913 0.49619719909656484 -0.8221814553787324
P 4.333986098326324 5.076430318807439 12.742818813825481 -1.1302145264991181 -0.38060142940641545 -0.7223995127923881
P 6.331262089509267 1.9567586032062687 12.7425606466502 0.025810276194884584 -0.47411142294111897 0.11351137635729483
Ni 2.177361525825082 1.9398291513883734 6.9220089493812225 2.297751700708094 -1.0278080018057332 -1.1072232078102673
Ni 2.670163659762777 3.9038684404011312 0.522197902881395 -0.19714859086297662 -0.21195788796166723 -1.1999528715355205
Ni 9.160941489193043 7.894315750411827 4.719502126415541 -0.26983342012221273 1.3248048697166153 0.653577766032984
Ni 6.161726120015305 1.10833582861335 4.6552537888088885 1.2083693777339897 1.8195699643523435 -0.7009701392740185
Ni 8.506599138923871 6.908665049591243 12.624025695498915 -1.5267053734422804 -2.9057582058691827 -0.5346583312862405
Ni 7.722160962808899 8.944963287915597 2.768798379262627 -1.052857231464877 0.16181494855868905 0.36036324798266967
Ni 1.5180601370091422 8.829660998408748 6.2884648439235455 -1.3259289560187293 0.6788936190899534 -0.5049538622432723
Ni 3.186953053187923 7.356492232813596 5.903325851349309 0.5163878151118269 -2.3440950638593243 0.8120880756984724
Ni 1.825780551401775 2.0999299464188237 9.336861059992337 1.405766851382979 -1.8708948398785652 -0.271697469914145
Ni 5.089236525092067 8.928358866714063 7.902308717597599 0.7602896029699422 0.48031369509708893 -1.0854806739268532
Ni 0.4285259365639273 3.152007618634583 7.109454105836681 -2.733683270145382 0.9376193593347788 0.056009168375768054
Ni 8.677138060034032 8.205360763680382 7.548321587954316 -1.5446313617930816 -1.2095739395650524 0.2010060169358538
Ni 3.153084862963094 8.573889763099663 13.261538889111812 -0.41210027134564514 -0.22318898079079624 -0.5998648498905603
Ni 4.809803060911891 2.7787703185725863 10.925206746142312 -0.03313637754265261 2.110370987865159 0.8919555387490767
Ni 5.277392105609002 6.256198590307925 5.482644296546531 0.2270286662518606 -1.6260234890183287 1.4203272656956571
Ni 8.0554009238804 0.9749061173025898 9.458468014797687 0.028577040306744333 0.11544021794889149 -0.89829639336544
Ni 2.026398734408899 4.594911390551995 8.51266421022517 0.4485554288488856 0.08185184047048484 0.6636076394651603
Ni 0.8799711748758331 1.0132411568551245 4.403137754945509 0.2624551253802706 1.5856103753086046 0.07674357270964201
Ni 6.838439863279162 3.036296719210023 9.570383485282052 -2.2147027546057148 -0.7825085622691426 -3.6414909454353666
Ni 8.396636638114384 5.368642129505128 5.984442349286198 0.016397724631733047 0.758889637298622 0.6688658025403061
Ni 2.09034618653069 5.626892884087598 11.817539299687812 0.7747250616689819 -1.4231325963549362 -0.3289384538144851
Ni 8.63552485455077 2.933020562508536 0.39621882195653557 -0.8478289807435075 1.4110849211617829 -0.26116648847583407
Ni 9.006960556339221 6.710674971282125 2.7786523788917927 0.2564911944873518 -1.342695633954107 -1.8278630575990713
Ni 7.630000853186962 4.118397933788511 2.443055481522222 -0.3740600287434719 0.5809235329013672 0.34554598046417906
P 0.5413180610535641 1.5072876937240307 11.032174321986757 -0.4719954050393807 -0.7352110627347597 -0.8270377550297692
P 6.826627322021696 7.345311179610774 1.456870801831901 0.3646431063049462 -1.0969699055133753 -0.19531925096372166
P 8.14852683876238 2.485007647505404 4.291861201787019 -0.6890757018292778 -1.1994345371382051 0.8097637984406699
P 4.014963905073363 4.913970730161112 7.208321918721407 0.23884262816765317 -0.26443076104940266 -0.8983529576349882
P 4.916570975092 8.652844343108297 11.959628755277336 0.10867461709028382 0.8760596934544267 -0.2606047024350931
P 5.603239941805547 0.29694704244861764 2.574271270006111 -1.5118289705510801 0.5998352822042057 0.6767367206479507
P 6.8523140273032626 8.12184646845365 8.967625351147198 1.974663277916483 3.1179418366884106 0.9309167505036225
P 0.43732033638375534 0.8260040199941362 7.850292675072973 0.07717834625421548 1.095699523441384 -1.2544774849459621
