# total energy = -340871.2531172422 ev
CRYSTAL
PRIMVEC
9.23234016191344 0.00000000000000 0.00000000000000

0.00000000000000 9.23234016191344 0.00000000000000

0.00000000000000 0.00000000000000 13.51246304620456

PRIMCOORD
 96 1
Ni 4.903932756697435 3.3572019225174503 3.3920872420945662 -0.8380482472076599 0.28974018634846876 -0.22171033936274073
Ni 3.7037008716120163 0.6997652033418404 2.4841715496504833 1.3972498150509034 -0.4785000389271178 0.9588960093253679
Ni 6.2184056158068906 6.701626286601956 5.430820548790292 -0.7944392522684576 0.16143802483524455 -0.16845893623776795
Ni 7.399203425385553 1.6885026458102672 0.4046525349423119 -2.5929089443070765 -0.16706771231719614 2.111136148165958
Ni 5.220897450425676 8.13325753914644 12.080073617561023 -1.5341857409797255 0.5572097342241952 -1.1210156336086692
Ni 3.690230887685956 6.566003213350532 11.08517820437383 -0.9371262217484442 -0.42565589854289276 0.28602082851535254
Ni 6.2636348490171505 4.046442258363946 10.068703119885216 -0.1504082493836442 -1.3197092003612627 0.8334110055459646
Ni 8.184672440095193 4.505224925422011 8.905699722245613 1.3768594243200094 0.4865074826126266 -1.129480219436255
Ni 9.076193343330297 2.2280590547251538 12.740238545334634 1.6353367959994547 -0.26687947970021136 0.09060156163865686
Ni 5.707801824844112 4.4110088966588545 5.710325946575013 -1.2842446889060657 0.876768032375361 1.3271430309314884
Ni 1.635195115180334 5.75109226667365 0.817085162725262 0.44406422584675137 -1.0286204704046995 1.1042787804699628
Ni 0.30739168047743143 7.948398397164598 0.11688234647177301 1.1686203799708261 0.41667914896557917 0.13034695985739486
Ni 1.0463287788157638 6.217916301791757 11.160416235221696 0.7294373934757761 0.43100919243500607 -0.13055547632377518
Ni 0.3854852740589028 3.4630599319048447 1.5991455975407949 -0.17818773348975764 1.7606482503154708 -1.9113403494881211
Ni 0.5249120713525036 0.3892723798892455 11.330875696648722 0.2497770156919698 -0.011472005195341533 -0.7720593419113606
Ni 5.193911320874014 1.6146531588845943 5.171273623419114 -1.6948406077920422 0.43547365596426296 1.039708609898061
Ni 8.765017326724497 8.845440239664805 8.127962792209088 0.789987387144691 -0.4013952262233152 -0.16711527772567994
Ni 1.907853809689135 2.130094695959269 2.670494940741765 -1.0613855806508623 -0.5429825348812197 -0.828976881034011
Ni 4.092437775786586 4.12699442406297 9.476924903513599 -0.3303235070874698 -0.3042656336581534 -2.1609175904644586
Ni 3.8779889843989714 5.792037694166507 4.1079102542387345 1.3051670408810296 0.5439618680753535 0.1381327744504008
Ni 2.7702282158340608 8.97107392113556 11.616515984302438 0.7317377594741785 0.01898219752945763 -0.2625057761125479
Ni 2.6066588496805227 4.070926423800486 11.109771311421285 -0.9754073767168299 0.19228020702708176 -0.7629776913250667
Ni 2.8728549062535853 2.446080761657241 7.850713778297931 -0.30085018021870125 1.0934698627799169 -0.4429254842566178
Ni 5.393948429664933 8.915966084223529 1.0318801668594344 -0.7031275519366535 1.1609070704869684 1.4808932002041721
P 5.557896321754706 1.8285664745575336 1.76317381098777 -0.7229546139649098 -0.807726713405983 -0.5138375378861473
P 3.2236191963857386 2.0973383539649837 4.262871386661869 0.4126456023261538 -1.7203423516075727 -0.48433181511754647
P 9.099163405021894 0.062309062040425904 4.070724235556496 -1.3099423507824859 -0.282184742598714 -0.08573703445750394
P 0.5679772440882824 5.760897011656156 2.8113352092753106 2.792721198045145 1.0727845665164233 -0.7744507249616727
P 5.891054539681927 8.771701540818032 5.6620324997492215 0.028078246293454873 -0.03466952635772739 -1.167430730538099
P 6.413992736762058 5.211268119901426 3.8432283014106168 0.35613146928950923 -0.19586303928233365 -1.4072416361562925
P 3.9788061361964897 7.636123732109721 2.373099114682939 -0.7230338039422775 0.42163160787484805 0.30102218702019123
P 2.8701682953403003 6.1080606892241125 6.140225238230283 1.1887875989473204 0.5692183286492971 -0.4808687962696105
Ni 5.887546250516811 5.745423609970016 11.804582441168389 -0.03800270449601842 -0.038861195841571786 1.6880981468618863
Ni 4.72011686912522 1.5281553662846905 12.871660903927827 -0.04927184965193449 -0.38918814263416196 -0.12114189631935912
Ni 1.8743773451820105 8.897252131229612 4.640720592382701 -0.48716157125685783 1.511958554150409 0.6190391088261661
Ni 7.715789593177559 0.023604323443288916 12.272937198243273 -0.4232976827233614 -1.76232589512821 1.2959750899691165
Ni 8.539572818506217 4.397298871895181 3.5999229084059388 -0.5185205451841134 -0.40202591782877856 1.7115728329450588
Ni 1.6087906230428888 7.760880341289196 6.782770245289096 0.04528946796541878 0.9491337877322814 1.0705055406742594
Ni 6.227517935296282 5.824129307687402 1.1018077557921049 1.0246110921349905 0.3250645726813757 0.7247777832165776
Ni 4.215597190161943 5.788252434804146 0.24955661035651808 -2.91913719827925 0.9571540869335968 -0.34448231508635513
Ni 2.9828951656193934 2.9923029199858466 0.5432198013904596 -0.993768395722521 0.1243971700318632 0.026416542320315796
Ni 8.490502931894147 5.7969862283573015 1.1479149845276349 0.1306475218169492 -0.08286434089539922 -0.5959757992487994
Ni 6.760519382876349 7.461937175061757 7.964840271307107 0.43133649386743783 -0.26725666053397196 -1.0120887912982635
Ni 8.100104206536102 4.416335956785884 11.326497721064255 -0.35236274627569636 1.0677580598361094 2.057941309310533
Ni 3.580402972138037 3.6120237363236134 5.58059310618502 -0.4477270194103192 0.6056009810433892 1.0009849680756182
Ni 0.13784068129737248 2.837688923543261 10.519371483397965 0.970325334208232 -0.703522216271911 -2.01140357076031
Ni 5.23911285706455 1.691060003964838 9.140545522192408 0.9180314099005222 1.1830298705279367 -0.4057074804454239
Ni 7.871723814227017 5.3549971875922475 6.264958766559986 0.5044226723301506 -0.5467731122719035 -0.02009214276418475
Ni 0.982071693054708 6.554555111864367 4.9357104706614505 0.8477091673361917 -1.141945956003433 -0.7295623490894145
Ni 2.4412707125650703 9.202648703052882 0.4811027720201242 1.5327778048886054 0.4581369018897336 -0.2772770208844515
Ni 2.8165099357938557 6.203864680451479 8.876323339891718 0.09353236213220666 -0.928710229770607 -0.9736957933423618
Ni 7.970075931269046 8.91380571668501 1.8814345458078368 0.08753706378072021 -0.23087272258829913 -0.13401489562728533
Ni 8.376834362944418 7.086891830971043 3.6021386699839066 -1.2141924121736702 0.287599228746066 -1.39831862263505
Ni 8.737329539339811 1.96852874756581 2.9706881657927746 -0.6386304006945324 -2.165754092621154 1.1969073998409774
Ni 5.992453328893662 7.3482870707918435 3.157078952965386 -0.32474627011000845 -0.23322528198087578 -0.7471152703715133
Ni 8.676359166586074 1.0022628204339363 6.198815513755686 0.374817989955419 0.08599543032521319 -1.516081318069531
P 2.499074392730296 7.148296123700466 13.092779137665124 0.2152980080784937 1.3130068486404227 -2.2085159090687125
P 5.2124221623899505 6.7360167527599915 9.468588100576495 -2.216936786142556 0.42673061966431025 -0.9296186005174893
P 9.096458329428792 6.464475171380083 7.508875314389024 0.02304891139966353 1.5563051985865841 0.9764533014828409
P 4.89411877937502 2.954284144243889 7.304918154073085 0.5033682629237073 0.565097107392072 -0.021214686404402175
P 2.040522534169935 2.1914620593290586 12.117531067036564 -0.15830744962606286 -0.9793596764963585 0.09510587726691362
P 7.654126794930707 3.9428554045939683 0.025981650969649814 0.23244880882616742 0.46365371794290466 -0.0015935697393649976
P 8.852456817995035 7.782133187757867 10.480211590443353 1.289070135319167 0.7902157011054133 -0.09779936493867673
P 4.813418896237465 0.5806763276320083 10.884045216835808 0.27057364072234696 1.1130912365552703 1.0686720870099466
Ni 1.3794685320631674 2.3575149249179015 5.3353147621419605 0.10411707962658844 -1.1204253083228382 -0.22594571760032697
Ni 1.3722857716145898 8.162819491532488 2.422662931480098 -0.07906836418807672 -0.8061994781281794 0.3634897094267934
Ni 4.54298519564654 7.4995774248674785 6.921488922111738 -1.4103411010172227 -1.8286827252868894 1.4720938567449873
Ni 6.42821977256059 0.5155320140057749 3.675349278987932 1.1900440970622408 -0.3218866891740263 -1.211280637843514
Ni 1.5363444517832618 4.487701944276252 6.438323645356123 -0.9760234130342739 0.39831324486388175 1.3417132154361795
Ni 6.544981175379566 0.5583543762019679 7.277623664368489 1.0345900577245732 0.4644754425132517 1.5482771860757851
Ni 7.224213654765575 9.090466540828372 9.900202760986708 -1.3495663929320112 0.6751626912926114 -0.05873145240293756
Ni 2.0845607955320378 4.417702343092298 3.7497083910765374 -1.481850421911119 -0.7205506325091076 -0.14492048679619557
Ni 1.0373364797451792 4.250643152453461 12.566171085471485 -1.4626705065485586 0.2732900112122455 1.7171526410256812
Ni 5.811684113491152 5.14722337795826 8.066710833088152 0.029819397354277678 0.05450301614388678 -0.9094426397902466
Ni 3.9289884300518554 8.899698701305283 9.239605759705396 0.2328424447201603 -1.6436252612604918 -0.4171635448011654
Ni 8.234924066215513 7.854607056037219 5.717487472641802 0.4091321898562567 1.0587314308574671 1.6608652792878622
Ni 5.259627116340565 3.721519287634838 0.3468756285628203 1.2722641195054216 -0.9425677044789895 -0.2257659974893531
Ni 1.7041606942945704 8.246833784697087 9.117749951725077 -1.056987965803799 0.5853360601467661 1.7938365641419813
Ni 2.2159185277458744 1.6460154175527417 9.90528331763819 0.36125902032406176 -0.28390301084140135 0.5453960294187188
Ni 8.213071117652808 6.6718427580581094 12.352228226310839 -1.091309107683172 -0.7790594273782777 -0.3766658417974352
Ni 6.878822586459993 1.9641987801488652 11.443947856440381 -0.5841399829561359 0.8838614488870327 -1.1985354223627036
Ni 6.923645596714293 3.3926818047846545 2.218583904277371 0.608119633700185 1.1906336510171238 -0.6644159942990687
Ni 3.990641995958799 8.175070806590666 4.6921751923930595 0.8424597460117943 0.022890788555244446 -0.8732435641618702
Ni 7.225801617229784 2.8464042524166 7.093232602019993 -0.9215448223704193 0.6755954079546558 1.1310082260450072
Ni 0.33085105618416166 2.565094855413817 7.741154523841341 0.5046784970946986 0.08500889804222779 1.1783836300051769
Ni 7.1465696761376325 6.500592085100952 10.112483798963877 1.8577210215007682 -0.5364143947453988 -0.2854366738771084
Ni 4.200825446308827 0.5536661939965852 7.006738502356053 -1.612701575098442 0.5205527451227938 0.40832820589772256
Ni 6.963640093196605 2.9524007469026166 4.748617102421825 2.196650525089694 -1.2287019186437549 -1.8507875276057284
P 7.61097483819979 1.9946839665257339 9.146734882866864 0.45022253213866337 0.47362214200952624 0.44173506349294245
P 1.698021188255619 0.6668814550568221 7.59676072767713 -0.4138324235454034 -0.666910221475832 0.16814886119651687
P 4.612809382372238 4.033784720349807 11.683767117895723 1.1086080039729358 -0.4993470575794562 0.7414552438722586
P 1.5220343249255555 4.154082109353622 8.987571189317517 0.49642217062317723 -0.3080487548496694 -0.08889614891177594
P 0.6113793972307103 0.7104414812116803 1.1692703099692867 -1.4655773957827083 1.3448065096495228 0.18864878092208154
P 6.552320885606583 7.676893745144322 13.471911638633197 3.8071869742160174 -2.39853174554165 0.755784258900421
P 8.84460932907307 3.517770778200824 5.752309089073551 0.041871700533121434 -0.9368444288419673 -0.28130259710407685
P 3.4826140278304076 4.673022703253503 2.097417752088194 0.16963418749279172 -0.09770294857012851 -1.4381866624745814
