# total energy = -340876.5682514093 ev
CRYSTAL
PRIMVEC
9.16987217241071 0.00000000000000 0.00000000000000
0.00000000000000 9.16987217241071 0.00000000000000
0.00000000000000 0.00000000000000 13.42103482920785
PRIMCOORD
 96 1
Ni 7.462689522916623 3.4963988827747485 4.5949596503628065 -0.6141324155531681 -0.26584898155316794 0.0842257400193001
Ni 1.9606103593205968 3.288875506684835 5.80477205754857 -0.603551040492896 0.5843029908965615 0.4929115863667575
Ni 5.270961706525187 5.868424724913164 8.155801643479435 -0.882910140717357 -1.523135653813151 -2.980792509197202
Ni 5.827664643311835 5.886067558884133 12.145458951773504 2.041080271889136 -0.3151344580518573 -0.5779045435693853
Ni 6.532827809823009 7.075977675607011 6.383755032640448 0.8028884114770753 0.7948668267241794 0.3801512292428743
Ni 2.7114578287649125 7.813538000340342 1.9396480316399134 0.5045170318161698 0.21043142401481177 0.044316048308555935
Ni 1.6974900485290285 5.440558491500792 2.1517545098185433 -0.10978147700121738 0.5789121588982933 -1.1685075085420458
Ni 1.5425833986997275 4.229475140038327 13.002016707089613 -0.14284817764819915 0.8830145275057051 2.123917873311658
Ni 6.495387221931394 9.111634268409109 0.08656359287211278 1.7961194466388872 -2.154245577760922 1.8714481412788737
Ni 5.283047597987627 4.146735383842874 3.4714449097574938 -0.32938916819865854 -1.4514818369215907 0.35348040481990733
Ni 5.814606745404008 3.554159907298206 8.38045617467567 1.37247415076812 0.6879894107436344 0.09548305810067427
Ni 1.1486273524103516 7.060682328900371 10.748517881093894 1.8425114036398655 -2.131360702742948 0.18163018351240334
Ni 7.341858117908591 0.39581386238216093 2.377214155787467 0.05139943751789858 2.5258769424582437 1.2311506372945635
Ni 8.115162604190173 5.9333749291836275 8.099473869969316 -0.1486799538386278 1.0973594276423102 -0.8440949676223722
Ni 1.3876217296376687 1.268670148415524 1.7401978109699796 0.4766511586438372 -1.0165116029563075 -1.0039113976937937
Ni 4.32854643849069 4.930209258312506 10.34889301985605 -0.34972042355684285 -0.20186425117109105 -0.5560488811468747
Ni 5.78142097817899 4.248667682398637 1.165027668708209 -0.12594908790001536 0.33320288551779387 -1.684900208749879
Ni 1.3416439907964852 6.722598313476438 8.081059849752526 -0.3237610233786037 1.365757400869577 -0.40675931874870597
Ni 7.06835751187007 7.305233648636216 2.1415007588069335 0.4898357756549112 -0.919382781722094 0.08036728550515836
Ni 8.721777154960181 5.402833637573265 12.115342340749153 -0.9044919806531906 2.3284301036285577 0.6167505699023055
Ni 6.043569282525172 2.3789490955937596 6.008744859151186 -1.0753608118840319 1.4576272876976963 1.5243067913031167
Ni 1.6490639538301273 7.1354809758344615 4.802690265562775 0.15704735196671663 -0.2556740979026952 -0.8713931412166928
Ni 4.975343368918071 7.231993879963592 0.3841149395234489 0.11593027021143261 -0.556385438550687 1.8434850804070444
Ni 8.922936639794456 2.061414763604827 10.005207129550172 0.36780504897269556 -0.5654622040409745 -0.619964448853913
P 6.139302747523568 8.412193102104737 4.076357532260864 1.1373038292457318 -0.06162085813559065 0.5312583044657561
P 0.4388416533603193 8.925696771304466 10.930090519066427 -0.563831610416087 2.566201095998587 -1.427660823242593
P -0.020444229905548245 6.5452529865541225 3.3038022245319985 0.47770094006459024 -0.5177070481438827 -0.8738542011626756
P 1.0878311002130943 3.3526061179625026 1.695949510011813 -0.3443375619783747 0.6325715960949622 0.5235359961208339
P 8.927127271356165 2.4623674223265573 5.814703946048548 1.1653571358385222 0.5826202038774999 0.5157699790221698
P 7.392072337672117 6.187692162733963 0.3403792344171415 -0.3675101434400961 -1.0088533150801013 -0.2174677620363029
P 8.716596177208832 8.14065484870124 7.337293355564126 -0.1285322752461593 -0.8212985385531468 -0.13626872465846854
P 4.19194285342545 5.6741976634063604 2.2197050962487266 -0.4454644486283877 0.9815003769884452 -0.18800883334523752
Ni 5.112799752091055 8.82095849187806 2.165564337240726 -1.1107263358675192 -0.4429794774230048 -0.4167591102738952
Ni 5.630925036842431 6.881099553179243 9.923499900956138 1.965946981089408 2.3457665380244763 2.8669535742971592
Ni 2.6000897317912033 0.5895200751521911 10.985129925542802 -1.0720697998375859 -0.7667687829363827 1.3772772285837185
Ni 6.637217634108615 8.582945290968254 8.285610353299099 0.5294863001669977 0.14274404797016707 0.9228653409540558
Ni 7.309791075082979 2.266315556266624 13.274369245137922 -1.8092323298717616 -2.6699643918301823 -0.8216523223481398
Ni 9.028060053850165 2.1805497422694975 3.537731164396757 0.7146535502983821 -0.491590810672805 -0.9293882296742381
Ni 8.115731136262003 3.356246557196637 7.784790451224445 0.5538750134240074 1.3739000845813691 -0.2717121252021643
Ni 8.018108677605593 5.238408660476881 5.720729262523973 1.0758986866653728 1.4481936530886221 0.7572914395735667
Ni 5.066785333761366 1.3918765503042643 7.978617706306542 -1.06418834020698 -0.34019577189585926 0.03699020407110404
Ni 3.0256543272998777 2.4189480778086065 12.633246631582285 1.2140011220984708 -1.1268710639481818 1.6014694538280485
Ni 5.2451851959782045 -0.012872666490876261 5.99873319276371 0.13440673174906528 -1.3297506437576647 0.4988642044057667
Ni 5.986899472784742 6.218044439471961 4.133115372773706 1.543164290329252 -0.05638300677541902 -0.13290546461319047
Ni 8.55594001755635 7.802057320438236 12.45361984047495 -0.12551919945144835 1.0893288440283497 2.024782306060061
Ni 7.056537546699291 3.445185146949457 11.155939884600718 -0.6030964694539807 0.6277440927993317 -0.6554258749853163
Ni 3.3269763253695412 1.3468341384199616 6.169784319458546 -0.32376385159208115 0.7384426822981798 -0.11037591605210668
Ni 8.247575557693702 3.9192308563897895 0.6179934450915129 2.685289709333343 2.3586462222006217 0.5086552223542594
Ni 2.7252768260592206 8.328536358696656 6.567167146961514 1.0318076098834295 -1.3831529706382049 0.16523194466003802
Ni 8.439583510145944 7.610131896835131 4.98312308843001 -1.342457549801372 -0.00176994741622921 1.265096655222705
Ni 1.458550690534469 -0.17348664473157585 8.528463412717157 -0.2787677464973651 0.3785599734963545 1.1111361697114284
Ni 2.492618830471165 2.248966158203696 3.7446163173866815 0.2845699550014389 -0.7742836032561892 -0.5447661091442038
Ni 1.9002175814968958 8.750066210469765 13.173966481252823 -0.3969276773702648 0.28459772291558083 0.020968888942183243
Ni 0.7010862413638275 0.3703427085769843 6.0106907060163834 0.7414768411388134 -0.2035439528663591 -0.8613933496915035
Ni 7.274211971233 0.4997965443453612 11.09153253676013 0.3278555051629515 0.08139238433556305 -0.33058550249960483
Ni 0.29295632372885566 7.098957375155477 1.109071275019204 -0.12842326047212077 0.5808772530444641 0.36560264200473813
P 6.02776042297946 4.875474291590722 6.352833306843409 0.659683878930722 -1.3197691070649205 0.0035972304329550953
P 2.1588538248187117 5.536887998187398 6.1905999291852085 0.5961357218654314 0.07213744139619835 -0.459691390861047
P 0.02407916721640688 3.4812502540221284 11.712309038041969 0.4659941931506233 -2.2041368061644104 0.08304791766111504
P 2.6860939624636133 0.034867521772978985 3.914298382173062 -1.3121115905196628 0.12286942053342712 0.13104475725536788
P 6.919668035342388 2.766477061522611 2.703211362761746 -0.4006007553464778 -0.7108812277401435 -1.588999860606128
P 6.852948045751553 1.663634880638791 9.23481316068147 -0.11677642026181179 0.022332087838297023 -0.21488406046952668
P 2.884823431184421 1.6045442246570225 9.259910183703894 0.5550160690069861 1.5130587291931232 -2.057689341200727
P 3.6914237231565377 0.5880134651618428 0.6650596477540862 -0.5528859100378607 -0.3377095151388958 -0.009929857519202253
Ni 5.132395768824923 1.0325551110358595 12.382326835654736 -2.9825292893826507 1.3761850239608042 -1.5430557897758457
Ni 4.5649274021620165 0.014832268164262969 9.864366146575376 1.181172505604224 0.38086753858360856 0.3427501628865968
Ni 4.803701702458303 2.566445470959871 10.383894421762072 -0.5522364493793199 -0.7339897887331488 -0.11216540385236166
Ni 3.84598191784504 4.9016817861276385 12.66430315449958 -1.0727850807370558 -0.4221368296460407 1.34062666724022
Ni 5.194549162096869 1.3225706567738162 4.053032128533237 -0.27745159878910275 0.443473643450604 -0.12383127022606416
Ni 2.1928832202793482 3.5650078660235986 10.865159571527428 -0.15004186718316095 -0.26238519137428357 -1.9780910726511096
Ni 7.657237529947846 4.885515301569002 2.5818178445923716 0.5096551243736835 1.1997114449486757 0.9195097942182616
Ni 0.6162997697097883 4.427947852339599 4.007373501242048 -0.49358007318869185 0.36051160063507587 0.39477643535521684
Ni 4.4011534859866 6.153983712797746 5.831359184791515 -2.4750688586674405 -0.31930890114452104 1.0262851374033035
Ni 1.1155791332672271 2.0874572004434713 7.917994764692471 1.2136889901746906 0.7497421664713992 -0.3310758118724621
Ni 7.529207775320681 0.7952855867554962 5.084814219348852 0.05022110093908125 -0.8288321279260306 -1.380318072292571
Ni 4.100189112929861 7.575919103931968 4.038174184727021 -0.969365541398124 0.18027546925672178 -0.37578086808932054
Ni 0.3368240749937816 8.951785057503741 3.409869218429503 1.2802576792338598 -0.3469084080293445 -0.4502652124511406
Ni 3.552060006581287 3.711634121322866 8.167330006716599 -1.3749804621297417 -0.7332953337692856 0.3100675850519111
Ni 4.962725624872305 1.9928974790772396 1.8729326269851405 0.21856742285838487 0.4123730653910575 -1.283135257891971
Ni 0.34724013274202653 1.4082080925611746 12.314080979342087 0.13213130545132729 0.1822217943498152 1.2178973718290833
Ni 9.083904575099229 4.608933618496049 9.851053326222438 0.20815342661391248 0.31085254284705177 -0.1846381171007917
Ni 7.950380002080865 7.176626192065094 10.42766130443361 -0.5989369387596524 -0.4145785576828086 -1.7956525343047978
Ni 3.0030414226364632 4.864534634144066 4.006340056653417 0.7068718494704342 0.2172070521757485 1.4296598559504927
Ni 3.512904652602058 7.169987204645666 9.486269394128406 -3.3866061762031867 -0.6710694950598443 -0.7699757199094547
Ni 3.7498999977058456 7.425661579270692 11.876770694626858 -1.347220518407654 -0.0011724230415463678 -0.6386689672419517
Ni 1.2114318066032648 4.527807759794823 7.844179128050317 -0.6846978844765563 -1.973601412310872 -0.8379199491599116
Ni 8.106542924391468 1.1263170535271048 7.395191011182265 -0.8942268512817567 -0.9395805968262076 1.2539676351890792
Ni 3.2909020484247433 3.6848122453534877 1.6813070582005638 -0.17251845101912225 -0.2813239372603155 -0.5679240353179058
P 8.550007110290645 0.2733062047494435 0.6709751322627516 2.101390895853736 0.08378248183429442 -0.4106033750851445
P 6.860953344117799 5.166095048889013 9.670392173539259 0.1856681010272028 -0.7065373489491509 0.5270180411321634
P 1.915448739098652 6.563335974387153 12.951486126737729 -0.1675683061026985 -0.9437812651711165 0.3195819523002496
P 5.7795686640094805 8.182121010456294 11.594324878329148 0.4651207894067344 -0.3140967608159623 0.734090061756439
P 5.267532174349957 3.2317013539774595 12.548667399038301 -0.2613654918605176 0.49592980436779105 -0.03890130505088784
P 4.141068402868831 3.055914905316612 5.0488325581125295 -0.6569209714736041 0.03147544490046192 0.02641217144494161
P 2.228709910676737 5.2960596465348235 9.55203204906926 0.6608724999221844 0.32734385563385565 0.23851892627964727
P 4.586843396543833 7.975340394008608 7.785380990989378 -0.17575572700949732 0.27510855247822297 -0.5305263113957379
