# total energy = -340856.81123254466 ev
CRYSTAL
PRIMVEC
9.39899439999466 0.00000000000000 0.00000000000000

0.00000000000000 9.39899439999466 0.00000000000000

0.00000000000000 0.00000000000000 13.75637836930647

PRIMCOORD
 96 1
Ni 0.4836515645475857 6.590255178176534 0.9689686308701759 -0.11415620903014533 -0.21211035437913148 1.4040722372893752
Ni 6.229004835499885 8.125956843063685 7.137413866840097 0.03996059955333763 -0.9215929019995355 0.9489561245038368
Ni 4.117351603069098 3.221307888518932 6.82731755018186 0.9842236894568793 0.48118555617908104 0.5771602092041931
Ni 5.729984035610948 6.246364777816102 8.713647754382608 1.8066193177289467 1.393352022658394 -0.4082677849734323
Ni 3.104957739123999 1.179103824347225 2.868191435436465 0.7007307695697029 -3.576968340271949 -0.49371248500149817
Ni 1.2583185475963155 8.65885161810565 12.895393746621636 -1.0990154751884944 0.580781093786232 2.1370981194473586
Ni 1.0957723416317007 6.397547599774054 6.7013644483968475 -0.6167425994825055 -0.16222401107164963 0.47249677015583136
Ni 8.266584594517516 6.243930438314261 3.3140769013263416 -0.5291764822360628 -0.4513273351670679 -0.6741769303405744
Ni 2.641897491103954 2.431501005587711 4.558616523402585 -0.5282796814534063 0.8333824663008743 3.650260978318513
Ni 8.002012306342547 3.435041016981713 3.200682735612216 0.38354045743008136 -0.01145632146605769 1.8827831066757188
Ni 9.308237527455784 8.129359278969732 4.208337626673808 2.163778971172654 -0.2200897730401823 -1.3440572901883239
Ni 8.536627097325967 0.38399778847724786 5.503376164871637 -0.19593965815653996 2.135509949024632 -1.9416207456392174
Ni 3.614232841702158 8.680854663564375 7.5691030918667295 0.5634112350492168 0.09724092133204543 -0.5439420705810116
Ni 5.5632552772203905 6.6961160500268555 0.289094264083475 -2.2926969118930063 0.8464850651211034 0.8583242238478767
Ni 7.134588529178887 2.869926489768665 1.1746740783734118 -1.313563492474841 -3.7594544440267446 -0.818883244243435
Ni 2.154230676227463 6.364209367291315 2.9368219512993665 -2.42361311399031 -1.0936246431902263 0.25562858937674043
Ni 6.913787357065974 8.19242653015642 4.751370156876722 -0.5286712604648701 -1.2728832411466595 -0.14105149075909257
Ni 2.976520483167803 2.493703549306563 12.861181407676845 0.8213142222824307 2.676181833494804 1.4308284223372971
Ni 8.306455127980099 4.624671714850412 1.269773101846869 1.2553817419277864 2.2651663105729054 0.7006356387527353
Ni 4.468798794778874 2.4390202009601927 10.841154270356851 0.06862814269135922 -1.6857389026010905 0.2149388249668621
Ni 1.9155526171164752 1.96757605009983 9.87106809907444 -0.5274947236582658 -0.34402260184111716 -0.8960106826550569
Ni 3.582905993981558 5.855770775198345 7.724467526351202 0.018110079337149452 -0.796965361124421 -0.6386764234411194
Ni 2.055174676189237 6.940818864430044 9.046744349785843 -0.42620714306067237 -0.5044231865507829 -1.6839841246935128
Ni 0.21173020279543642 8.40060485303778 9.88790545731227 -1.0050385693197013 1.6257375823467934 -1.199047843222748
P 3.2591106432540813 4.757554695070588 5.515454812338105 0.3849039134365113 0.36133203965384225 -0.029591340503871615
P 5.395220058633865 9.38105153564405 10.18491931392181 -1.4557614381335509 -0.28095626950825164 0.9341715099954945
P 8.002134493267349 7.105508041075816 9.243735989751794 -1.9578924862160478 -0.7135220077971002 -0.9980932483501197
P 1.5484654990319378 4.865558537602066 9.238315589787657 -0.11629073887464489 -0.7113671662376264 -0.6153133232351468
P 5.8034935693711684 2.92601028825316 12.355290882915725 0.6325623401235816 0.1040088361834983 2.240894582509734
P 9.068281205131473 4.716857050117033 13.096154383268043 0.6754411417649786 2.7663414225000356 0.26320434484146926
P 3.8822921567311166 6.408083872289743 12.705955138407342 -1.3317293647505903 2.657261599551533 0.5330189959106046
P 8.550857174568389 8.250286738547663 12.06903417518594 0.03197758134786105 0.5400694749994828 0.3904826930758694
Ni 1.5134354475903904 6.404813022302714 12.687727668925024 0.5054835094944972 -2.0281913317416103 -0.20013364163322955
Ni 1.5081626118354379 1.1633229130592297 0.7380090258090403 0.8112522100607383 0.2862645690950425 -0.45860252867224244
Ni 3.9947229255381433 6.3147800567114665 4.0801964390354035 1.6240331980611773 -0.756260427205891 0.9806547411586981
Ni 2.0310850540146506 7.771868533979325 11.044239278272777 1.3417324987098893 0.2093847279178523 1.6282030131681506
Ni 4.731453688133861 1.2616269935602071 0.16696279334652583 0.406891473451196 0.335136612205397 0.6636621468521796
Ni 4.354826590920489 8.669604067488299 4.010754789971695 0.3757068203182755 1.7494577809162906 -1.655754183313542
Ni 5.983108348831316 7.110978255709296 2.7204336069706776 0.1174258809203526 0.6098363592809756 -0.6528475727351789
Ni 6.327637880798409 3.6890958306294253 5.0916898793346475 -0.6905342886526753 0.016242172890475255 -0.0180933671666011
Ni 2.6244247608571505 9.165551396268734 9.445321858090333 0.005465393989945426 2.304518330007967 0.9131661113884209
Ni 6.417727240354951 9.218693309563747 1.232607598919537 0.09894144896291991 0.07499753655281276 -0.14985751908649675
Ni 5.327143143530262 1.6185631978918946 8.582260154142135 -1.0557972879298074 -0.4379663404791296 -0.13991712004433324
Ni 6.81960003603143 5.047870828402091 13.218889269433634 0.4145556748646731 -2.374830802380284 -1.2778403280416186
Ni 4.560899539097555 8.52050782224621 12.54788003399109 -0.10584331828907578 0.17932878907273633 -0.454920708945281
Ni 2.4358433409153193 7.807810287859785 5.3912893992529 0.07285195096471969 0.028758303079614987 0.06295063269060772
Ni 8.99785454147397 3.350619250937179 11.629848312372944 0.5801681427925816 -1.8697941506152185 -2.9443790035651745
Ni 5.47560025716569 2.1653966813555976 2.9044941106948046 0.5534710931173694 -0.5550047561530764 0.44795636181230597
Ni 0.12084944792594111 6.1751673966329195 10.469428748626916 2.2752794877475075 -0.4084909567278319 0.413133854816482
Ni 0.4420713540371856 0.8497959635122981 11.35917795675089 -0.967147707811199 1.1693199771410119 0.4981622932427356
Ni 8.994038549822436 2.527032382795086 13.660317732266472 1.2516549278955023 0.2385207260518602 1.1357046030794118
Ni 1.8675801506400442 3.9614128900380514 6.984526067331434 -1.069054667160346 -0.009134872421732656 0.6161363333570744
Ni 8.988605931165818 1.5195541928247474 8.20122210894338 0.3713498289011604 -0.1575775134385738 0.884876006194476
Ni 1.4582821495332403 0.6274749740347219 5.639743352247535 0.3661304894837501 -0.5877986627546458 1.2247958987211294
Ni 4.155022771885229 4.577789531702991 12.017503249499482 0.8773095067011278 -1.781523036881951 -0.6804432229652604
Ni 7.592582719316724 5.680441937100512 7.343594903450642 0.15217871102050565 -0.46027194595486537 0.26509487699596285
P 4.59847671797153 7.9871430974934645 5.908639177761682 0.056425429977580245 -1.0821079007998782 -0.6235040865760552
P 7.934630916810898 1.8923371014039392 10.392310940987324 1.1392720087156958 -1.1566650073811626 -1.0357658232002291
P 8.49403085554086 6.782962756579015 5.770291622304556 0.26777216671780985 -0.1282455972436759 -1.2966546325346444
P 8.350884173637247 8.538253123325266 2.136103775983254 -0.44851686230146626 -1.5895333645120948 0.5729636546243423
P 1.3759939551756477 8.658626042244476 7.617498513082862 -0.5602590625734802 -0.8915194796529227 -0.31088545296751624
P 6.136781904256402 5.051658623070978 3.140553610017326 -0.06896212899201026 -1.641227707562593 0.36237539331669205
P 0.6568129945793009 4.909310855675692 2.6324477423195876 -1.6082659079245916 0.3308431270363657 0.17926913947939446
P 2.4773586983656317 1.5133132606655877 7.415003762003676 0.7844453742805393 1.1595796099247966 0.6863876134741534
Ni 6.912668876754317 0.9342214891545183 6.9714163501995134 -0.8430166469565288 1.8354429268288586 -0.8703019650350432
Ni 3.40429690690248 3.594053201121261 9.29122252822728 -1.559549930776127 0.29294300955648256 -2.2826824650797977
Ni 2.7292799403264025 7.575504746826976 0.956540340818886 -0.8347528642858397 1.091728454608778 -1.494669170942342
Ni 9.326725349077872 1.093948936753874 2.673758201696 -0.8548154393636697 -1.0709169171800654 -1.0828278096850386
Ni 3.895215773777569 3.9466470701253415 3.49615609706982 1.1802006286092577 0.9901174292334948 -1.04349353086179
Ni 8.401582348436204 2.698047082547958 6.034029279793181 0.38505997939840136 1.0567030875735284 -0.030144127683548086
Ni 7.786070414239099 5.020021608541263 10.8273151912738 -2.6851346718127176 0.3032544187848197 0.7356144688207654
Ni 7.16704325620536 9.265838664549204 9.013619474471799 0.5354898260486003 0.21833345247070785 1.9171636410381176
Ni 1.5146949128152811 2.92992026984685 2.5890469466296255 -2.733092430638919 1.2881980171268588 -0.08297875498607644
Ni 8.871870423008046 4.18525933627682 8.890142067763176 0.6827695571055918 -0.8666731100332041 -0.5863063944798355
Ni 1.879460479328565 3.779598745931453 11.467742919237043 -0.6076910308031986 1.4399044164966364 -2.0809004892098675
Ni 8.634799591907926 0.42933947647273163 0.4619079313292129 -0.11349774951054001 -1.4278834807763603 -1.549024605764771
Ni 4.203202016234403 7.241135527606947 10.307076161943142 0.3196917384052365 0.31516428284852815 0.21136627712425535
Ni 6.263292366398401 6.630407681465584 11.562992326617948 -0.43272746067769347 0.8921193180204507 -0.1533133388455811
Ni 0.0034682288655570027 4.835265579245182 4.941676292257116 0.23789466243208707 -0.24748050634830931 0.33810135126067575
Ni 4.646759351257076 1.3041386443973733 5.722915052061394 -1.2491974674939454 -0.7942453910900966 0.3797768766225911
Ni 1.7278359046424794 4.268120869281564 -0.016388086314323008 -0.17502501949105986 -0.06722817702003905 1.9798270815056096
Ni 8.542962019427284 8.5063435379633 7.249212083336414 1.7631846435840797 -1.7136507985200098 1.4768915352439467
Ni 6.577340960124298 3.41406246189249 9.56453494112334 -0.6741211374019744 0.6333804651495027 1.1220972967086225
Ni 6.763647823465953 0.8056000129116963 11.98210757718295 -0.2576463911377176 -0.0967693810122656 0.003214393172239625
Ni 5.30289373845401 4.091156606190216 1.120359170600293 -0.9592968443082124 -0.085759145944691 0.6601335648736308
Ni 3.529341125946844 5.522369652382523 1.4199746688087125 0.5542532226990325 -1.1269158011431883 -0.9794316673848746
Ni 7.716405069113059 7.203577146721403 0.21333649090688275 1.3297164480856196 0.9602214130050107 -0.3145644444810002
Ni 5.39734423132659 5.993212267613087 6.055364996662597 0.35241828210398013 -1.0117836013530186 0.3468017072481511
P 0.4545400597636028 2.0699780920788102 4.3614181055638905 -0.6120899312018426 1.31430139908213 2.1867381510719888
P 6.333700232067472 0.8630447857586103 4.666204930389734 1.0543659547999198 0.758153787573862 -1.045451168808793
P 2.920295699770074 0.6214680768315309 12.506913577802969 -0.4235442515165286 -3.6253994391901436 -0.5889584873907018
P 2.1974002566597215 8.35342190207546 3.2510312678263507 -0.4567168816137553 2.7878034490285537 0.18455584179963055
P 3.167038095918048 2.700763391876267 1.49552472421314 3.26584068938664 1.485463593183674 -3.124092429670839
P 4.757253927255688 4.949510353935819 9.883118549558263 0.6268490917888883 0.4545232163965462 1.4799287794083738
P 6.678671516762699 3.339622427704925 7.490155300053361 0.11137478963026626 -0.3454210248505406 -2.0922094864647836
P 4.50817118154803 8.371702945824806 1.6362521050056569 1.1290747564677202 0.9410168150521019 0.2747195445699204
