# total energy = -340851.61509430344 ev
CRYSTAL
PRIMVEC
9.49001250019619 0.00000000000000 0.00000000000000

0.00000000000000 9.49001250019619 0.00000000000000

0.00000000000000 0.00000000000000 13.88959255919632

PRIMCOORD
 96 1
Ni 6.683626141143385 2.9480914238633424 11.212498398725266 -0.029590826283239363 -0.26649921354265715 -0.04926619322497967
Ni 6.60083527038838 1.227438242028008 13.816408889154255 1.417771846263655 0.04568593207288906 -3.0978412092837937
Ni 4.295293626107784 8.410523751332319 9.341334564541546 -1.5051194197413886 2.1240559415514197 0.09092629196792727
Ni 6.907305740374869 7.3040167410822825 12.970782327901821 -0.05024681197069411 0.8506379109472124 1.578520815451675
Ni 4.5710069649483565 4.30181326482955 4.511367929165143 0.3648305397254039 0.29565166673689725 -0.7909050138629541
Ni 8.030553133019659 6.93513994761059 8.342589495452023 0.3330257365099813 -1.2164940637236534 0.7350244006452503
Ni 2.8170628185774245 6.621504518039045 3.5415541127789334 2.658517069225189 -0.4528355442814782 -4.498799583534535
Ni 4.784029279922864 6.494585088250251 12.97453278091906 -0.7474981076322288 -0.19769906404980792 -0.37680442425782845
Ni 5.79011297582977 7.058348782435468 8.876588713819265 0.5521158646410556 -2.314285179586743 -1.8387961595718072
Ni 9.309882764466323 -0.2271871079237181 13.380914104563123 0.25460734720107764 1.9523964960984828 -0.24958623983740244
Ni 4.311331747563075 8.681150443368136 0.628814884208638 0.23127330046082753 -0.44017440387404194 0.07717783203358322
Ni 4.855280295240215 3.7313496216813546 6.876973761797709 0.6901396243174178 -0.9321485660281946 0.16380523951584047
Ni 0.29024824228490653 3.399910928293167 1.2694837432751478 -0.4843163884985788 0.9586396703401878 -0.07095679082453585
Ni 8.253834151717935 8.453475548791873 11.558377095430831 0.5806656512542903 1.3289798270299111 -1.6309777476998102
Ni 6.149139136123597 1.142483648378443 1.995407080392399 -0.6784382767200896 1.9426774690385058 1.829595981129778
Ni 6.19920844310473 8.727926715943951 6.118573703234129 -3.095531844424327 -2.459462005368119 -2.4660653696172496
Ni 8.81928706816294 4.820537358762215 3.0324035436534262 0.1526988451900338 -0.8410955186744159 0.8282793407463541
Ni 2.6293029173981743 4.712920614795943 10.928067534222661 1.3387032249652622 -0.20914818642701402 -1.3295148735977749
Ni 2.0644099117022012 4.466901525679397 2.178305248067775 0.3900150094108315 -0.5465175446176717 2.1050943128472523
Ni 6.994718247312552 4.364770009051089 5.936550514729272 0.27665532814005256 0.22840034978840665 0.6132525840513762
Ni 4.816124502858837 8.7858727334623 11.552905154110642 0.2826843079429519 -0.8683957491512658 1.274948094095488
Ni 1.3411285941193605 2.0881539234661886 5.893242841793639 -1.4115366639872207 -0.9619067711272338 -1.8701561619403275
Ni 0.7266749461227296 2.2231208840207137 3.694798837784873 -0.7712175627363557 1.293754942389346 -1.9642670222838237
Ni 5.263910751893099 3.4523242684100737 0.36484353807613085 -0.4007606779631098 2.168856899916194 -0.15820383416866302
P 5.608996083537327 4.340627416753893 2.404844188124395 -0.13223055003335293 0.29650758697928936 0.39499009402791974
P 4.060643572200373 8.528541549212791 3.1093381275740763 0.21175939879761593 -0.660407644470624 -0.7670091810819629
P 8.803856307520155 4.468391457672581 13.398165049640891 0.9964929937425355 -0.6654040692439508 1.0699774360849315
P 7.2487469071440485 4.5813415887736895 8.265349333122579 -0.6658570976209693 0.22886700501218002 -0.4151755678368592
P 8.610231578495126 3.03624415179127 5.056228467062315 0.7005093975875161 0.37966529074539124 0.56770060645319
P 0.6635321976523603 7.533570658172243 11.422398499522972 -0.4988611190819731 -1.2545641311224975 1.712983597249656
P 7.4170427922849544 8.951777135403955 7.585689807895591 2.296781366375025 0.9149360588046501 3.100144403495674
P 3.303653729523335 7.2861470471767715 6.987257199331399 -0.22468150617592272 0.30725376975219987 -0.24194980633806717
Ni 5.390820691669197 4.560378150729465 9.618362270140437 -0.11301335367495376 -0.13436919364291053 -0.4743384513502604
Ni 6.671839545375652 1.3939025547186938 6.282304892268528 -0.011707004024283063 2.32998202149671 -0.7639454545549746
Ni 1.7074525741759798 0.26381001591668457 4.261174183463874 -0.09934896881398374 -0.33037055827532136 0.7798096752807409
Ni 3.6477520998472373 0.9662161525733695 2.3035885996678753 0.7171518912402036 -0.28120566651489637 0.06830958300967589
Ni 6.841862612827126 2.9125608163316214 3.825651877835926 -0.3078942315496762 0.04000970762371819 -0.4660132193140168
Ni 1.5867301226773072 6.948739135803153 9.678671300819948 1.488642762242604 -0.9958581883720139 1.4171092729789916
Ni 3.8184964082635657 -0.12837329973373487 7.37034623581578 -1.2361892281597355 -2.0895291114191434 2.9320353943981567
Ni 4.282235368638861 1.6171645933915784 -0.20938289510580604 -0.7595583812308725 -1.594256738129693 0.8289306011771079
Ni 7.280889580143499 3.313058332104514 1.320037989905018 1.1149961668874668 0.6527365010786113 0.23109460879111815
Ni 9.141178808779514 5.58027930512093 5.429622506577036 0.4887785380349905 -1.4603976513539818 -0.8245512411624896
Ni 6.307451527908901 8.64796386897219 3.1563269764342703 -1.2945352721987964 2.7170906558940238 0.8483005210632873
Ni 2.9651639567024364 2.357110373267609 11.871810387731964 1.5142231818148697 0.2555141752860632 1.314991483170619
Ni 9.619741168985085 3.9936440825705772 7.217837935795006 -0.2226217954334166 0.17012526819659735 -0.22658592228748717
Ni 0.2858610094158054 7.163222912732757 3.455675191892833 -0.06723229078509711 -0.5008449822812213 -0.7155506081913547
Ni 3.344375373999461 8.412554614049142 5.140315673551517 2.103935773762777 0.6990556958601252 0.43282207727402877
Ni 1.3871456656795413 9.586431224424095 11.503611181166727 0.48973318863877585 0.9014192552651379 -0.4571298007814579
Ni 8.344292952730854 6.077166879841392 10.918872660922052 0.392405364019879 0.31063425618865853 -0.9846600056633492
Ni 0.5823090769946418 8.122919426584362 8.125786359419653 1.5545902727780065 4.020209041776141 3.030472135810516
Ni 8.610810469269547 3.8706630080503905 9.786884966584763 -0.12445656251488886 -0.2341498506776742 0.153824988374677
Ni 3.577497535862906 5.517246640797828 7.931693772768738 1.628867386225027 -0.9287089442190264 2.146969870035115
Ni 1.706218872525573 6.711896888963096 13.350301221610179 -0.08441625876355138 1.5990762710055233 -1.4660234821811913
Ni 4.052501141307687 1.3860163541687844 9.848276807712825 -0.3487354339357543 0.03128569748715902 -0.12466765008443047
Ni 9.150887091766949 7.598235604678961 6.4080048554259585 -2.4177880226681006 0.4905361441560456 -3.792303372235966
Ni 8.740757213108186 0.5965943931050853 9.147074953667191 -0.6332534526533353 -0.11348900775979165 0.4575308928746185
P 4.232545662165545 1.234233091117942 6.14097772520552 1.918775722720244 3.99360686580758 -3.1618781330600445
P 1.7361313925415947 4.947665568830309 4.653860469787151 0.2951934961535561 -3.4498231751813035 -0.6055480163182668
P 6.993095455141633 8.875183242939071 1.1282429353276682 0.6792070365653141 -1.1703993262481198 -1.3976879310295864
P 9.388308229381428 9.248520342377619 3.1466319794646105 -0.06254157017764712 1.0742002159170274 -0.9413477160289595
P 7.280196809216732 6.579919282407634 4.994267225172528 -0.7600422628458265 -0.051130757237544205 2.1147434059012418
P 1.5878973942388463 6.402721765358407 1.5236462122856498 -0.5742641186033206 1.1074589779701571 0.99482640467339
P 2.370481801155482 -0.08756055113573231 9.434547367238682 -0.950772094666653 0.06968049521527354 -0.37094025216756765
P 0.7806066882709062 0.06388202045934387 6.45732729840796 0.04151483141433495 0.21755723642631564 -0.9884626672388911
Ni 5.37463073001078 6.711156667972852 3.7935813289329614 -2.632428342557937 -1.7502843905826437 0.11938866107367828
Ni 8.032308785368315 -0.017163636960969966 4.85753796926046 1.0255721704966787 -0.06950668864157061 -0.4716817304537038
Ni 2.1804348069166317 4.452078125849122 13.209544404310167 0.6660216482232917 -1.2967366507254892 1.1870428483420716
Ni 8.148637360989 2.4715409463492057 7.846550327866534 -0.8008886074382272 -0.44897888953954934 -0.29074163102978956
Ni 1.2854791596733095 2.6400930618328884 10.559202128766206 -1.7964089528548481 -0.4137979707630422 -1.324126355592352
Ni 1.3565498647494478 6.104564546493123 7.611302403159311 -0.5507637214885354 -1.2321582526234716 -1.881663648359295
Ni 1.2617541279347133 1.552974147519633 8.071797677195303 0.32477892312015677 -0.6512244353094592 1.7351850730473601
Ni 4.00214713394569 6.654007811520922 10.677791225410942 0.4569094572405357 -1.3883825944682604 0.38620592007738647
Ni 6.0615558089573955 1.6015630125202776 8.533043611235506 -0.36136649243620345 -0.02031300052573921 0.00811671556986344
Ni 2.389831937041481 3.622290395785376 6.941157564660768 1.2579659577151947 1.5327333248039152 0.4783349741041633
Ni 3.6295977055608635 5.697319631693773 0.9189036942802611 0.6870177908589845 0.2205944805907427 0.44207881998560633
Ni 6.978613695768394 4.948956210556888 12.58216535902235 -1.5588521333781542 -0.41910986989425886 0.013665927522866786
Ni 0.8002462695441162 2.336611945845462 13.274644942399606 -0.6893685504793482 -0.4084580466073675 -1.8668422670757463
Ni 8.776221390551038 1.448498597755551 1.6748629215785746 -0.44807463255772517 -2.25864959250031 0.29180941017267165
Ni 5.176355894764984 6.342346304590028 6.119295893200251 0.2936778308399781 -0.5121910034216598 0.34916789348748256
Ni 7.419690505826982 6.889492986545531 2.9789700271717603 2.8664547802838696 -1.442265460529645 -1.4726805824863929
Ni 1.8783392327827397 8.627484421575433 2.094189571540487 0.35301015005170816 -0.6442914556350517 -0.3293824833304392
Ni 5.204759502762431 1.273673583880184 4.197657528493305 -0.5145345639531719 -0.7913616417843983 0.5375454230260484
Ni 2.186802605435271 0.6259185323339901 0.10021548306509948 -0.24951270628698963 -0.5728106739862457 0.12204641041149951
Ni 1.7176922978743578 6.8393287794374436 5.2170281911750935 -2.503523514463708 2.4924852543716747 5.6683489030775345
Ni 6.540716039962778 0.3114555736554029 10.515102039770502 1.1419616397327172 0.30928494124961575 -0.8882305244890057
Ni 7.936924667766463 5.831812091613526 1.0171348156907445 -0.2583878972894324 -1.1676521025202857 -1.2659582318920521
Ni 9.0644425661242 7.881332173396585 1.161224525449395 -0.19821199913048446 -0.09660611596152395 1.3531656802474954
Ni 0.4649166709507988 4.823441302647019 11.627811722318276 0.7570800948937091 -0.8401606655649724 0.7135430908430228
P 5.230059876608471 1.4355826904770592 11.809098485837968 -0.2883235085066002 0.5950684569431816 0.04619012540281723
P 2.2376121334066483 2.2839518653984743 1.683974282767465 -1.9476972908506005 1.247405151480213 -0.6722568304997261
P 9.031464772007551 1.3785097541266924 11.383604276625288 -0.9939401454136945 0.057093145468566184 -0.04848714896711004
P 6.669713782531873 7.179298994238831 10.720668051770204 -1.8812594709423405 2.0278511747933723 0.8548876873625019
P 3.669047688335801 3.3016323568192063 8.725053140099774 0.4958632127959137 -0.21041239785141827 0.29230409042090305
P 3.0160019547119 8.513547329153997 12.608194565843396 0.0193218402570635 -0.6814680646853489 1.2472436862016842
P 4.695496951487118 4.5465796722702985 11.837183229408847 0.07106657692952277 0.055203898865653314 0.43783984220359434
P 1.1430910091909512 4.52377517176316 9.237037427016139 -0.13616330942885582 0.4035248709718082 -0.08834156195988657
