# total energy = -340891.41202579706 ev
CRYSTAL
PRIMVEC
9.08219983813590 0.00000000000000 0.00000000000000
0.00000000000000 9.08219983813590 0.00000000000000
0.00000000000000 0.00000000000000 13.29271750593838
PRIMCOORD
 96 1
Ni 6.212705906191964 1.9654969871790857 11.496498965344495 1.3294781068225683 0.93929751836815 -0.12455349310406935
Ni 4.401615394989403 0.24002709658551757 6.038495693913644 0.3122792479912493 0.07960263942499193 -1.0388344348232237
Ni 2.7765010856909225 1.6012916996586686 4.789366285060795 -0.08773401028287471 -0.9779738518924255 -0.0013176903701590209
Ni 3.416641762489545 4.322636586972705 4.944146039442274 -0.09356295825982595 -0.13376806972380187 -0.29633378040558644
Ni 5.215135262799839 4.564940591006451 2.8120079451597904 0.40086917851651604 -0.7826106350646457 -2.3556562863343626
Ni 7.4223186644375625 6.450414317210938 2.5727255889442557 0.2825531816817263 -1.090470670942277 0.20332823731112726
Ni 5.088111618719627 4.44920612107122 11.871699163741754 -0.8337840726146672 0.42344886358924494 0.15808376365103097
Ni 5.610964769445617 7.730677506408915 12.706455030736256 0.08690122996893421 1.2074504654641462 -0.4537693689496572
Ni 2.00421440421855 6.549110580632906 0.3219576194832429 -0.16093074618152284 0.3662153358880725 0.2898774832572814
Ni 2.5013921765794054 1.7692942284871935 0.13392702402196513 1.1019971835246378 0.5374340942591647 1.6750562260762636
Ni 0.27685359966119616 0.15629103240056605 4.969655213554107 1.1857567825407966 -0.650128374031803 -0.7304709769466129
Ni 8.64379277540508 2.2925742425959776 1.4581707649472713 0.2918703453175941 0.7125622149869922 -0.7891908593853246
Ni 6.804347636945375 0.6815654975489623 4.663723135324942 -0.3644970676453852 -0.15719647595007122 0.7025138296120547
Ni 0.7726172735390483 7.360350816335226 2.4723255048709603 -0.6069461822173741 0.95427753671675 -0.10945366134815343
Ni 7.758305557695344 3.976741013914301 3.764072227286085 0.18985359986346012 0.07124912525397407 -0.0681799994103471
Ni 7.643851677908499 3.8087021562872403 12.443073057792075 -0.10933539060273428 -1.2115678300666297 1.3889569789144918
Ni 7.977704254252306 8.83962316391198 6.810018562396804 -1.3223206698421806 0.29979628503289013 0.6136277080026077
Ni 6.745567640914549 0.9532495091785228 0.5212020068325399 -0.015811770221275993 -0.544010976145734 -2.16293050712943
Ni 1.8357850120072299 6.350664518631432 9.296501400057142 0.532915894673837 -0.11083074420133816 -1.169821856478095
Ni 0.14495008971767173 5.188633404268018 1.1630210741235136 -0.931709164497931 -1.156899749099788 0.579523310119731
Ni 6.492555723512394 1.9824807004945437 6.993139320735976 0.1313805433282318 -0.2889613992009153 -0.38592284161932894
Ni 3.183864985871798 4.394049922694334 0.612369126757977 1.1625065537636043 -0.4762966035178959 -1.0125906706353465
Ni 5.86905363644314 5.542548559603186 4.680365357934164 1.798238806974735 0.1484441836787379 2.4297847900186604
Ni 5.520932924474422 2.813320323006894 9.04593350257648 -0.17185510640351048 -0.05752406235839771 0.9806912508235885
P 0.16561663498469023 5.682913954945649 12.371332762883625 0.0865397328644574 -0.678039241509458 -0.6939823951022758
P 4.02329636923785 6.2635208131438285 12.838159640507799 -0.38247756338320577 -0.9598164642571081 -0.7583255372650359
P 2.4480887469278425 8.407909886512527 1.621564985681538 0.740998101730182 -1.1512636338599336 -2.231096879693022
P 6.2142044691315625 7.843741809651768 5.574819431342483 0.9545606151748077 -0.6424999109522678 2.2789134849556687
P 4.639514532200688 1.1680526127207136 12.665939338169276 -0.1866924285266591 -0.39423470391913396 1.417887803016229
P 3.912974890284445 5.97375323382314 8.483372066830963 0.38652165154559237 1.0976779873239937 -1.2193320473930807
P 4.744386691373734 1.1639111296876392 3.8528806999665894 0.18136587410742314 -0.3662891265488014 -0.6371373610887737
P 0.2691982135897526 5.53736262361221 3.4727225287891654 -0.4998831325885842 0.13218067063202396 1.7833570047668963
Ni 1.4462222231088668 0.8401534182369504 2.528779549575536 -1.1381173262859625 2.0037787072252007 0.6779536237741873
Ni 1.7797387580662185 6.687659536048581 4.928687227445354 0.1150740928587244 -0.15442868339694696 -0.8371843565454679
Ni 6.060524569125753 5.856302228157096 9.28419229489327 -0.7289892501947638 -0.38231635521499313 0.14936515283111051
Ni 8.478060796485039 2.3443700271083077 10.410949054098445 0.07425063108445923 0.36585383878359573 -1.048552433441936
Ni 2.251059508069262 5.295158523774439 6.897284877579465 0.24577535073174447 -9.641636854822105e-05 0.9585581663699748
Ni 0.7421682910463188 0.19401667324000418 9.07776933695331 0.2478072935601087 -1.1136895322609013 1.0985722170034886
Ni 1.3047578816106993 1.124712356067577 11.511652615433716 1.7521687520895501 0.08494024958782145 -2.207468698751121
Ni 4.518557797475946 6.758909392176799 1.7321743703633388 -1.359075617974027 0.13000628868852449 -0.7697196380345905
Ni 5.613934648725914 8.056782966464976 7.779629654215859 0.6675504261629923 -0.779130132715213 0.4997574056439973
Ni 5.381839037080711 3.0385679561281096 4.871089733806867 0.6343531134754171 -0.34668600760589324 -0.029506494099549186
Ni 0.7631563461803784 7.557534452587583 7.242085137362017 0.23509653086165963 -0.7420131732582576 -0.04225170958035949
Ni 5.160841873388177 4.460740514606317 7.2647888200069275 0.23348213518668823 0.746322856377205 -0.6306718079690881
Ni 8.079651945143224 7.368824508593686 9.380390953415906 1.400644185444433 -1.6212049845837628 -1.5219130942599597
Ni 4.83564463329551 0.4319839269485454 10.507095035863205 -1.35950910596702 -1.2259444105032757 -0.7173033292164033
Ni 8.143200095981864 6.9352584624689095 4.996931783714703 -0.023484970495817617 1.2152077408120618 -0.923995340793441
Ni 7.19223021891146 6.121093758484463 7.207989651716263 -0.1985508705271419 0.8675663112714349 -0.9477955285368322
Ni 2.1638158983856846 5.219540129622297 2.536144305258693 0.8501866823424067 0.09542263717638404 1.0832353295361021
Ni 2.4638281988934514 5.049267050885288 11.408806694999 0.24840636059668833 0.04746924922555696 0.23140776915616276
Ni 1.3486793990404076 3.0315020048129084 3.632075170686331 -1.5586893825480446 1.1136419668524178 0.19725632008543448
Ni 3.6670470885967603 2.8334101485971575 2.8377423578225445 -0.4677055194147752 -0.5565484464911123 -1.0984416049628953
Ni 1.1552285468375976 3.478209993807989 8.260998041673925 -0.576880216069929 -0.6900943729017792 -0.7742864314696665
Ni 3.733774009307279 2.6031128124794747 6.80744012592073 0.5342721515914154 0.07947331293597924 0.8268405514172985
Ni 4.236110471060209 6.803848115965508 6.009810474589825 -0.7336282916286719 -0.03830352356588887 0.3553773647323041
Ni 1.1692787096712947 7.2203759555770235 11.304153416837137 -0.5190471071115448 1.3488305432072514 0.7544935651134554
P 0.08820268996492067 5.59042991607329 8.12591757829845 0.614680060526522 0.9604281296991781 -0.4291400004367512
P 8.513935485039081 1.5352096151221593 8.101366576247997 -0.09214730885922195 1.145776128382801 -0.3462532909438488
P 1.8125436631439908 3.148635133491765 10.350374415419953 -0.9203160921696408 -0.325885011700142 0.4079068020895878
P 3.935943773158666 6.0361025343101025 3.8414489352873558 -1.1696992148573018 1.4463499150116639 -0.6460151231943778
P 6.650794887734439 3.982871498667207 10.487329444799874 1.011184277206123 -0.2199689311916018 -0.9005746478766554
P 6.282066664796323 7.765998180785287 10.557621128866712 -0.4976717267595623 -0.5121596359630921 -0.7592791594275569
P 2.3001851258892154 8.530746636561494 5.959829313564355 0.2946332527747119 -0.09156238289002941 -0.5612299111271818
P 6.988262179532553 3.990827505546534 1.4710384253886302 0.3609875118302299 -0.8526022337624349 0.7435851457310677
Ni 5.185191250606756 2.9664825376335697 0.6792395462227115 -0.25877176299141236 -0.15850902411390766 -0.36788141073658576
Ni 1.6256592412765154 1.2543789202412632 6.978078309083021 -0.7706354649806406 -0.37862733639918017 0.2484259009807141
Ni 7.072581320934003 0.419458665433386 9.323990493689172 -0.9993397191627112 1.31574918727225 -0.7689292809228112
Ni 2.9029979621923654 1.575643567892437 9.016808704790376 0.3096382108239764 -0.5279104710394458 1.124795412366076
Ni 6.524425162027872 1.9777761210841658 2.609480342642826 -0.8869655417336532 1.324910284946228 1.029907564647239
Ni 4.1084510730056225 6.9547397806837 10.522462117643823 -0.0689706136324425 0.24637493198895632 0.46935899585779806
Ni 8.092003736645374 7.264233897609294 0.13684695120427515 0.45364724154949615 0.7078861496675615 0.44847443909930507
Ni 7.739123952068474 3.9153090155903665 8.069024863351556 -0.17125861047009214 -1.046832879647668 1.1562716285974861
Ni 3.131070159399735 8.594848801577806 12.861368293452355 0.8872347362346398 -0.4318933948121723 -1.2430756708669237
Ni 9.171114368350965 4.707186001673137 10.088454676616836 -0.4330555334410735 0.4151208033395238 1.8469527272406705
Ni 8.669032208187785 2.34596849424388 6.018742817929799 0.6167464561372475 0.881785025973978 -0.48992345027271106
Ni 3.626258930040759 2.6414851059328486 11.42885201781106 0.05719598959501762 0.23853435289861497 -0.7219156311774341
Ni 0.8928101952745773 3.5096253223417695 12.605151267799386 0.29422161915859 -0.21972107684685382 -0.6995226081942146
Ni 3.1898864842290964 8.262149664587508 8.12360525027165 -0.3970356637030388 -0.15801640074820528 0.26459685431362173
Ni 5.538279925775237 7.650309121848227 3.5993483725254105 -0.06925857718650652 1.4492367496411558 -0.12594445991432504
Ni 3.1229870017255332 8.575004195377657 3.5569317755750447 0.9764882684858345 -0.7333063895128791 1.8961014210511797
Ni 3.392882728247172 4.009509590193537 9.081278698891863 0.2530250903156223 0.19867968279552234 0.17152060588222717
Ni 7.167136101322898 5.864485290027271 11.560570250882051 0.3069449802625294 1.8133743770645931 -1.2967883298990313
Ni 0.7677782775740879 0.053444203745889 0.22744915831248136 -0.8656757791169414 -1.1722510347448778 0.8438933931345273
Ni 4.572151857515794 0.3796359446984723 1.6238918452277518 -0.3289189134304593 0.05710754364626939 0.1744758318558092
Ni 6.2096452049153275 5.626286440228064 0.4346422867813981 -0.2398232469133676 -0.2714627281955196 0.4983157881014644
Ni 8.133273251781974 8.60402182320808 11.30549576594303 0.632845161471323 0.46385966330612377 1.473302532341108
Ni -0.06058917019790547 5.07295342753059 5.89938727500052 0.9493554168247843 -1.6690257036114673 -0.10711575724359615
Ni 8.065510960313187 9.18709903970669 2.33353677938495 1.1033822367976223 -0.9466925252806405 0.8918478095266189
P 8.542008564107572 1.8190737646807897 3.8220811445679894 -0.1704227448323581 -0.5767035812827487 -1.0216029014362855
P 1.4856208051208757 3.262725725293253 1.4023951605553513 1.532476728708419 0.16135626375471565 0.8046745568432206
P 4.884679429119124 1.0127106701818938 8.03818625449453 -0.6825201600989471 -0.5145921566639847 0.9943340384180037
P 8.518458420456781 1.3589332024271201 12.344388601229632 -2.1515371776908236 1.268071678690629 1.7480986957852345
P 6.486116443971936 8.042405844444456 1.4810215792262513 -1.0831432840429283 -0.17615039134475471 0.0021018768343512187
P 1.8138060888931078 3.237023100329218 5.932087734782502 -0.9460968006781706 0.6633942379027736 0.7673714495173881
P 7.0762414473864785 4.013896292616728 5.99357967562402 -1.2545846999477877 0.33086652407513345 -0.29595557113056126
P 2.6117409021317126 8.67133000469517 10.394719163352605 -0.16127527400513514 0.30769779926815394 -0.7715965433423292
