# total energy = -340892.2150896544 ev
CRYSTAL
PRIMVEC
9.07337604493477 0.00000000000000 0.00000000000000
0.00000000000000 9.07337604493477 0.00000000000000
0.00000000000000 0.00000000000000 13.27980299267141
PRIMCOORD
 96 1
Ni 6.254287241965153 2.0980186165189347 11.263278107769292 0.06718575381787785 -0.7990682664000367 0.9485020676855535
Ni 4.679611887430907 0.15333189061192906 6.015485055516445 -0.6296078854809479 -0.1341118262164658 0.09387277619076091
Ni 2.9164825106108725 1.5443612048733495 5.002329193047169 0.061611345053893894 0.13930416905068266 -0.6818426744159484
Ni 3.411544059188494 4.276318465064093 5.061716254513946 0.9551838505811033 0.4917026536603209 -1.3521722059859747
Ni 5.119216961082637 4.7121036473637625 2.55193966303357 -0.20104946857927955 -0.8845510187548895 0.7708542658596661
Ni 7.5225002442256965 6.225134484449302 2.4331519300358178 -0.8546164359789861 -0.7945063580609671 -0.023846210489978287
Ni 5.326915614146864 4.52423939452663 11.679149044131895 -0.42775469005345046 0.004210181426605652 -0.6511655570470657
Ni 5.553840751237262 7.743418806315941 12.244084662311002 -0.6611103269646034 0.24775741415877978 0.6939302017081017
Ni 2.130437789442725 6.424993740534475 0.3768953418449904 -1.7216178758858864 0.016736853138706657 0.18701098820834244
Ni 2.789310070728465 1.6936454623922748 0.30893303259476207 0.7604060739431484 0.17772802024451972 0.1621463637561788
Ni 0.3274363685431207 9.046691333955026 4.9615997149230155 0.41735663464857803 0.32066670072399617 -0.2894457950365015
Ni 8.565639078127008 2.3927581668285907 1.4315491973968983 1.4869936566749553 0.7313983738568888 -0.9203513162829505
Ni 6.887681483068972 0.5294895669772933 5.164874189784713 0.2314954437739626 0.3129410499449643 -1.5679394403914029
Ni 0.9301843744195692 7.612499062090538 2.5643701883360026 0.006130795488086216 0.10428651532491717 -0.2820155640107014
Ni 7.970906492726596 3.8175413476429894 3.8137332516799014 -0.3382756720550109 0.6602976012553209 -1.057771638047359
Ni 7.83579484872767 3.9949712179269854 12.561259949785128 -0.9713211224625982 0.16658408781255826 0.05069932612708043
Ni 7.594497483842343 8.490983339303346 7.212380414032717 0.5429018022419553 1.2200056764213376 0.661015710368268
Ni 7.005707959809152 0.587661703379839 0.4683613246305632 -0.06412485550436699 -0.6154367361868884 -0.2858989582255076
Ni 1.5522096752285353 6.583977437139751 9.6034618209519 0.21403739619851525 -0.11698570805914046 -1.0791896987118188
Ni 0.2733454367252715 4.90715401409836 1.2894927913056504 -0.4644448463856323 -0.9054864833559759 0.16045792031016237
Ni 6.245994176179442 1.967216826183262 6.975402883524389 0.5303136811642996 0.20399800968464224 -0.4777539047897127
Ni 3.701901168825832 4.305634543350341 0.418114782280335 -0.4163626461664248 -0.5913807236789492 -0.052597314480741675
Ni 6.44744127308792 5.603326944667532 4.623615546625094 -2.2041668880713976 0.09160069232713257 -0.06855023826557227
Ni 5.087314970598438 3.026914571527595 9.094128759054428 0.3173180959667374 0.39135918214355175 0.8589590292183981
P 0.14824354127645145 5.761376083531092 12.639198436093768 0.7054094059922948 0.5576136545308332 -1.193901523135118
P 3.9143089041031693 6.214146625952041 12.571338655993845 0.5621385389843803 -0.576774029509368 0.045660221041276206
P 2.5984606771435215 8.669021125788264 1.4732613221562738 -1.0424118677618373 -0.01747450263567958 0.6815197438588908
P 6.260938026670762 7.53243559109151 5.787922060083885 -0.32260814072108307 0.7716505365087162 -0.0373316465709228
P 4.849447341891445 0.8609644952372848 12.511805513171325 -0.15588984132350572 1.3222075413030843 0.5484553850703328
P 4.046435407354283 6.0929716876936535 8.246465833228358 -0.5551960462282761 -0.8483313743012229 -0.5737933496144892
P 4.9276144772786425 1.141966046743719 3.801701954927328 -0.045928387100998315 -0.2095953012667616 0.37739423532302746
P 0.3974610561884169 5.603317871291398 3.3006419973880727 0.5168398150475809 0.13129441137232872 1.9839169353042672
Ni 1.5328652373126326 1.0564131831841284 2.742916991221991 0.19200484187850805 0.454192829640321 -0.6545414154978341
Ni 2.03944997357937 6.614146412782517 4.569593572465857 -0.43282593392877067 -0.6447025750305413 0.702636728343164
Ni 6.207822482787227 5.652286882282077 9.226262521006449 -0.8516876923679655 0.27618610181311787 0.5397892247549027
Ni 8.520707719515586 2.3115333036845187 10.186498824516665 0.10292485909070015 -0.14657370612890241 0.18619029207925997
Ni 2.160552324828692 4.97893349268781 6.962972358221955 0.8604119596148407 0.8062701834651147 1.1400091439920366
Ni 0.4245414545954541 -0.13824468077770619 9.08192416081771 0.2469266907273683 1.1916371525809737 0.059811058620361506
Ni 1.464842136442312 1.1339088887374704 11.278364410265901 -0.30235658956089867 0.08700047455095984 0.5626782135379341
Ni 4.087492434356845 7.031866503201059 1.6083829468689455 0.6043216001103334 0.14790579467676462 0.5380509019075572
Ni 5.179464178606837 7.845140426144828 8.14232525132237 1.5714176287479904 0.8639035177078669 0.3654380914024158
Ni 5.702798367215393 3.12094196839556 4.591943112557063 -1.2403963242625478 -0.6262225139484828 -0.13337751915360255
Ni 0.6976028946477576 7.269625251394454 7.036343306985162 0.06529470744275208 0.407055509832886 -0.3996381343228924
Ni 5.238867572150654 4.569188899890317 7.159978037513249 -0.29354824724064926 0.7107886680263372 -0.5721141621398533
Ni 8.219907153948979 7.088339196253864 9.25165345677749 -0.3402381950980205 -0.5832850911550084 -0.7064157357696222
Ni 4.312357915065015 0.3037149339805803 10.480725729074798 0.15750706521195454 -0.6893940044006449 -0.44191452649360025
Ni 8.230477637144112 7.002976873593069 4.653747321425713 0.7405571575380214 1.374624878562536 -0.056160863462283925
Ni 7.352419808609563 6.111426934748508 7.001218453298463 0.4382558466950903 -1.1715316400803502 0.4724769726614895
Ni 2.561078367474891 5.108347056475108 2.647833453372126 -0.6264842522503017 0.22411226393601402 -0.5540184809804072
Ni 2.414361875401651 5.0122327830965165 11.397152143263654 -1.1049526666085356 0.19884603317005756 2.162444825742263
Ni 1.2911142036206467 3.2803339669268285 3.909096249514667 0.38100046461704706 0.7829343369526517 -0.26180103673603944
Ni 3.4882413076421175 2.730641620651435 2.6844989663262364 1.2270019052335126 -0.3913350137738357 0.5241376342605747
Ni 0.8556729022764242 3.0040042967913596 8.19606867283432 -0.26043680939866115 1.280908425443981 0.19099388411549043
Ni 3.783361939749366 2.8062772840974786 6.962786354011225 -0.471338231071356 -0.2876581070084594 0.28540222109474717
Ni 4.033814341153055 6.79418034201673 6.09442070586212 0.09418002301853458 -0.2809940647247225 -0.29624224913304464
Ni 0.5251025896169091 7.702307339056581 11.752373004201743 1.1345722892471815 -0.42896850785589347 -0.7051880340101081
P 0.302755878123305 5.391699519737646 8.060242954133715 -0.5906996384515246 -0.14030252840820998 0.6081970239053396
P 8.266553380649569 1.4741695671072033 8.029208378407846 0.4892855595783961 0.06830804034777913 -0.7620353820164554
P 1.6164310314990606 3.140930616016917 10.459013139988139 0.4765909948298631 0.3048140499624557 -0.7658930651996487
P 4.151623056866039 6.131352068736932 3.837796752522662 -0.24001273721635438 0.5186125906772875 0.27075516060553373
P 6.9676451469305345 3.900553665885295 10.422334924307442 -0.24125406582262324 1.3787574126736706 -0.9433529193844464
P 6.24274590752377 7.762209768287721 10.138970665655933 -0.2251563889298122 0.5857039850091461 -0.8496390373690528
P 2.2725177863119193 8.361905490432974 5.851400306849104 0.4828045798397427 0.7985463324582956 0.30222546329967304
P 6.867230093264824 4.108742281260712 1.452743696706353 2.3546391579237578 -0.6036070905418122 1.3308359064020434
Ni 5.769278994143077 2.6438366311854677 0.4398718309100457 -1.6394919558184087 0.23129901149244037 -0.9531693912542358
Ni 1.4029254177096102 0.9944329508184941 7.025878982290785 -0.48617503897387243 0.08903884513722729 -0.39356313177340607
Ni 6.534636417727613 0.8481274826840861 9.211070967346693 -0.32051140609305445 -0.9386601418944672 0.015193162800670608
Ni 2.77555483251059 1.644349809860802 9.160633884097669 -0.9885835090874716 0.4089267587136699 0.23536006893569145
Ni 6.689627828834297 1.8860826968005215 2.5621390451448582 -1.8241035905566392 0.7055770419184106 1.4091565937908181
Ni 3.863951666564117 6.677950393750917 10.424870932936662 1.0039008561708325 1.3459794469117012 -0.382373947925806
Ni 8.401202282465702 7.58043375083594 0.6224726182523308 -0.470990360813634 -1.050370203376965 -0.42141126433392584
Ni 7.3841131114427005 3.7616765707911073 8.139363701352506 1.4492830294980588 -0.027449354460204342 0.42452409893129467
Ni 3.0904282044597338 8.541585557997994 12.682437610056354 0.35636106880181206 -0.7324679527719836 -1.3768725369461319
Ni 0.031302240321797854 4.8978991704425345 10.345537868716354 -0.487957841905908 -1.1290801557843586 0.12714233687716814
Ni 8.716075654414844 2.3960427289887956 5.750871835981728 -0.3245236125762411 0.17083746377227355 1.4088562889415799
Ni 3.6777296948070863 2.705218020726313 11.312812390093066 -0.039477232159015885 -0.32509259770583365 0.5118241070005444
Ni 1.0140223698899922 3.1445145995895163 12.65716644285027 0.5157486388659311 0.5966322018858757 -0.1040278623468918
Ni 2.8692374410854944 8.468363412603372 8.080136331305674 0.03922500693889373 -0.6627478625680264 0.0011688234971205678
Ni 5.802206276130324 7.8503485440452625 3.5071293547385216 -0.8447133179326614 0.11130922649965345 0.09881752179054594
Ni 3.19587898187935 8.621522001731158 3.7931630006484083 1.1346519934451815 -0.8971414538253905 -0.9088826535217186
Ni 3.078179146679964 4.565604916317718 9.34377544465749 0.4345272328905936 -1.3045029249344695 -1.48907933555939
Ni 7.4704099918452105 6.463437635210685 11.379861917704297 -0.1659420833531852 -1.5866159337549837 1.426673519628659
Ni 0.7572222345435429 0.24402119240050316 0.1784751232145361 0.07769925175469199 0.7671562481827884 1.0732669054694806
Ni 4.677098562242021 0.512975115077324 1.5070052079955056 0.15754151799431576 -0.4653401045063921 0.6248269191525369
Ni 5.806579643426508 5.602183699274752 0.45530564371255544 0.5781562545688753 1.8025569747341148 -0.9641523726283009
Ni 7.651142571041677 8.931350576550262 11.431932208657292 0.18848063077533345 1.0917762771275779 -0.5101922278240761
Ni 0.2529666339301882 5.127101724942356 5.602709047752863 -0.6816107609108003 -1.0733350397032548 -0.3077124545561733
Ni 7.849513793441012 9.00139704029828 2.9332292409398506 1.1066411100545521 -1.0012153389188694 -0.826753648130447
P 8.819249014425038 1.7786357766316094 3.663154223386774 -1.4811009453396042 -1.1761405996072714 -0.0672698288912519
P 1.8761927168153743 3.3261091495186337 1.4177649243753976 0.10020206084289841 -0.1983896623589293 0.2667861486554567
P 4.522987268620253 1.1593143419103258 8.087731654466744 0.8672690917459903 -1.7500159674126055 0.24169423868383533
P 8.440317606975766 1.7424874461170894 12.452670691561051 -0.5554588129713595 -1.023577251553837 -0.09195524745307389
P 6.260711192267432 7.668046270777759 1.2228479362699576 0.5704324035620563 0.31168429471972775 0.6502710702572544
P 1.8413963193446954 3.045333525077915 6.064395089562258 -1.250072413899731 0.1698416755179075 0.1902194678433111
P 7.023047181599626 4.066405908223375 5.95798344161014 1.0799854551402368 -0.6104140861613164 0.39135815370228727
P 2.1534660180686918 8.44859252600921 10.351938228240687 1.2034624273506758 0.113765658459946 -0.0682915852875469
