# total energy = -340865.1782528024 ev
CRYSTAL
PRIMVEC
9.32499242504789 0.00000000000000 0.00000000000000

0.00000000000000 9.32499242504789 0.00000000000000

0.00000000000000 0.00000000000000 13.64806899873978

PRIMCOORD
 96 1
Ni 7.878602227548391 8.235479015028083 7.959772557152941 1.0785232687724136 0.1896635953398411 2.1884415069163405
Ni 0.5690418140474378 7.2804785594309545 11.766327740374834 -0.25392549064270464 -0.028308102916073826 -0.5077663919914029
Ni 3.175141291924961 1.516616778126966 12.982780470331088 0.45224367633375023 -0.22797817464932352 -0.4792865393841552
Ni 2.1673613788499755 9.029809850069828 1.3654073624499012 1.3035665291631293 -1.3360591024741957 1.967663192449566
Ni 5.355035460677805 3.51878591506524 12.368316617878238 -0.36730934028319967 -0.8409067997023775 -0.3146233227433936
Ni 7.629867377943381 1.2996428529335433 8.930204942817225 -0.7405095921295376 -0.6093267666344088 2.0916407584455077
Ni 8.812910524816303 5.735112829465785 2.3364673201085777 -1.0132540152509584 0.5183513665961009 0.1388755661536963
Ni 8.524814881922595 8.574918066556611 3.00269793585517 0.35826728468558944 -0.02002503697167519 0.38591281431699986
Ni 7.40919143073252 7.820125199660822 5.739463870960337 0.7480550085769633 0.7245502405868038 -1.8666041829230113
Ni 3.5978711763496394 8.32934438940478 3.939174293876369 0.8009500568037818 1.2016641977996725 -1.7445369465759053
Ni 4.466522201514797 4.669303488142619 9.583906498657942 -0.37608451537266846 -0.48158484850002875 0.8838735330718906
Ni 2.016911950060622 6.874608261423231 3.3963357087181145 -1.446642249441102 -0.4327930238083062 0.5141491555892952
Ni 3.768900863558362 1.0465625568294739 7.264348187426503 0.21602743004535055 0.5783678563590491 -1.057629970263172
Ni 3.0773687456961043 0.4877903570082488 9.275091654956807 -1.4795739671721162 -0.20325933174640476 0.8870712140735818
Ni 0.6204663501168965 4.890249860135612 13.34269347536463 0.33304167734958123 0.10937832802552776 -0.1832839170657424
Ni 5.818487587294322 2.0268523920520347 2.968905095580611 2.1876236390007353 0.21627656994167915 0.5285992695763542
Ni 1.7753200447008493 2.1835961907702846 1.1980069623172174 -0.38249993198070903 1.112317077393407 1.0567591376224446
Ni 3.959494385005344 6.896913643452742 9.048478485029309 -0.9155094148096168 1.0382783052094378 0.3737550959085434
Ni 0.8969281323835063 0.41761232854767383 13.393573431872833 -0.23394364820413904 -3.297081392568477 -0.5154259654191897
Ni 6.158243688567416 8.331032213044972 3.5551990782287173 -0.23650061029803787 0.10853937706400019 -0.7513797020748221
Ni 1.9789872056149607 3.079672018840456 9.305717727782694 -0.42575488601460226 0.7465709678322691 -0.7654606056479204
Ni 5.079976157281278 8.405911902717621 5.656224325522866 -0.8316845097731612 0.5420636226113762 1.342019948043321
Ni 7.948175996495792 6.549772148129743 12.666895417326115 -0.725256522625209 -0.001958923498583723 0.9614671124866537
Ni 4.0776420398188495 5.277246373349134 12.866826053750584 0.6334282876683026 -0.15514833517179086 2.4107773956782226
P 6.743629416947263 1.4583169250966548 10.955400283704275 0.09477703317258517 -0.6165019442266092 1.3506130890289707
P 7.122848886426415 6.853477828447113 1.1726560377413693 0.14499556300850514 0.34750336130086606 -0.20819944936049947
P 9.180399153746489 6.966328887527859 4.475529211758236 0.7388370895231212 -0.3290245857703882 0.6275998539119837
P 3.726015223109482 6.681944591644078 11.590486357042689 0.01968050914806288 2.339632142991964 -4.284895627590092
P 7.270817867214159 3.7401519117201585 7.661507077452634 0.7428773210307658 -2.4284303328732952 -0.7910212277258442
P 2.3716066892982965 1.000655618814723 3.266105661138873 0.019247021155070078 -0.6752855900237208 -0.7582265497933265
P 6.266861201058949 0.22649474252290872 7.464702178509892 -1.0856354543371625 0.8760254977823816 -0.14696451380941786
P 1.5234613226126101 4.068904521858293 6.808175149945536 -1.4318074984211147 0.8169004094854512 0.6410955744055733
Ni 0.4214131954854784 0.17195752396120456 9.070780137061826 0.7328597888937637 -0.6347241236615907 -0.662417218701485
Ni 2.535558707209194 7.3578480220977 13.192646886250726 0.13660245384880343 0.8154425939930021 0.35970633112496114
Ni 5.846332014861262 7.367937663968909 7.6800143900420865 -1.5198631537094665 -0.8818158792119135 -0.0006402046871601877
Ni 1.8938033992438967 5.59950878871614 10.196322582760592 0.6762183862506355 -0.3872976104796685 0.5444089829151012
Ni 3.1474926892002535 3.5749969697784056 11.267723189579117 -2.0143649673814794 0.925153365657284 1.3346663358917272
Ni 4.0473171642503 1.3123901176636192 4.623597037466345 0.05117163777780865 -0.5629530644658757 -0.47024242690401596
Ni 3.5014694040164094 5.257253589456462 4.7644995389472475 -1.1906369934512335 1.956885899328404 1.1487287832532218
Ni 9.023991054757781 7.932062409477817 0.7318412628869103 0.6197078527584166 -0.6539063530169964 -0.1834726360377808
Ni 4.038850071071874 1.2744373982404962 1.8945428711481358 -0.19211205688033364 -0.41272530652415373 -0.40086146520703225
Ni 5.044364010972456 3.697891045767924 4.494322801617047 2.695527327900951 0.07382382795968576 -2.3548443319560284
Ni 4.645981681931997 1.979994304803584 10.99596306852458 -0.06752411099390307 -2.088239188963126 -0.5381650588879184
Ni 8.428207959754646 5.569109313207692 10.631135792450257 0.2003799533160807 -1.1119005586812787 -1.2648038065726348
Ni 5.9858152524856045 7.180868989682108 10.439899779020902 -0.09640685546652429 -1.6376613303675733 -0.9914595450836862
Ni 1.4278148746708474 6.242467020712292 6.23447923214771 0.7218382409722793 -0.18809830773525024 -0.5010835806545887
Ni 6.9992647609928405 8.537515521690235 11.915024070576584 0.9233502510102742 1.2465551447750918 0.659991897089444
Ni 6.126753188937959 5.756942636878446 2.8332842698444884 -0.4155301229628005 0.36896821604286134 0.21229804490990534
Ni 7.782918479636679 2.6582756083414543 4.815107205674823 -0.3396476127018731 0.6821051840487157 0.46912553969075343
Ni 1.08667867450964 2.5656318079805875 5.480682274449561 0.08605379436697437 0.688038261703699 1.5236755854770212
Ni 7.87721280366779 3.3571837952611303 11.91052009920524 -0.3328372746482591 -0.04457213018342001 -0.1505162357164182
Ni 8.05969358165086 3.4824184443649497 1.0857806777331174 0.2931003610699533 -0.10333417871397688 0.0487242046785806
Ni 0.3270330815234848 6.446563131280817 8.427423727886467 -0.4089979782712375 0.2197303328182345 0.2799805358585436
Ni 5.4835431821446505 4.5696099934613885 6.7024306676393275 -0.22353222306282794 0.4448880072996273 -0.7770938190114746
Ni 9.059304801307011 3.572656396664105 8.948534148050172 -0.8556914142107198 0.34913498336701804 -0.3658913768897505
Ni 3.5556755853448156 3.201745495491096 6.0039766078537795 -2.7565380632563685 -0.4063122039089583 1.0966824561799438
P 1.4952345703536927 0.7301907392166664 7.02276374206072 -0.9904367602461265 1.163487943840267 0.6376392404258567
P 5.903736668612797 6.376010238122255 5.159093123540136 -0.1561757479950407 -0.521570901974663 -0.08410978326672611
P 8.313855576883451 7.59754695398256 10.039109736920235 -0.45373440194666376 1.2847347411686068 0.5095679639765159
P 6.4811775033935035 5.043394211753782 11.389736986277839 -0.3184776634924773 0.6078095586589339 -0.9364356234393226
P 0.593075117184837 4.027091255545447 11.089588790594355 0.4792196907019618 -0.4528946796541878 0.23503251039294362
P 1.4664669685305147 6.704986648080083 1.27372496881447 -0.7702009485463832 1.168598525593955 -0.6259378928285284
P 3.0292331344769 3.692407950185419 13.555576526353896 -2.336394609891273 -2.328502865848022 0.21918577316867413
P 7.374092159010496 4.012273842483201 3.14813145118563 0.7200261274642051 -1.0652754026235718 -0.11947145059547168
Ni 3.2423931377430355 4.960299203699862 7.5296395611926314 0.10690466967405458 0.7790434865386776 1.1746696714886995
Ni 5.477621811915244 2.15631126275258 6.215221257663034 3.6149378775371868 -1.2727690841662984 0.9607027235168034
Ni 0.5382534863522717 2.3180998824064343 12.723398344304133 0.8617545896856642 4.278894929921967 -0.7447411137123818
Ni 4.064885450096287 7.2052911450062265 1.970822242193121 -0.11187641185703312 -0.4969333059316409 -0.6720403436135457
Ni 6.435540990160883 1.8347575468146051 13.58981883126634 0.3178276886133043 0.3951564444024549 -0.09916127828320986
Ni 2.653296062353261 3.1183520876775845 3.7048773301393747 0.13959650348012087 0.6905080634004301 -0.9126770875671443
Ni 5.3462886177247615 7.180085690313179 13.465348831546473 0.8677000086358218 -0.10320793754875775 0.7142866538772666
Ni 7.646130164841153 5.661678513628661 6.849460621683605 1.3759271423137271 1.106540837031262 -1.2936839799420947
Ni 6.825558800940275 9.055173829635157 0.819243484970692 -0.35512925327724 -0.3171005806392926 0.9389072249082667
Ni 2.1019558815443773 8.924530684888731 11.178192071710495 0.7935319099628397 0.049185717696031424 2.245326650139159
Ni 1.6862383914701131 4.837507702627704 2.0816852128755845 1.052838976632432 -2.368466550725153 0.09500380447141057
Ni 4.678814980479618 3.549036190693891 1.2123264207806443 0.8377736533900346 0.2074414881485524 0.6070793653611287
Ni 6.58981366587001 4.903407424535128 13.57561127271276 0.10826066948131677 0.9506255417864595 1.9296987973906508
Ni 2.5363420065781233 8.744409130004936 5.82137926746462 0.6271349984604232 -1.020779634204042 -0.02677958208668936
Ni 6.423474449882377 3.144518016596819 9.668360158117256 -0.5877626673103878 0.9220035071743928 0.26340874754279153
Ni 0.5286459465926541 4.755018819085456 4.554634055526859 -0.3892925294225102 0.34468440379483223 -0.22241276474640406
Ni 8.672215038168616 0.7868363385797387 11.56615185664795 0.44373641019368737 -0.5792715991202411 -1.1289914527252944
Ni 0.6811226287487366 0.8033294527919446 4.444507759250889 -1.8285210028980445 -2.841803557394093 -0.09176961380482905
Ni 5.350988413938338 0.25472615727806974 9.654207617019349 1.1579806408687927 -1.3376297893954254 -1.6770331472969764
Ni 4.684764325686485 8.699910265855761 11.866532244644366 -1.6387949297513842 1.1747115804702286 -0.9436264847608071
Ni 0.30049601790325775 8.245503381951881 6.538216617439539 0.1404349402210162 0.4706568887336153 -0.789007539729925
Ni 6.484086901049527 5.331116854948 8.770631008879095 0.31608345222868783 1.7037165701254338 1.9542859998117115
Ni 0.15590734689214325 2.813909732953721 3.1512161587004135 0.05239368311036783 -0.04907233204661871 -1.3268434974131988
Ni 8.36438771117188 1.4230498035098607 6.950661035150776 1.0011883423356758 -0.09013182109108993 -2.7806516684751212
P 4.009765419504129 2.623996935958309 8.972895690923123 1.216480951097531 -0.7199196837933279 -0.6742496925600389
P 3.526339158979915 6.962878640307576 6.815804858798607 0.08674876355146995 1.1033087032472095 -0.3022066942465957
P 1.3978350238243265 1.4435461369968445 10.553997589597195 -0.7672148693348658 1.1056602341985216 1.054856778393409
P 7.492799313373237 0.6024635196210042 4.527488069897214 -0.0774645100360666 -0.9147347414271214 -0.38397985896034514
P 3.957703986447791 5.052970979038191 2.6955755782904696 -0.3367957450753748 -0.1128968827017475 -0.08717556667624342
P 4.366493007104025 9.174198033742465 0.30987975784318134 0.29594528671791615 -0.42138118242693884 0.387008875594656
P 1.840688242036499 7.647827313473832 9.552678963816629 0.12817180658294702 -0.0717350637514571 -0.9714476207381334
P 8.813050399703613 1.468061542245835 1.134862775689778 -0.2737039588212125 -0.8602880324424667 -0.02373436750246235
