# total energy = -381172.40119178593 ev
CRYSTAL
PRIMVEC
9.25713808853853 0.00000000000000 0.00000000000000

0.00000000000000 9.25713808853853 0.00000000000000

0.00000000000000 0.00000000000000 13.54875731843165

PRIMCOORD
 96 1
Ni 7.243673621191191 2.956424458884093 3.1569960953503027 -0.6141532414887746 -0.22195305150116615 0.020877614779957594
Ni 0.10877044825997116 2.0872254666058616 3.942295792598809 -0.06078139295343081 -0.6288316694365557 -0.8075037987618996
Ni 8.835031222411509 8.10814221584384 6.512331931144256 -0.5579622961195035 -0.06775628160936718 -1.1042859795588142
Ni 3.1819468599691594 6.166133476346649 8.355369828891147 -0.1382343330252716 -1.7472926549441716 0.7907576896518124
Ni 7.192102104220298 0.45308507543173404 7.5715197994864125 0.92413752279826 0.17990703017370951 -0.3938415822457733
Ni 2.3787234917174143 6.042050795772631 6.070778472781385 -0.8842394010517417 0.32305268445766944 0.7012457615329084
Ni 1.260424167331883 2.7025474434601566 0.2679867454844345 -0.2591900814757536 -0.8816433581897913 -0.11707286845630806
Ni 5.6057711290483025 3.4923664755830464 9.680587483700034 -0.1647408639562324 -0.8518018493483265 -1.5705905048610047
Ni 8.249813459017874 8.920669007997173 4.141204847042406 0.24564422447051887 0.919274538279004 0.5458637130837567
Ni 3.3032153705271745 1.5292699752422554 12.69025437300202 1.4453633827286785 0.07444629203503307 -0.21843783925905608
Ni 1.678985671521246 7.810988079285649 7.803569408723727 -0.34985926312755233 0.78439883731332 -1.1038188101144086
Ni 1.6202028438843457 0.3487293563843673 -0.4467985528729594 -0.48858236286378437 -1.7405460802489572 1.3744191903096328
Ni 2.942529494430079 2.2637683494189846 6.943670137491799 -1.8394595041874193 2.5310098928094344 0.38207878528289035
Ni 6.069581524810763 8.596021170953692 9.460907262539635 0.537500428720726 -1.8869652630778662 -2.4572025199099814
Ni 4.7161694041540505 5.294842370832836 2.334790039484034 -0.3052503661689259 0.026133978082890474 -1.463399671405099
Ni 1.6903349229673625 7.888294440481832 1.1035730689202115 1.7746227102176921 -1.077604613612886 -0.018986825515147944
Ni 8.746051609931841 8.729009218486246 0.9597263982667001 -0.6739229053482393 -0.024094836165674635 -0.3072026047992903
Ni 7.0659180532724895 0.0011525137072116705 12.886453863091393 -1.1910776805330778 1.1497806215565036 0.5997890023473026
Ni 1.16978752711253 6.348119556427566 3.863943374784836 0.7583139673008102 -0.153904949682993 0.1334201994660799
Ni 5.117577431239291 0.39099652373985133 11.083384585282309 -1.2303841914421842 1.2809662752651099 2.0110400167733045
Ni 7.611580065092505 6.702621664200024 4.766574521710417 0.7761219420165085 -0.5259281505020942 -0.5528049202882802
Ni 6.216483051073751 4.642676983900609 4.597106869631607 -0.7081034078846902 0.08269207698359307 0.12565675347057714
Ni 4.007581759828611 7.562665346788035 10.012897454040372 -0.11234152441890974 -0.0532989685334566 -0.02287587615690899
Ni 8.846556359483625 3.7723486207606927 1.4242051594079614 -0.2224464461978169 1.152962104608279 0.93357475695176
P 9.527816931811564 5.698453596812183 5.892517465116387 -1.0373123417517425 -0.3786345354880318 -0.38141878310138827
Ni 6.1307064084149285 4.2849348777544645 0.4794901364634655 0.31126751889728327 -0.9025343427061876 0.6028468153370199
P 0.14934355932292723 3.4445903852784725 9.73915832287191 -0.8858553393886098 0.3008681779408302 0.3682580773497141
Ni 8.08879479698382 3.295411603015693 5.815858177881122 -0.6109385912062187 0.5069919757192236 -0.09271552265786613
P 2.50138983014522 3.5240536596777092 12.284685262291145 0.7443145676979245 1.5539984048302786 -0.7094151847175783
P 3.8340474469339116 4.155797799717495 7.701614991328173 0.7742635486515311 0.02384878159313957 0.13385600145191787
P 6.271942566093069 7.337374374158233 7.314947105415568 0.6472040012961563 0.7941988541228774 0.4960832992265198
Ni 4.228059020588935 5.3082744783763225 13.046531999883259 0.4095651636286172 0.7756455166007222 -0.895955146826773
Ni 7.151491038890679 5.253518505861005 2.459167097053147 -0.3081639402712951 0.8166312149844647 -0.020824907165151233
Ni 3.380456931755883 3.703540312441782 0.8717993224015709 0.23422929776535786 -0.5207764310978256 0.38978309590568355
Ni 6.467712524969474 4.34258833452968 11.696141409138464 0.402800591211274 2.639895854579576 2.1022198195129347
Ni 3.684692779045132 7.924406536641131 5.0723026196792045 0.01861992909403245 0.2627502880231862 -0.4969052809071829
Ni 6.215224080277118 8.692730493839157 5.548297260754372 -0.26085975586869264 -1.072839845234391 0.40571982174059806
Ni 4.751994529028823 5.854408604245076 6.392073374365009 0.5758070376104084 -0.19950449268966286 -0.39726397766376104
Ni 7.9794309661645535 8.747088409411422 10.841593689506048 0.3424570571262102 -0.2920747480189163 -2.0573898076824375
Ni 4.245305069075163 7.630103598651786 1.275363336976045 -0.687814318618351 0.1434531582220497 0.21392503899036708
Ni 8.919484094306224 4.395335508053311 3.8558813331172805 0.45171274353094465 1.5819049014325595 0.3903073438402697
Ni 4.59445655096193 2.9723282223297933 5.427740624124747 -0.2432155604243682 0.10099421772689057 -0.8146514655502745
Ni 1.4904177661726377 1.755357061758164 10.202011530543402 -2.3321258073125897 1.160946408365336 -0.00016866436738035466
Ni 8.988588631047872 5.885086760274791 11.14745694169271 -0.35159912863679443 1.375766448366147 -1.2349568984145312
Ni 0.5340979947674145 5.621693406770423 8.257276563843208 -0.46441347892706464 -0.18468619672990771 -0.5623596538562509
Ni 0.82631900237321 7.731395204951466 11.906417303590779 -0.1391617299355474 1.2824423455900043 1.1244969072890503
Ni 3.5318203986363486 2.416872158283031 9.877681213340544 1.595419905199859 0.046243861458888105 0.008372283224095257
Ni 6.239477782388721 6.647791634579022 0.6215122251756802 0.47310277917094656 0.9916459500628793 -0.2078708623764872
Ni 9.210148976978829 3.9108816940813567 12.019658023892617 1.4316015530578956 -1.884918922071799 0.2870125030046605
Ni 8.32301890798679 7.448219347091184 8.564427483954956 -0.9079889380628555 0.21303055220055572 1.522456368357939
Ni 1.672246474903976 3.342261979499213 2.671287013437 0.6371432746260446 0.6511976958365817 0.40417870250572324
Ni 4.944894775059962 0.8103995017925519 4.080303060469114 -0.5763261433386719 -0.09905714860517778 0.1314432782453672
Ni 3.4634471758133336 7.539707644025906 12.50093756517218 -0.6877389852957252 1.137298429929093 0.47941766564538085
Ni 7.807572195285962 2.384037089050262 13.496960276648569 -0.6149543972338312 -0.5679757144914477 0.2673697890730686
Ni 0.9632422593590616 9.307034185490293 2.7789179079832538 0.9646341973607259 0.570521620841753 0.010185168063117943
Ni 1.2671263353963107 8.571017640647035 4.965443770459708 1.01599275433836 0.43248063477421 0.7541634354675464
P 6.333743220786603 1.4729032606783046 9.400385018632976 0.023190579183850382 -0.2578739337674914 -0.15367149351594825
Ni 4.22279170894714 5.152152842455642 10.606252241921068 0.1796787162129873 -0.2539573723219046 0.41994522131136064
P 1.0403634777910329 7.291653368536397 9.7394832484231 0.2237055154158986 -0.02659086311465098 0.821250716034347
Ni -0.06812235437750974 1.0068618946071048 11.954421119495333 0.3793672998889983 0.6382323939251654 0.3573637990347136
P 8.851370071353104 1.5398601413551076 1.7850622925619513 -0.28854153805467725 0.3253021426134785 0.3203095744948935
P 3.047801670160289 0.36048962476703156 6.322256963694972 -0.38681989951230156 -1.8187335844939776 -0.9020121516541304
P 5.010500113558027 0.01929835602750337 -0.02073506387777848 -1.0009510295138893 -0.02563338429738811 -0.5758708009688083
Ni 2.1956265550512324 5.9553854678455975 11.254736064986963 -0.06768609049306408 -0.7230903682118256 -0.8837290370742265
Ni 5.431274073779709 7.051828688916054 3.6576628611841895 0.6131517968074538 0.46131684227961195 -0.35262448457751533
Ni 6.726329195157204 0.8179172237333279 2.5992211181818017 0.3650143736014359 -1.05245125427571 -1.2392956349992013
Ni 9.341563311015591 1.4346064799013192 6.102725782459764 0.3165591063135258 -1.6694877308495506 0.4715305495878202
Ni 6.080810433460142 3.683850379467973 7.077993064354311 -1.9933055756080187 -0.9290598998005419 0.7040757747825358
Ni 5.635032942931805 7.248774304345197 11.674747237020098 1.3088421757397717 -0.5420175998647891 0.07835436884018762
Ni 7.483951900583851 4.810758842389302 9.84275217944455 1.9454982263167528 0.32686383067364355 -1.6227731004018309
Ni 7.302521248795566 5.475106623206593 6.806163680798684 1.9742752984494452 1.2266023558022487 0.6356633476464085
Ni 0.2559746829424436 0.5293268657337045 8.25940385420399 0.35075657813084105 0.1270927145861553 0.765767852475694
Ni 3.514629892979384 5.114809546914341 4.312583172447871 0.18341170089285833 -0.5242389357251294 -0.49959748302736534
Ni 7.803915625692801 2.8938739759955046 8.43324828122874 -0.05143954672721463 -1.160562542663356 -0.00925957092505502
Ni 2.807291962312366 0.5363835821915957 8.6042877953757 0.02722026916853377 0.17967023157255507 -1.1190947624368726
Ni 4.995947892291065 1.2894267813454907 7.45926866725928 0.3418191664318952 0.09956494147953175 0.30879977408308107
Ni 2.9642282263955746 1.464081207963664 1.7044066987611974 0.2633508977216626 -1.2846666069348327 0.39327131156460016
Ni 1.5969489126994802 3.7033273982629398 5.278298013422967 -0.10635728181101682 0.09320943157514915 -0.13782449918136264
Ni 4.194511151713954 8.137783572393975 7.527947375643243 0.8578696528089612 -0.17415547240191295 -0.21987148638178905
Ni 2.497659203446375 9.125909019262956 10.668115845154434 -0.40890027635110876 -1.1980458843207948 2.193785030616441
Ni 5.651482877531927 5.757245681587294 8.865819538385928 -0.29450881138170576 1.2215246841690255 -0.9477554193275161
Ni 4.937239121759849 2.838062689724186 11.802729024208391 -0.6953800467807508 -0.16220704179078516 0.8554368749977526
Ni 0.7163358690076587 3.2703617870179835 7.5051174213884195 0.14471994074961528 -0.06280536536199507 0.22042555911304618
Ni 8.261958824350097 5.5502097855086685 13.428728688040174 -0.33474760429709444 -0.3619858711877572 0.004383473779676322
Ni 7.626354457676519 2.4344329494684174 11.195310791958251 -1.2745074070136437 -0.9775046255654906 -2.450807415016915
Ni 1.6844381259272514 5.577323943327327 13.57395837514234 -0.35851102526527934 -0.332759113112156 0.1560919300319828
Ni 2.0719604456966887 4.261782775089916 9.384573826569381 1.0864713199748965 -0.48802314792620466 0.24239049341991156
Ni -0.04423893779432813 6.3861849087492875 1.8079052068102688 0.8272303306565495 -0.30824544424150785 0.06113774785158504
P 2.43949660406958 5.356217197168687 2.0945700800621005 -0.1367441216329903 0.47340205557892023 0.618652929131341
Ni 2.6574003804073754 1.554865962394386 4.219475802040126 -0.19936051091263085 -0.2289557080712444 0.5200446951381238
P 6.914138015172548 1.471255490076829 5.220295562537214 0.2606756648823446 0.3508766486484731 -0.21881604853408124
Ni 4.723186314917637 2.948907662657138 2.9128612921791346 -0.20153900662118837 0.38812447725633803 0.5900728035008032
P 7.610830236897452 7.545428555440017 2.5747248790490826 -1.1521961729765318 -0.18095912558730767 0.3348656179321975
P 3.3166845066235036 8.655220569810067 2.963871826574469 -0.5193340422243442 0.8441379050451655 0.5326245886856633
P 7.814829791643023 7.342391743068342 12.365679667350403 -0.10856405965434851 -1.0458491755781603 0.8102800759554563
Ni 5.291556086768096 2.0475308579590856 0.8527453548228255 0.323943571703055 -0.8688163816284522 -0.7844206916901909
