# total energy = -381173.4015976331 ev
CRYSTAL
PRIMVEC
9.20253936791714 0.00000000000000 0.00000000000000
0.00000000000000 9.20253936791714 0.00000000000000
0.00000000000000 0.00000000000000 13.46884657187718
PRIMCOORD
 96 1
Ni 7.345485269317281 3.2004775206447773 11.507082435574555 1.311355686190245 -1.430989887615826 -1.1253145180943394
Ni 5.0252306321157905 0.3179541743751589 2.5951372466663734 0.7495081960837221 -0.13367859533378912 0.3226294808773218
Ni 2.3698563239945836 5.7009454848349765 0.5266143908285804 0.33071251499577237 1.053129254179341 0.13630574854399108
Ni 3.2084653247517174 5.661991136004706 2.9807503304367415 -1.0862188376444584 -0.3226549347986185 -0.8308663847472401
Ni 5.18011857096821 1.7317338442901997 12.06644314222587 1.376416680355636 -1.9752872846537273 -1.142831186821864
Ni 6.08280485282744 3.5712846389454964 6.7102063742546525 1.6545215964580213 1.7989592300805275 0.047030104805609325
Ni 2.0519361990148117 6.060875201690531 4.952037315589345 -0.16708108205363484 -0.5130698064821873 -0.6186369882917411
Ni 7.45186662355256 5.7993298324240214 13.193233341981225 -0.4437598072324551 0.9966392895124125 0.3640399255033085
Ni 0.5136314483930153 1.6763989755171262 4.367448767718255 -0.16046923316407202 -0.13364362833079563 0.0662645275551891
Ni 4.954269851621999 3.471584328237451 9.53574115544012 2.946940336534447 -1.6696152575663505 1.677706519214917
Ni 2.7656759440956047 0.8495406971841304 4.9270248137890436 -0.2928000562207151 0.08690148707925034 0.03551284819462916
Ni 5.028341090397064 5.5753124183972576 8.341310451368143 0.00011981340731592269 -0.9153703181285913 -0.5721090199335309
Ni 3.84214297797724 2.4301421589076733 3.701131548125804 0.8996259108101411 -0.022644991093025518 -0.9333726682432828
Ni 0.6360390248082884 6.428038114430941 12.419906234719736 -0.3079950187935986 0.09224783899282822 0.05250475476693539
Ni 3.007803955452388 4.415902897861422 9.129332173373827 -2.3871558996045406 0.6322311820364079 2.5534576802899895
Ni 0.14588601491531342 4.441642400265927 5.429454011099827 1.219610754975764 -0.7655845328202944 -0.4985219905749995
Ni 6.0870104132846645 6.24560697547245 6.418592628099878 -0.4968147780759056 0.4955896474195529 -0.5942446754903057
Ni 0.05526400922051194 8.26305205721444 7.992076845933666 -0.6076761184048631 -0.2908239063309508 0.8793666463404726
Ni 6.029945467124375 8.645555602957463 11.30904931149751 0.013341968524544763 1.0107973261803496 3.098060267273136
Ni 4.1683361857820564 9.137587771374214 0.15111673824985775 -0.9812000721392068 -0.471712069471007 0.3956894340877895
Ni 5.176290314622027 9.102323640800721 5.1514839497019045 -0.00440378549465048 0.8635345644042226 0.7033378681752467
Ni 7.0635654780545 3.575600629874246 0.8349859610371999 -2.080148698645508 -1.2001806712756105 -1.4287016058022814
Ni 0.6732218848245206 3.7715871092123714 10.2562576504568 -0.21544687495153217 -1.1376398724289118 0.3940932932452632
Ni 4.173765683965345 4.2605364269657295 5.165249107977435 -0.42460071780550096 1.2167784277332916 0.07078324136114907
P 1.5053697827435406 2.498250152220415 8.216656535111275 0.9280797952754597 -0.4587028016955326 -0.0246188269899447
Ni 7.314656762683356 0.37033042676530487 3.879122461875081 -0.19167934021828922 -0.7492585419667612 -0.6463398535236482
P 4.550195553774521 5.394730989836803 10.513929670934587 -1.2446381302580372 -1.1812601802220235 0.07522945005796075
Ni 2.8013725940159024 5.253683670082122 7.0973949327521035 1.0456347455745088 1.534982525849408 -2.380467688951087
P 7.783507734619253 4.900876718639897 6.782089249185675 0.6511231338449044 0.0023877835058862106 1.4581291670347791
P 2.411635852388024 6.799047688596122 8.51318627775675 -0.5364714732355793 0.6947424131967518 -0.3214786551023302
P 7.086461395817248 1.9609322879393214 2.2209859255863207 -0.5063137187052764 -0.15482797571789464 1.2673620542181143
Ni 4.471881944385055 6.446645648882821 12.318297317362173 0.3833208852201076 0.6687328765068676 1.818045300177701
Ni 0.9164109489618684 0.7534505426410069 6.636101086084201 -0.6609696876216811 0.4194847367351744 -0.16504965344590283
Ni 7.428271312803489 6.485894478970492 8.505091724194003 0.19656932132073887 -0.11841369875491865 -0.9551218869949164
Ni 8.424510609122567 2.734175652093238 7.380254303276774 0.7107236191163567 1.0643251228951605 1.2652956586073887
Ni 7.356730772334195 5.122455459753827 4.549048917378524 -1.9333615909542186 -0.6970564060419091 0.8150150195372802
Ni 7.675764404568505 5.054559124844841 2.2252154126457095 -1.2983986118089446 4.506742749641012 0.5059823035077866
Ni 5.529686228579047 3.8231949495714925 12.362623188378183 -2.905575143324099 3.840184769298277 1.6657591170450536
Ni 6.994288762251457 8.9374877569718 9.156162176684635 1.0484850705391104 0.354603462680757 0.3300172887009607
Ni 0.5001800967074007 8.54985839684218 11.162885379895526 1.9917675416969378 -0.7461847881374439 0.005156090279642733
Ni 7.897407563457491 7.224628320772998 10.688849697321551 1.4998710268582556 2.018918905300749 0.4245883765103269
Ni 4.613665467283233 0.5663629187998985 9.453783340490345 0.65234209385367 0.13572210812637914 -0.3565366751477279
Ni 4.215443984426554 7.991337882028382 7.703897487443303 1.0082161957167346 -0.5608020795611438 0.4374258945946273
Ni 3.42439370673931 9.024580588847465 11.29206510497704 -0.31339125010850544 -0.2994435296791617 -0.22317561105435757
Ni 2.5716404030877458 6.596665444448869 10.71325483152847 0.42194476823989263 0.4360657810223071 0.11383199292150718
Ni 1.35772424231527 0.5452918645790926 13.781189098979882 -0.4117855683187038 -0.7730633576958429 -1.9391787118566282
Ni 2.720104969513157 3.496302348780354 0.9249380218714193 0.2881247622322328 -0.9671831890348246 -0.43765395144503333
Ni 1.8703977063678103 3.02817837744866 6.092686539521026 0.7840406826429529 -0.6010910089881777 -0.01737191561954428
Ni 2.0750069650241407 -0.32508890308957167 9.209984147997824 0.514198777880308 -0.34948542472790134 -0.19825493655327792
Ni 6.679663146338832 8.50373526990211 6.981105204459289 0.5143211623907852 -0.5758358339658146 -1.0935184566296652
Ni 8.258524407881936 8.458477181655649 13.3824035004645 1.1208875926712372 -0.12968952877905404 -2.839004397382401
Ni 0.15548426339865212 4.314665763091327 0.8254153201717424 1.1396563886383082 0.6030422191772775 -1.541542181344797
Ni 8.725967391305893 0.5088442874524278 1.9978740414260583 0.6281474988853375 0.5942379906220863 -0.7802495910316368
Ni 0.1492670278518222 6.61120545653293 6.3593558826662715 0.1761665892946708 -0.9157482702933003 0.780439852665572
Ni 6.366638772263313 7.255834131517966 3.805676075518058 -1.3212426062866536 -0.21729832633797416 0.9470046572044207
Ni 2.6999974211564024 0.902461739900464 1.9953553064213703 1.0245357588123645 0.4004619157757684 2.0338845254716458
P 2.4086818372747434 7.836403930479493 12.74193253273236 -0.8472548534075924 -1.0574350806435466 1.0025736527189766
Ni 7.6474389886224685 1.5590205868258653 5.7612589273659465 -0.07053333013387209 -1.4958323380125076 0.2222528421297721
P 8.455661204631774 8.420617935001328 5.760666283835431 0.2889853104603152 1.663550282319193 -0.5729957934138583
Ni 3.5168332139446195 8.129283946041083 3.7654720218517017 -0.5426140957982074 -0.9457401886697002 0.06686745124651064
P 8.783943388856262 4.553333619673675 12.050603731593537 1.703633009272692 0.38808385382638966 -0.06032887879704449
P 4.582928986042244 4.557207888716326 1.0791256474835877 0.4009812786143482 0.3960617298255437 -0.14365241871704937
P 3.156572205674491 1.7292767662987794 12.422182022687071 -1.9836863073507 0.7476719142059317 2.0298216682561816
Ni 6.654310150584664 5.564609865198675 10.770133886395028 -1.2772104077671034 -1.5504441118201167 1.38013552396812
Ni 3.2065788041965066 0.9285914299710218 7.389696108592119 0.13268846350637795 0.6095651078974599 0.023218861318624526
Ni 4.725881231430724 2.1592930224152234 1.06512306369428 0.15427801675169558 1.168554045509265 0.07528395744498002
Ni 5.383669537605764 5.070875227012588 3.110670859931399 0.7118091388710516 -0.8390139535550389 0.06631929205252449
Ni 1.0752983113913341 1.6307635831596223 11.41558802915471 0.25390132227298856 0.3095384520213185 1.176654306018896
Ni 0.21040133688779122 7.179434650301593 1.5235825282597204 -0.03397507139386407 -0.10057512791160099 -0.29858041034791805
Ni 7.145688938711561 7.924950763563563 1.773025638101073 0.3675417680089799 -1.0966683151125565 2.4058030823920826
Ni 8.529566797699552 2.016929739541542 13.342239017717107 0.800816102329079 -0.41779886439231917 -0.01956043863043083
Ni 5.931496701760273 1.444752656415878 7.610679445413747 -0.07163401939721857 -0.10669512476640979 0.5338983131917644
Ni 0.9633770285012427 2.472952371702008 1.8850858793344996 -0.49826410892792256 -2.370006127298131 -0.8097275458860959
Ni 7.294493999090838 4.1407009602830485 9.207303448301568 1.086310626027316 -1.432131714529753 -1.8065884644910115
Ni 0.5752663755665622 5.9349936666918826 9.63480465042904 -0.727349914819128 1.9736044976346654 0.0481081683611365
Ni 6.478311586592475 0.6490615381628164 0.539913900615849 0.3710757493041674 1.6321470854175633 -0.7213299338772932
Ni 1.773025638101073 3.555695537381953 3.650865437995706 1.3622041363006796 1.6329721524220198 0.7533103434386317
Ni 8.720970412469411 3.495464917704626 3.231890388523854 -1.0829738483445994 -1.2998003772524775 1.2128693224868725
Ni 0.18346274361331624 1.2458581746609407 9.252747427841761 -0.43401018404485897 -0.39084444729066237 -0.2631508658957145
Ni 2.480185567586864 7.983994255672001 6.249989224684114 -0.7669220206847953 0.051668632018885205 -0.16496712103442557
Ni 2.452669975098673 7.688565136726054 1.7340335588596978 0.12571691728455123 1.0714234245028387 -0.6142499149676388
Ni 2.5572200240145038 4.438071815019967 11.995220089362206 0.20389516555819076 -0.7381426345592578 -0.7586122152675193
Ni 0.8826192246753681 4.50603256770401 7.879261996478156 -1.8322622151080317 0.20544888319855587 -0.4646309942545095
Ni 4.043236866623373 3.19807565788912 7.47704201029836 -1.857766015806091 -0.1364607860646166 -0.012824919678810172
Ni 8.050169715733064 0.8299484910278234 11.173418606371104 -0.5036929932529777 -0.08212694850874243 1.5168441643774846
Ni 6.366243063073684 2.9384996320314634 4.403989290491786 -0.41457572946933113 -0.6293109230658194 -1.6024811829220145
Ni 8.756575036996772 6.763222203125712 4.005419031395876 0.008791630149700988 0.6685631836982228 -0.05937242842104613
Ni 0.7215416578939995 8.62493271240026 3.6648054445178166 1.5306707858479318 0.47802309929069936 0.3948065172622039
P 4.726129699991653 2.0907801173735585 5.810527482236607 -0.40995082910281005 -1.4890374265778614 -1.5249333691435218
Ni 5.237128301892739 7.338500541993357 9.804929233590054 -0.6310811275923648 -0.14180790930914286 -0.6819264923790063
P 6.517882505555424 1.686843857615486 10.083546233500323 -1.5413002405373197 0.609051401485835 -1.392600232094034
Ni 3.129397107140168 2.2271249395491544 10.398245469727298 -0.5207239805933355 0.409018804206844 -1.3250072155354085
P 4.395353627618569 6.641987950470386 5.1044911827985775 -0.6873299227827647 -0.28602648494230737 -0.4446167559161117
P 5.977573816003876 7.837719893598493 13.57390374189694 -0.09617725595422146 -0.9743786783419993 -2.7836125508756577
P 0.6707657270870296 5.49284846378633 2.714982836142278 1.5915007726511108 -1.204399080232332 0.4152218476937623
Ni 4.82632694782156 6.968328398903902 1.645597156247152 -0.5142252602428692 -0.27347178820574836 0.12597325626973144
