# total energy = -340889.7411751257 ev
CRYSTAL
PRIMVEC
9.08656725239737 0.00000000000000 0.00000000000000
0.00000000000000 9.08656725239737 0.00000000000000
0.00000000000000 0.00000000000000 13.29910965817676
PRIMCOORD
 96 1
Ni 6.537212835599544 2.013219887016424 11.564400808470474 -0.3017238410729062 0.10642053094878445 0.09888642735526841
Ni 4.5317165309263405 0.4493771025202471 6.165972944003794 -0.32415620193449335 -0.49759845031946565 0.14909647255075612
Ni 2.412901643426897 1.5051353807769838 4.64790556041402 1.5471060485858195 -1.2239615757452922 0.14425662795995153
Ni 3.3886354306971516 4.584273237130092 4.896094246774326 0.37039774940053627 -0.41447622777698934 -0.5619459633575999
Ni 5.334923661783972 4.742815666217754 2.8653200200768807 -0.44458770245038914 -1.195043092938729 -0.6010326449464165
Ni 7.229291246389425 6.357843993887574 2.526670919999283 0.5212996505911475 -1.0425496788912818 1.449667409420671
Ni 4.882140005121991 4.68089070896005 11.268628494278705 0.3508691924493054 0.2181128518194695 0.6689388218700866
Ni 5.605358082606245 7.997724083567638 12.326585721861393 -0.9887807126999422 -0.061135948079372136 0.4719095301937937
Ni 1.98545133685068 6.711783969691255 0.2730822465808783 -0.8608086808326271 -0.5272121594208404 -0.40346779248162773
Ni 2.8503108279421374 1.8899151665487726 0.3228666410517859 -0.1771675197553594 -2.0195953625424834 0.4366319379384222
Ni 0.5395676451838999 -0.08424156694588042 4.650725122297668 -0.05577134133334911 -0.5464129007190073 0.25950864115743694
Ni 8.709374960671987 2.0255140127933386 1.3059887163258908 -0.4287725897950035 1.5789041669330226 0.03406788821798649
Ni 6.597874759979945 0.7573917490543928 4.943744206548266 1.1896702586625898 0.5447319134721587 0.16115957436287728
Ni 0.8932377499339422 7.469594609505674 2.294721747008159 -0.972408441989506 -0.7003039664449294 1.290851395589306
Ni 7.638386686691165 4.16397405914695 3.880640347154753 0.933703054999508 -1.888542120646683 -1.390590657863173
Ni 7.7148138056191975 3.9120035434087064 12.873379005491563 0.31338353679902153 -0.7877343294444563 -0.961447572102628
Ni 7.954753706036944 9.072883092013798 6.915005050992583 -0.40492355109154776 0.4796835177122578 0.2621982721744581
Ni 6.744050370750992 0.6985589507042157 0.5249519014202877 -0.15079031531341125 0.810487563980572 -2.242904928071544
Ni 1.8811284558124262 6.366676137461233 9.20297093509229 -1.2215424247808382 0.6519816251904578 -1.469213964094031
Ni 9.133454150719574 4.849173938367634 1.4798583674094885 0.16054765181049124 -0.33068706107447565 0.19428361061035573
Ni 6.547407964292595 2.3174926850694657 7.258947076617153 -0.026582635584534862 -0.49607532880671984 -1.2323045483933488
Ni 3.3446382710431823 4.660355066494546 0.5661340424743401 1.2816545595813862 -1.3920050217121964 -3.1898044271566675
Ni 6.237928563083476 5.5813422848025604 4.842339022322257 -2.5284799272987293 3.0777164135094606 0.45436715043465625
Ni 5.472448860330612 3.082272722127709 9.263774609925107 -0.8469411788219157 -0.48874074281851954 0.08712671571617898
P -0.03211738135335012 5.676905714806856 12.541911928336415 1.3293744913651686 0.3702180292895624 0.4607123759263937
P 3.985423008506615 6.307222726553359 12.514688572218427 0.0942242459929087 -0.0753243237646122 -0.31714788893746026
P 2.535706602684105 8.623943053388503 1.386445727923593 -0.8554343038945913 -0.21752278364395441 -1.1764486177659934
P 6.399024317628133 7.770659849244414 5.756918393255637 -0.30892318703482285 0.3877868914112612 0.36383063770597984
P 4.709976811407872 1.2457774856916355 12.587607367449145 0.5915159637052329 -1.2831123750738354 0.11357822503948825
P 4.054562700329633 5.9974162089155865 8.147380758333613 -1.0255333468389436 0.8438512270426821 0.12212688594044775
P 4.570870550122739 1.0657362379874316 4.02320677332965 0.0612192518217978 -0.10871344074801922 -1.5471369018237549
P 0.3356305423665176 5.450341241694076 3.6910218573449556 -0.2027044876841993 1.0177110225810473 -1.384536738359609
Ni 1.4330334679611536 1.0736324651124416 2.480630191322972 0.32926806923976193 0.060485458979566795 -0.0056469138731322106
Ni 1.7911169185277867 6.393826801039519 4.896066987071938 0.1838701285865156 2.130865765384401 -1.0368839959650724
Ni 6.139775461352336 5.415821371903611 9.125557014937817 -0.4291227740455706 1.959167239163413 0.22874796293581248
Ni 8.829672027309513 2.3586820953774885 10.357014070308376 -1.1786746788830345 -0.49695233209503453 0.782915053678942
Ni 2.2728503791256505 5.353796462403818 6.834984194633087 0.9448482729830502 -0.6480113276888001 2.2803080513103504
Ni 0.32814684540431 0.026667258189275143 9.38798798713902 0.35300269385254046 0.15948372932235114 -0.21705432864796811
Ni 1.4986203119062904 1.0001039612049814 11.567140408560451 -0.21238057732138263 1.2408943469448888 -1.3191996077146957
Ni 4.102049101889246 6.771010216412564 1.5213385478763144 1.2519845433207792 1.274505607241431 -0.6261417813092184
Ni 5.725882313430337 7.873719697405366 7.8727010931928065 0.054410970650712744 -0.07143784422601246 0.576606136472936
Ni 5.0560114735190815 2.906538507400783 5.04723839263393 0.9589093790618065 0.2531994111099575 -0.07881562474732232
Ni 0.6891707092018445 7.662084454633657 7.120595909088161 0.4145631310638409 -1.328879296896305 0.1448081295880474
Ni 5.170056981742331 4.646625263058538 7.033234014875619 -0.14311068728096643 -0.24561439967384793 -0.576264179752485
Ni 8.42835468875577 6.856069574430078 9.48529785540963 -0.3266702266055987 0.27142750408220995 -0.5895033041505783
Ni 4.598175685347888 0.27775455957015366 10.442155207433053 0.6640082173376887 0.18060765578515994 -0.37772230808640755
Ni 8.167979098114609 6.975721494777761 4.843216784739145 1.416904098946721 0.4709525655971631 -0.3600269476891735
Ni 7.41848266752848 6.1677802622721085 7.140903478710355 0.10249805596592672 -0.3724749436445392 -0.45850842629653943
Ni 2.5801490041437423 5.196517066193459 2.444562879093624 -2.2108833808596247 0.7518134471781309 3.5061262206484067
Ni 2.2521875247156697 5.413622422577658 11.239928570948043 0.5674450387989582 -0.9621299428816332 1.75732304259698
Ni 1.0013033881100464 3.291545457359137 3.6273186588348176 -0.21947810759811232 0.0896422830491811 0.2998037412320579
Ni 3.7171875370102945 2.952362067114738 2.863111984183466 -0.4382872141536581 -1.038971217511404 -0.02616611687240655
Ni 1.1792183790279989 3.176518599849926 8.04300880983106 0.46126593443701847 0.9057047700143691 0.13152606776716058
Ni 3.931957645556603 2.6766665237316123 7.172808234385079 -1.8175809589467729 -0.18417891807618603 -0.203303811831095
Ni 4.155505378271796 6.890180548684726 5.934820662979141 0.261508188085969 0.4805268395491596 -0.0869092003887342
Ni 0.9169436957871518 7.644938101831708 11.48499147810121 -0.0668805638726332 -1.0169517758175195 -0.8322817770375279
P 0.2858661383440278 5.464452680963514 7.814144526493493 0.7998943618457579 1.2538503928849245 1.486567367770814
P 8.565470991766592 1.8235377912343882 8.1937549640358 -0.014296876238646346 -2.2112993853511207 -1.029431396341769
P 1.667421475659243 3.1305496550565692 10.4873854142917 1.3212678030976341 1.1935261420735703 -0.7296119713804273
P 4.229651768766714 6.36969287785882 3.6524675516010907 -0.5221733114453523 -0.49277351812699655 1.640272028517543
P 6.869781204731161 3.9917381728931307 10.533387070727922 1.5334300937606236 0.22176458963944393 1.796236431832726
P 6.454634110499322 7.85860873571504 9.988669159106214 0.38301055306854037 -0.4098798666555586 1.1641011519442337
P 2.4415515906365144 8.527925295011077 6.012195510893526 -0.1506285929245664 -1.21068517035136 -1.456889638200723
P 6.882247975289865 3.656834555923622 1.6655805370913177 0.7736243724056353 -0.45530740286073845 -0.09959450916588654
Ni 4.996994217849413 2.906829277559587 0.7071784685992499 1.0846520073779709 0.11831933926889947 -0.0946253380860693
Ni 1.418740297342464 0.9539623716298351 7.036771415588815 -0.38637741265824427 0.8933462484490163 0.5308860087280018
Ni 6.837896439504854 1.0260097650408897 9.33566934900279 0.24762577367692193 -1.6220092256526129 0.25380696278696935
Ni 2.7350840659487483 1.6166093904083136 9.249238827955168 0.217468019146619 -0.895679010347251 -0.21120866850046852
Ni 6.311148123697208 1.6831048910997122 2.6423865393221604 -0.2705101344742632 1.404963381645077 0.8065213802439722
Ni 3.9437429235556114 6.709675886039929 10.169243788320472 1.677862328066491 1.4850344760660554 0.646149591889713
Ni 8.239281392993728 7.110638848462631 13.95342658723261 0.8210067183443409 0.4573763695746252 -1.9811144328584653
Ni 8.063837948425606 3.8699054763544227 8.59653160532404 -1.5702446914858117 1.04132583378651 -0.6655369952773892
Ni 3.1023812959224704 8.46738149600769 12.274134419840209 1.2307066077786095 -0.017546236413879458 0.7242334806773333
Ni 0.07110420770843527 4.813091178973599 10.563589003660153 -0.6488155687576503 -0.3245362109817314 -0.028076189410925836
Ni 8.687076524118734 2.412220150867201 5.767106252694718 -0.4835692259199092 -1.2388431208428148 0.2889292604113992
Ni 3.5526934062346207 2.730595301622218 11.440758976349956 0.5747937658545456 -0.020382934531726186 -0.11881941883376956
Ni 1.2981433739786712 3.388044803812082 12.62954005897561 -1.2622411880517808 0.7218405549651246 0.4326927507850161
Ni 3.3506263190010435 8.402694222241351 8.07883714533614 -0.519043507567119 -0.32837101134678925 0.41651048459819884
Ni 5.875674378051504 8.042302783539215 3.4908829397269447 -1.7245800438380041 -0.0046310710141081535 0.3541766595559836
Ni 2.907992358194801 8.095132086766844 3.4248399500951847 1.0032753067716915 0.8955867077437608 1.4960282560733977
Ni 3.3213403120690437 4.040269529710944 9.197265479382516 -0.5641797377841251 1.3320024159063188 0.09885351723480394
Ni 7.064188315593755 6.204998842598969 11.634381007783782 0.2131567933657748 -0.9037962401377467 -0.5897228763605521
Ni 0.7248990924648369 9.045559783653722 0.18221748061149962 -0.24740774412884486 -0.5669619285149526 1.3993501492233575
Ni 4.526273677016236 0.23077973175868585 1.4551883367484952 0.34059686398901984 0.35794126880473837 0.2036714795831589
Ni 6.043466932816107 5.324201512178089 0.5976762441073068 -0.8043675671257632 1.2287433134046517 -1.0388560320897786
Ni 7.824961176400986 -0.4590561141814219 11.6318004226244 0.11879602179500186 0.6333128451363609 -0.649552704033991
Ni 0.27154661667969676 4.6305874714870265 5.796444053061254 -0.8461549354751944 0.3260786157681868 -0.41802974945620264
Ni 7.82945902729498 8.974448306691317 2.3745426988834786 1.9105821311658577 -0.9978240538491331 1.1135686904123208
P 8.49329638641106 1.573012039722699 3.7050260751183335 -0.30675960372460076 -0.20032081794337112 -0.3808778229962537
P 1.8548591892780135 3.2334368584357303 1.5841903350152051 -0.6377055748874179 0.3616187176563256 0.33903003372253226
P 4.864839180673177 1.1109964305187043 8.343542485373238 -0.24038426162316023 -0.21057077780615346 -0.29185620425020703
P 8.557547504939192 1.456685803066334 12.477730776377744 -0.48656841775754917 0.5497003132210274 -0.05696433320018576
P 6.288213627421574 7.787151969189056 1.1853563553489936 -0.9355354802225566 -0.43753876602340774 0.2555843664023663
P 1.8836726947019575 2.985700683135063 5.991834330523303 0.5508318557223094 1.5990670150341428 0.10201648834381784
P 6.902129384898061 4.046330270208506 5.983761823989518 1.7518730752260026 -1.5303324286719064 0.5319134215512518
P 2.5212862201209387 8.61899087412138 10.133363659380855 -1.4732613946905273 -0.6506438802156408 0.10071525303389106
