# total energy = -340871.5724209267 ev
CRYSTAL
PRIMVEC
9.22922168921796 0.00000000000000 0.00000000000000
0.00000000000000 9.22922168921796 0.00000000000000
0.00000000000000 0.00000000000000 13.50789884619473
PRIMCOORD
 96 1
Ni 5.736330310542505 3.515438144409969 3.7412153579213996 0.5255064895836434 0.5861081624261003 1.223365594032506
Ni 7.337360275293046 8.12696631789443 9.688581046526243 -1.0827745878495998 -0.04699050981692552 0.06142339741280389
Ni 1.795960351353121 1.5367668956764537 12.545433945045506 -0.34200300030792713 -0.4990061293002696 -2.058676387704345
Ni 5.355089630187436 6.647854368721755 0.049679053312076775 -0.09867302579288167 0.7422216897246379 0.32856667229736314
Ni 4.628897568285183 7.830366827612381 8.249003390429218 -0.06812960578838591 0.053535252913978766 -0.03270597487345335
Ni 1.359344342196599 8.120791968733068 8.35647213687849 0.3390770849103838 -0.4811991830258358 0.36410548863392134
Ni 3.1469614773436345 7.448581623190764 1.3874768550720302 1.4863344258244016 1.1502483052215418 0.15304928655091707
Ni 1.8574085078798 5.586327774040837 1.6106145112439247 -0.6208980164117759 -0.15608010295744087 -0.2974282990213458
Ni 6.8580868045164705 6.45998433654136 7.652008431075782 -0.5933789850559006 -0.23532638748427856 0.5831411093779763
Ni 7.16077758096668 2.2039103986334245 0.8124012967025019 -1.444684354383783 -1.1730385636431797 0.6589146048648652
Ni 2.2078605054212614 4.93762425557475 6.812384622734485 0.7322866899991131 -0.5580656544665873 0.18313710707523298
Ni 0.5527546862518095 8.49485231478688 -0.26901796192819166 1.6570147951935204 0.75013194571065 2.304519101338915
Ni 0.1253955862265967 8.325846811284848 4.631479904451624 0.31275901584114524 0.11472288016689274 0.6905684843247204
Ni 2.6832946200676027 0.12622437031432512 10.401594703095896 0.36380621222594767 -1.0533483121686829 -0.5071372430478363
Ni 1.8546120537753266 2.61358631032804 5.9230919132247255 1.0564428919336064 -0.9971509390415084 0.27595958762460865
Ni 0.715130839974163 1.886582076936699 3.618238750641279 0.05993344313083872 0.7862055515047556 -0.4033451508608344
Ni 5.753791997557897 -0.01509439170912937 2.626854239108868 1.9821809264497672 0.3452837279417279 -0.726332272187891
Ni 1.0609912998358375 5.106758968177321 12.671043649210134 -0.594623398985963 -1.0399870603704284 1.362684161260892
Ni 1.8378702460343541 1.5595630726997187 8.29942816483582 -0.5720236593085761 -0.6584633762600596 -1.350033819486733
Ni 8.540555419491014 2.870721649617587 12.78775176926993 2.1404462099839847 -0.8272928084633688 -1.3172013463377443
Ni 0.4576041816944196 1.4615948868284816 0.9412015427282413 -1.3596728852383937 0.5028908090666566 1.1623129496955595
Ni 7.384087823580005 5.623816871639421 1.205656577563193 0.4185640246931179 -0.9732828741746593 -1.7224815094377626
Ni 0.05204450277404551 5.8872742276337995 3.2392749192220966 -0.4987181657462056 0.14187681487386533 -0.004861956077991626
Ni 8.317014446341016 1.8677729235871385 6.435014677862638 -0.4269422214544841 -1.8916395286250842 -0.015807913566534066
P 5.180980367214201 2.275381489673167 12.905432649272337 -0.10720883117803472 0.5901615065598674 0.7913081628386437
P 5.8926179468631394 4.577573867707703 8.947321357657113 -0.33700503287270345 0.2725798725190983 -0.2417109508543837
P 0.31059191294802907 3.2967609709730312 7.446134956579886 1.4864069309335497 1.1668344917149969 -0.07635302213944269
P 2.505235250306531 0.16666774170446624 0.6486047657963909 -1.0455378149853283 -0.5584186669306319 -0.21424642688552778
P 1.39597512219876 3.3516194633723373 11.081866773589546 -0.4935047398660662 0.22005634869908552 1.0010333048150504
P 1.4189097375440283 3.6222756121109057 1.9504732083856684 -0.9177370185885548 -2.0195102590278444 1.2496456107749574
P 1.0297411559488843 7.998818577826401 11.18890266955202 2.185686569879023 -1.8772783748074058 -0.25877227721204465
P 3.9363183309654115 3.8901260775235333 5.458433837563148 -0.0033450052128329486 0.8716348249138537 -2.161716946437303
Ni 2.1478428782219536 4.622750906788222 4.201118538683226 0.18984691499524078 -2.070733061758563 -0.4719514391753227
Ni 6.670299835329277 -0.10711342142279703 4.947591814759011 0.7146337528040402 0.24016108986876056 0.1837857964028254
Ni 8.435268460996518 8.591620701867422 7.148474105829143 1.7687518532592117 -0.8074600900081578 -0.3256464133267747
Ni 5.086953058909335 5.912257730144722 4.557322187042865 0.6332454822335353 -1.7162987776658185 0.5835995370716336
Ni 4.658071137342081 0.04891671961891011 0.28892723847660734 0.7407070528523243 0.5186606703064036 -0.008602139846714218
Ni 5.240499616454296 4.2139333126900285 0.7446837300333518 0.5271476247314922 0.20022928667082934 -0.8772987080678503
Ni 8.079924976077596 4.511400349789967 8.641434501812915 0.2136267910236579 2.492354899441398 -0.9715610063875462
Ni 7.479361076782905 6.905063541783037 5.235539832837979 0.45001452989291524 1.4859850129047827 1.683337235138133
Ni 7.210449250901583 1.5741729302818352 11.037668954906666 0.12391688796133499 -1.683640625311165 -0.5835370592648145
Ni 7.1294074572006565 3.7865742126648163 10.763876716713641 0.03953199665635127 0.7709697083916077 0.13230562624566247
Ni 6.952963201196294 4.284656836790951 6.241878451913223 -0.2701836043727799 0.12445476274267599 0.6423752124489454
Ni 6.819979349079604 2.619123843208185 8.242168229010826 -1.6738727472911237 -0.5135752853636961 -0.26796499945490626
Ni 2.4569202759272626 0.6787658615502489 4.673422101407991 -0.7747538580243882 -1.5352470923647044 1.22722456276728
Ni 2.3712361838284814 6.886106720890006 3.526345238339562 0.9777121135906063 1.5002453794785389 0.3298851339984706
Ni 3.9708909945804525 2.8725490354680345 7.212407691696861 -0.157959836478657 0.10642078805910057 2.6785523906095094
Ni 1.3607933299669035 4.643018277129554 9.335808822708 -0.8253480260321722 -0.9854948428598189 -1.8860862029070227
Ni 3.7305805260250806 4.566194237639005 9.356840372586792 0.7256249617082213 0.1803646865364184 0.5666060878374306
Ni 4.197422235485729 7.383303339755318 10.475213433970989 0.09911731241915188 -0.41195011892102606 -0.011132105357419538
Ni 6.329215497576728 -0.02632820007865078 7.402747463541801 -1.285755212013321 0.9560796229224954 0.3755034460582178
Ni 8.85098951275196 2.5610074356310606 9.34157616320267 2.1793236037754724 -0.5019431004414064 1.8121916696104015
Ni 2.760238639437221 2.211976738195503 1.0883513268744887 0.8742264969004299 0.9282790557704594 0.4826703682547236
Ni 7.488488776813678 1.8957466938533394 3.803770098101961 -0.40009141981022706 1.257358148927867 0.6539960845173254
Ni 5.925843144144012 2.0659796838104723 6.146823008336943 0.11919917077069148 0.1148655763923441 -2.038442062935341
Ni 0.3332810310022777 0.42726034735551677 10.142487079178872 -0.8380793575559116 0.5273571696391369 -0.11305989064217302
P 4.810408666874879 0.9762116714408132 4.402454004983841 0.12403181627264444 2.0872819672561795 0.09849587678506909
P 2.762896655219691 6.4253932144833845 8.71629548589745 0.5903409695605253 -0.0030845524625946878 -0.28661501045592574
P 8.761069207999867 6.763653410467059 8.7683953640003 -0.4338019246887948 0.7038777998391168 0.6974801238428892
P 9.264384800697739 6.822369717439535 1.1241053308372935 -0.3437176690061887 -0.32069883951351225 0.17134679930852426
P 5.0034655215196775 7.153624934329825 2.626854239108868 -1.5754267499073835 -1.425233701858339 -1.2622998092038582
P 8.183403007164577 0.6252363770421778 12.686159268128636 0.5150649825353453 1.2618709491965558 0.285461870688089
P 7.58548789443089 5.128872182812034 4.429334112506214 -0.48920456982881555 -3.442043531235885 -2.6398266919045374
P 3.2690640773508384 5.788973789789754 13.49395795208559 0.6180741738097356 -1.05729007042525 -1.9508705463722593
Ni 9.436140612196914 5.935293866926125 7.031833359086057 -1.0311162402433596 0.020704065316570798 -1.387055391016405
Ni 5.124488302615253 2.637480764705867 10.05276704853261 2.2127602861673634 0.9423239638992996 -0.7069867777817437
Ni 4.980798553596949 4.865091804066314 11.968849408966138 -0.7032059705830728 -0.4750635024417431 -0.2845702121117551
Ni 7.184339783371697 8.576521695547557 0.4913092984915706 -0.09657114895853046 -0.869701869557199 1.011208188465523
Ni 4.886328242661671 0.7734032213940787 11.355955269791657 -0.1955812463758567 -1.5810235272688706 0.33179880608141565
Ni 3.332044284641024 2.555091504670772 3.4339911878866456 -0.3655100822909318 1.5276140012994788 1.89863704298884
Ni 8.482992765201905 3.5966645225402334 2.252996013005179 0.18965459647877658 0.1821372050558089 0.41407847811793846
Ni 3.5024341713630944 0.45971951925463517 2.670714268286059 -0.6267853284304884 -1.71653377649476 -1.6371712781050323
Ni 4.533402813767077 5.234436017950537 7.145286332734473 1.5192252630151513 0.9481138311081994 -0.11271099194318653
Ni 7.052786460582379 7.127570842128742 2.824893027501504 1.5267274849294674 0.8512143522759726 0.6596895353576768
Ni 8.949557598018545 5.781285848307819 10.657069705443547 0.15730317673126457 0.07499162301554181 0.16617296841706866
Ni 6.377318199862257 6.041549893674648 10.664999452527914 0.9906833290392939 0.042116726664391986 -1.1071920974620157
Ni 8.29660863767768 7.676386496658474 11.825867541234345 -2.8279548244364587 -0.07535903365728958 0.2516060984809086
Ni 4.080672583929332 4.748775925918862 2.676562825929639 -0.8147244848800549 1.1303502807460337 -0.776644647289198
Ni 2.9501298711188704 7.878063444153366 12.440166367916088 -0.1183915872677316 0.2171913684464647 0.5031790297310367
Ni 2.2818050278141353 5.948297839973001 11.031428155350742 1.1730303361130636 1.0731252376852938 -0.46658271866424156
Ni 4.3893531251115645 8.084198105616775 4.4267545451062125 -1.132987718368881 1.2805749533639623 0.6559020432907866
Ni 3.148899613851685 3.546503703867584 12.616525715082958 0.11483806558851835 0.1712624671248341 -0.35257871894124443
Ni 9.170348263171405 3.6477759510239745 5.3281901412999835 -0.8422841396658785 2.046814346159436 -1.7236888994823023
Ni 4.088046731881392 0.6772854944269568 6.544604299405005 -1.2512857174815417 -1.783242333565903 -0.514934627605068
Ni 3.049242480452004 2.3511164810306204 10.084375286212481 -2.2188445446882303 0.5942721862941314 0.9603841638351203
Ni 1.1897389392992155 8.919802588009231 2.5865465372742906 -0.39841943142444286 -0.6931676125104643 -1.1481088902810357
Ni 4.990110838057061 2.2284416692924682 1.8409103515855536 0.7813785624297576 -0.8296973041398034 -0.3157623214438433
Ni 3.215839157151175 7.357276935218635 6.450318572899065 -1.529182117117547 -0.04394812344617592 -0.5628543341044822
P 8.196240854225046 0.2075947242994734 2.942925540841801 0.5343048046015637 -1.2498163320248667 -0.7189709467268134
P 8.10738190994165 4.805535637940351 12.42114771123923 -1.4340168473676076 2.1738672086465916 1.0468115394914295
P 1.3032029880133924 6.2619713899688305 5.168297571074375 -0.7786051134496785 0.8348433671171169 1.3110859774686257
P 7.792933105342599 0.7432328964187538 8.842338040548878 0.20345267870413347 0.7285033116972809 -0.34649086087595166
P 5.573923700389312 7.413778229039051 6.148498112033186 -0.9085450676766417 0.15272609888354344 1.0847322257966028
P 5.922548312080325 7.850597281067845 11.660315612405228 -0.06899349645057795 1.3666464883427496 1.2111574820020883
P 4.060109878501059 0.8916258566965939 8.669423038833463 0.27900223110567435 -0.15800431656334724 1.0974201056769164
P 1.318338911219123 -0.0923180564891955 6.438066781401744 0.36511490373504213 0.8856290823104167 -0.35640632021745067
