# total energy = -340892.7150001916 ev
CRYSTAL
PRIMVEC
9.04801312352105 0.00000000000000 0.00000000000000
0.00000000000000 9.04801312352105 0.00000000000000
0.00000000000000 0.00000000000000 13.24268179345886
PRIMCOORD
 96 1
Ni 6.418235306568284 1.6407033773677513 11.164971418045573 -0.2807503241450326 0.879177413147802 0.6898760862433861
Ni 4.813760174048301 0.3013965580607043 5.905971181705583 -0.25675781788517715 -0.5932933673206298 0.78648220220491
Ni 2.7718769394614626 1.4343453403440087 4.885264812755331 -0.010466446748962618 1.987465057666842 0.47763846225777096
Ni 3.461715561760063 4.432105929312102 4.946327139429691 0.19399590416660784 0.017690732411543727 -0.3809274452872665
Ni 5.296887886808408 4.501069885912925 2.726509296481643 -0.8970056995784744 -0.23200503642052947 -0.03521511444855226
Ni 7.370022958983706 6.059671591515278 2.3452920707829437 -0.49253517686394527 0.37017174943265924 0.686060826262354
Ni 5.228747299408671 4.150504614527609 11.766241753545632 -0.6365385511625102 0.5957192031533031 0.12368857400061278
Ni 5.337739666400735 8.009337475580523 12.490113572689987 0.0920146399360996 -0.023981964736894183 -0.1099974496667654
Ni 1.6735567132923888 6.469971846038699 0.6079477692407327 0.3217257381161298 -0.24246145586716303 -1.2355775627176657
Ni 2.528367760243679 1.578878303180737 0.06749003525074748 1.2794562663784868 0.3610692729107588 2.214833366646308
Ni 0.8518813002775372 8.91213918453795 4.635176823140741 -0.49820471644489683 0.23210273834065834 1.5376726710870614
Ni 8.571381959460071 2.360662835604969 1.5523866253361362 0.9804056012623695 -0.5260667329624876 -0.35729797879378467
Ni 6.9775472904618105 0.8382341819698723 4.822600987744793 -0.08097329452027345 -0.4203848799519405 -0.4107118756385507
Ni 1.0972163685588268 7.622860639809394 2.6750351493939912 -0.7775198508052997 -1.9704628666818902 0.32666842683338576
Ni 7.754979728537446 3.822514136073158 3.806542583174736 -0.63719803912338 -0.05215765584016179 0.28104574389826437
Ni 7.516926501278506 3.755486454296866 12.66356579531254 0.04114125012500011 -0.35694599477100464 -0.15130839260041037
Ni 8.296801902917801 8.935510202630304 6.830959523827648 -0.8811036836362374 -0.003334977910503934 0.020071316828578337
Ni 6.827648855798227 0.862848397075734 0.504671032186315 -0.6529689288043916 -1.6112427311647284 -0.06718009739092301
Ni 1.8582628547315383 6.352601018824599 9.201916284048826 -0.09279651240744663 0.39163788972623526 0.20321562299266294
Ni 0.25325117502887035 4.742298965804625 1.38666773959455 -0.4462386077902508 -0.45373594460856054 0.3016569923907127
Ni 6.314047434584752 2.1707631345897407 6.910601040804307 1.0537375771873012 -0.19755533938309203 0.7822463097466915
Ni 3.5996434749617086 4.024375310537125 0.5219681190183529 -1.619877524021591 1.3439397907738533 0.09522903310833922
Ni 6.1119057717116245 5.838981501584726 4.678255318781279 0.3643577138540435 -0.047556152512408426 0.1982222835431296
Ni 5.1060743364601064 3.123057475744293 9.446123969885551 1.6489001365061862 -1.4347879212056776 -0.6257648575857739
P 0.03000502136967313 5.4295860483811795 12.440427313010407 0.10032830200811753 1.1811604214193658 0.6116335603907144
P 3.8417140200808917 5.842094018125093 12.645371145571186 0.5516816053171144 0.6753742930827852 -0.6548311788241109
P 2.4417058898261144 8.427219965164491 1.328664546182685 0.5576270242672718 0.7220758109043822 -0.3241821700764223
P 6.60879551254702 7.833055034429403 5.660624351007135 -1.2389148546210147 0.6351979779742157 1.2504033148765885
P 4.5785389749205665 1.1596567076433555 12.348893992286639 -0.1762331808665481 0.4006655471461422 1.4409768236252085
P 4.061435972599178 6.047483917736571 8.248323553000255 -0.495733886306901 0.8019232193503286 -0.6639115438588243
P 4.776265207352708 1.0771569232972125 3.8689023949417956 0.5389091361427945 -0.6662455913086397 -0.9646838196517387
P 0.08264907656392231 5.615848448090513 3.448090158684075 2.2587766049964775 -0.6309890820991907 0.575886227587776
Ni 1.643399685300977 0.9867672714417651 2.604756516475391 -0.21477504569548816 1.555379087227889 -0.6625830548553878
Ni 1.826811960852706 6.519066365655081 4.90557941198915 0.6498380964848938 0.3896206021858903 -0.5808371438351481
Ni 6.059128710723354 5.787181626021919 9.145197908511182 -0.6199132839010033 -0.2624073028614706 0.7626596458640156
Ni 8.652560733879197 2.2495441855112004 10.242976158689652 -0.9328203952842387 1.142763309698406 -0.11745621993765577
Ni 2.258049317918019 5.091199402761372 7.0848874902437835 0.9951467641272861 1.2253553707690252 -0.11085516968137037
Ni 0.6249245564055352 9.239740598424854 9.30212303022491 -1.7241961781360242 0.036582169999407964 -1.5239782043191044
Ni 1.431513312212802 1.2410435863660532 11.339337490001197 -0.8640719249649312 -0.5996514483281737 -0.13603603982237214
Ni 3.995340236182357 6.807010337691893 1.3816352346534087 0.6039611314471212 0.3517775631961877 0.5959002088158576
Ni 5.491818283162137 7.925019040581433 7.924301533134773 -0.3973845624020253 0.20400700854570672 0.2637602173449393
Ni 5.347991065354911 2.867080134338641 4.868102541319955 -0.15232963477607311 0.8067324678135138 -0.4047137490735868
Ni 1.0054423706839717 7.441809895702537 7.0987924769276125 -0.20877074848293722 -0.136247641612546 -0.4896365151599116
Ni 5.174984004981737 4.584085407011396 6.9045886360337425 -0.7857129281390532 0.026772125887521633 0.6839820893564542
Ni 8.203507838825558 7.295928778899196 9.241895835168794 -0.0033360063517684484 0.20878077578526627 0.2286284066388127
Ni 4.518948759993642 0.22622656920686335 10.400722840001825 -0.04610682166039156 -0.37101892792430297 -1.151412757843288
Ni 8.287971042035828 7.259284325444285 4.478078884374917 -0.1355174483147408 0.05597291582119393 0.5646998719536532
Ni 7.22050454087447 6.344674959262499 7.160146149626972 0.36889571093371304 -0.6880349192695893 -1.6869840878621012
Ni 2.293001792904765 5.162570130873061 2.826650896962696 0.8618317227805029 0.5985265906951112 -0.7416007683111873
Ni 2.0774690704974965 5.261817787650077 11.456932707942627 0.9085088151220675 -0.12876316031004276 0.29484614011646637
Ni 1.0192496388252543 3.291703393755673 3.5920512870866426 0.5858952750843458 -0.43154063945844384 0.8887478304450566
Ni 3.614907473227989 2.5272277105806373 2.7088168114728197 0.507084792543346 1.1895555874615964 0.1342043859302721
Ni 0.867457454999174 3.464773790221238 8.082405610968296 0.026790123609650635 -0.4993285456366949 0.08253678235265141
Ni 3.6784697659491616 2.5384201029074833 7.152411907944686 0.46327910821230534 1.22604905440194 -0.8931151062748167
Ni 4.181222619337343 6.770438268342573 5.935144690662291 -0.34887144529298625 0.5169295465479097 0.35036654178127397
Ni 0.6543722201621657 7.2360128354971165 11.214551815970728 0.6971111705392445 -0.8009899089027818 0.49993172643833256
P 0.035613884751574204 5.764706361236241 8.095238408088074 0.9413919390033335 -1.9669509968738899 -0.6552960342756714
P 8.405179005012352 1.7104364150904674 8.116638768905743 0.5724841438847623 0.4560324539522211 -1.7689341444733468
P 1.633347342637173 3.1820233777605043 10.12195083894458 -0.6644373344553073 0.5464460679497879 1.0904189917687348
P 4.187049539837334 6.3339349675955905 3.642916502886019 -0.7620803763217778 -0.9024944906071876 0.16712967590338312
P 6.8897725144208 4.058929672943126 10.444026631171011 -0.25219925198021725 -0.5410737478942811 -0.9479292259012191
P 6.353514868157672 7.842546400274886 10.32723940080823 -1.548680849272107 -0.6143967249581485 -0.24262343536632408
P 2.6189474203763 8.470243267924516 5.810015192130269 0.008771832655359087 -0.2149791912864943 1.5274839034795176
P 7.1024822567100605 3.931750799421588 1.6332197656510705 -1.3584801504818733 0.5347130957835758 -0.6151351457860696
Ni 5.2965983503860485 2.6882099614126815 0.6389118800094726 0.9633134216667734 -0.6660635572048207 -0.48908398509055123
Ni 1.5801178809889649 1.138900565365438 7.0722546542156985 -0.4710296986920016 -0.2625679968090511 -0.06910765343093904
Ni 6.985102381482761 0.4406427667854068 9.045453515809555 -0.7623757960750096 0.5101048103165924 0.1963806023487005
Ni 2.766113355053863 1.5802355051605488 9.193573111078265 0.5985065360904531 -0.0820493011932716 0.26149070458447227
Ni 6.429744379357085 1.969490080983692 2.641782796087289 -0.29571722986751003 -0.18131368071324902 0.7400542497596738
Ni 3.9264758077267206 6.8241744187299105 10.586941809247806 0.310722959247723 -0.18796718147402466 -0.13263112790588125
Ni 8.181783559135376 7.183480070865212 0.23292119417261364 0.2525378662665586 0.20712447112876584 0.10129940767213523
Ni 7.578706335399525 3.877426528176332 8.227505884232585 -0.621768077721555 0.5041614482489639 -0.11196125826135557
Ni 2.516523910966524 8.420587771489812 12.434997600289842 1.1990391014719997 -1.0406498907654076 -0.9091947854454987
Ni -0.05149586231932864 4.7849513000235016 10.285551584796341 0.019342409082353785 0.0025484774534665785 -0.7337514474700976
Ni 8.81946038534322 2.1135887391868806 5.768578006083983 0.27566313943011234 1.5292584788814372 0.2609533440237635
Ni 3.283433509692021 2.8210257471570372 11.438008788337454 0.9589890832598063 0.23451597576784125 -0.10470329114736161
Ni 0.9426763031242882 3.466085752135056 12.615680995060828 0.17877497345179535 -1.3853427792006723 0.06311826861672355
Ni 2.9396723442321604 8.37752827667699 8.126834974979406 1.4963825540890228 -0.2111898994473911 -0.26646167543650234
Ni 5.916233438275597 8.005700174274628 3.432953737403897 -1.1414525613067825 0.34874494701745096 0.05810667433474509
Ni 3.140909205785414 8.562342994274527 3.6534701054810332 2.035087030420179 -2.2901078110095914 -0.6277011553765383
Ni 3.3224756866445992 4.38142800738594 9.454612815868613 -0.6910582794769453 0.8206747889262188 -0.29698761193950146
Ni 7.084938159117697 6.107897501864581 11.38719695581595 0.33835049115700433 -0.4067068682442157 0.7396631849688422
Ni 0.508142754850673 9.29167619418564 0.5432834285119529 -0.7678923550178646 -0.4440176888795321 -1.0561253606931875
Ni 4.414082287020205 0.43820161282438586 1.588975885910535 0.6595108436879674 -0.5108661139626492 -0.36416359556536637
Ni 6.012024754010695 5.6429110555679545 0.3996796966307355 -0.6088919930898352 -0.12205232394877046 -0.22734902570575685
Ni 8.026022011919006 8.664576495407129 11.435705164177055 -0.6935123974443927 1.5532844094823892 0.4817967074005187
Ni 0.1911845188894497 4.971765628537958 5.617373943115821 -0.9952750621750344 -0.8382354235178016 0.8405522445764362
Ni 8.134245297789176 8.796749872214374 2.5272991898849075 -0.9717540962349587 0.35122117647208545 -0.652753984580108
P 8.79483169341624 1.4331962426677685 3.6862329612736833 -0.9586275861553297 1.1420932802145751 -0.4115549403651364
P 1.8907180780754314 3.1189315817256658 1.5479503844647922 -1.058353478692758 0.22262899452226823 -0.1474039153396816
P 4.877367706835468 1.188601301866136 8.247317413932555 0.04641689670164264 -1.459216743672003 0.6299714394679538
P 8.252068525663216 1.6036155712661018 12.415385126880244 2.0462625874210243 0.2911319244896728 -0.16556027453373423
P 6.305696118402311 7.790882244910061 1.2727831118659252 -0.019518786759217997 -0.04114176434563237 -0.06569065732959008
P 1.9224947004294184 3.2335789569669444 6.0566730799412145 -1.110627605506126 -0.4941608853928263 -1.1294064287755259
P 6.9597588965130806 4.175802859431296 5.874440665310602 0.9903969081471268 -0.5070881349774558 0.31747159082546617
P 2.246802637511981 8.449812854121753 10.194216415561623 1.8160100149152272 -0.6330356802155743 1.2426460395286727
