# total energy = -340889.3707710474 ev
CRYSTAL
PRIMVEC
9.10795168187718 0.00000000000000 0.00000000000000
0.00000000000000 9.10795168187718 0.00000000000000
0.00000000000000 0.00000000000000 13.33040793229166
PRIMCOORD
 96 1
Ni 6.479378490873478 1.813329390697575 11.462764105300852 1.3055506494726934 1.5063345230954124 0.5050060556374464
Ni 4.689146865214398 0.2555691194716738 6.210529978094973 -1.214571907000276 -0.7507438682630361 -1.5876955399724075
Ni 2.739189093861279 1.6276637990927971 4.869198315506193 0.0015915128568359687 -0.298566269280531 0.3360274994507826
Ni 3.3153307827572043 4.166277584721531 4.776844597953419 1.0461615646122564 0.45965025321046643 -0.29332173305214004
Ni 5.213218395307061 4.454863028430013 2.7124180919773484 0.28491936792105765 -0.17873229313931796 -0.4106774228561895
Ni 7.228698769849033 6.17901646585791 2.479162542918848 0.22369985898894376 -0.4334445413493761 0.811335513803164
Ni 5.357351728009814 4.625518715940374 11.637872670306212 -1.3004038151644315 -0.7911693232679343 0.037815013965244546
Ni 5.739712640502342 7.760129524764687 12.470303006843388 -0.9767091262473888 0.6213595294292267 0.37891324307071517
Ni 2.0534149925961254 6.344198274508597 0.45802704128207994 -0.04116027628839363 1.097643534541632 0.09937776516939013
Ni 2.467617303580206 1.383497834916153 0.5198126519649022 0.8790540001960603 1.0726027895229207 -0.7269470229537545
Ni 0.4126840154667634 0.20290147904911854 4.8235948022775865 0.608003676947611 0.3955048288808092 -0.47250936856132164
Ni 8.619237051285202 2.317554694442099 1.2388854239637848 1.0564930284452516 0.6899707028397213 -0.05404330289864886
Ni 6.816135890137401 0.6306391167775635 4.800746595110564 0.22271512647817127 0.3042044414029148 -1.0568771512575474
Ni 1.1094942215809485 7.4979207086395965 2.8156084502410055 -1.0195131087867926 -1.3907672926503531 0.7165507673210949
Ni 7.561075244434913 3.7634055654203715 3.947760522802342 0.5335252461230618 0.24613607650527286 -0.41480301498878885
Ni 7.912305178653949 4.022727160915649 12.464917475113394 -0.22937685476906303 -0.9348178853302417 0.05144237494069206
Ni 7.960213003615497 -0.03789089988688729 6.933357958502914 0.5740165213688888 -0.87198372361284 -0.14778006773217775
Ni 7.138703100943132 0.5671594271132112 0.515318788688091 -1.1539054423581547 0.7395261451703458 -0.7515758772460283
Ni 1.7585450623432586 6.996864972021807 8.970618177499363 -0.06529573588401658 -1.2140096067389028 0.3839238089114291
Ni 9.213603751159845 4.915861994290981 1.3714990195921337 -0.17590253700000674 -0.05643031507358668 0.539210212322981
Ni 6.270596918327178 1.6331376779524718 6.907444014856414 0.6667585263893162 1.28295733755321 2.1661145612843664
Ni 3.485230510291937 4.0730212691737595 0.3827115686258018 -0.4272726082107093 1.0031585786881692 0.1584087510906175
Ni 6.0331708382706 5.399275628826924 4.9269053855012235 0.16544200378831508 0.8683404704332981 -0.21145009508731324
Ni 5.069686187404206 3.20108063897058 9.59546736949973 0.3552593510972011 -2.116130001836123 -0.3874251371964683
P 0.32972241751481635 5.94110766437111 12.61891016532962 -1.1665624690005327 -0.9055571886929114 -0.7793170519150385
P 4.159619672165088 6.113193300269108 12.821613091035742 -0.0011107165656755065 0.4167861068570886 0.3155779733471791
P 2.1793142063686464 8.568469329548384 1.4816214397527934 1.584463149078039 0.22916062499319886 -1.1518958681272935
P 6.457464759531751 7.8655267396800905 5.900811354489481 -1.6504883069289125 -1.055431934170589 1.0145367386181237
P 4.675639773119726 1.1208882689244648 12.86970853979847 -0.49761413404874943 -1.3505341561619193 -0.39103933691028786
P 3.834593314450685 6.342777434072475 8.261813710036915 0.5928056290509338 0.0050910413696622 -1.828677840190883
P 4.780818397198803 1.0702844903148918 3.9218456683606897 -0.266324892748322 -0.7426073551988308 0.020817193855667375
P -0.028090744058251474 5.749585659943087 3.703880548303225 0.23088043589778298 -1.3177039970057758 -0.504081486940648
Ni 1.4835942220506397 1.2009562706805406 2.7310010454505504 -0.8172408235440054 -0.30800093233086956 0.05239651132384524
Ni 1.8103237666980863 6.354854577779511 4.900698165815985 0.8344649007317758 -0.9488072576307982 -1.7546462670957652
Ni 5.865994388238434 5.535567015276465 9.230667498320576 0.6879253902749184 0.5420034587974021 -0.5354725996574197
Ni 8.890262364475458 2.7639718299297904 10.077388210782594 -1.0033442123364138 -1.552215601898243 1.504304637149577
Ni 2.1704248456913713 5.195303054679806 7.268457710591361 1.0859681550862328 0.5659807955486058 -1.2858914804808692
Ni 0.8491780377803855 0.017144807929204517 9.454231276173454 -0.5493776397742861 0.3211315561755566 -0.683369909693752
Ni 1.6504974335373972 1.1645791123352138 11.318755551533835 -0.8338092694256477 0.5927151262196566 1.5124277804773436
Ni 4.060598023309207 6.97052477624447 1.6228575330790693 1.285195225744793 0.8500506709851747 0.15908032323634538
Ni 5.545540222183859 8.018667836429795 8.117112041159714 0.7149091179526139 -0.5967155056283013 0.21785188484859905
Ni 5.433885844578611 2.8737772933777768 4.92306638393824 -0.889834378641016 0.256019654167572 -0.3408236352878453
Ni 0.6304797276260755 7.346774253271371 6.472886343034583 -0.15333467900181982 1.1012646762339873 2.0235152664221796
Ni 5.004026964942649 4.533910939616565 6.942995992794608 0.044748764970600347 0.7650101483740632 0.6706483483620257
Ni 8.225172421097694 7.476343971503874 8.994625826894067 1.2850581859462966 -0.46318886249134417 -1.0825768700164968
Ni 4.765343987577193 0.4748785731725465 10.811613881714655 -1.1638476411725311 -1.1971961347259896 -1.4434268278275981
Ni 8.163001544065846 7.416550269817076 4.737027366321404 -0.48910121148173186 -0.9622793239753041 -0.4781377704916927
Ni 7.3100327768655 6.032005020476858 6.979268409697528 -1.2545106521767426 0.6678944397659723 0.19058456449221373
Ni 2.637016093781691 5.189747204256508 2.4149232500982616 -0.5050690476648979 -0.3203172878043774 1.507042090685398
Ni 2.4670981503439307 5.396852913724306 11.6135580829455 -0.2005023378265579 0.22442953806611668 -0.8206963861927736
Ni 0.9510340811472999 3.483472675649812 3.63800182421019 -0.25256897661481015 0.5222674138210553 0.5433188351747159
Ni 3.674393555277938 2.563478493260868 2.7343336449093774 -0.37637067915451955 0.7293690021316858 -0.49258197094148076
Ni 1.1941161990938254 3.3474454197941657 8.288820607865048 -0.46409337658348465 -0.7408417786579757 -0.6366588787904585
Ni 3.506597764542848 2.7947384901427377 7.21072422753694 -0.32921433318369114 -0.5046021353308084 -0.4211577535622231
Ni 3.948260549340439 6.76796393458196 5.885534587415716 0.8913970951424455 0.6379560003353272 0.8622423279553602
Ni 1.0771154539500933 7.688103844195122 11.376849709468194 -1.976880597282776 -1.3780110214259493 1.0881278817417133
P 0.1305497338153665 5.693453354764757 7.839612796033589 0.06710476406829734 0.47839590924908576 2.1017644771430706
P 8.78900015954723 1.3371201458088913 8.288673969845679 -0.19631529632840386 1.7726686718151146 -0.022262925163258434
P 1.8206430757629974 3.4525693961641606 10.483125591629932 0.30028710862637964 -0.3129330795251643 0.03223983387031222
P 4.153653963923679 5.988259529357028 3.8452896927082594 -0.33143988008010017 0.7814171289771769 -0.6046213907389394
P 6.930276738505863 3.8417430563888626 10.35439380493668 0.8560619101762612 0.7709087732466853 1.3023989912175893
P 6.600304763119572 7.597834936743811 10.204267440137977 -2.150066506682568 0.568806180812543 0.6191432385041982
P 2.4979832139265556 8.590091606441675 5.7528836491861615 -0.5000854784073775 -0.5914557998912587 0.10883736792039321
P 7.085986277582403 3.912238601104143 1.554778327900348 -0.2638823447451004 0.7005482212452515 -0.22125628254445767
Ni 5.4224280415745 2.896538064210268 0.22398547600795596 1.6774375818242466 0.6910904182664614 1.0458126659132698
Ni 1.404573634718628 0.8406183849479022 6.978215530502555 -0.2283898082654454 1.2410637826432174 0.7417910299451225
Ni 6.988631383853511 0.5647977352857342 9.419532713292083 -0.24188527164871892 0.5667832368452432 -0.6739038791848458
Ni 2.8281737801491706 1.629858815407575 9.221349153127012 -0.12221584610982822 0.05317478425076648 0.7741599331941312
Ni 6.383617488659466 1.99787470426618 2.509728828198497 0.5031805723929333 0.7364307940744736 0.5292070783636822
Ni 4.172507423556835 6.7545205981478835 10.333065714877279 0.44156074269860723 1.3218727836714848 1.4466389070069925
Ni 7.914591274483864 7.278573912337518 0.35188297434256155 0.6234686053524295 -0.3082827252373465 0.08511611304405342
Ni 7.495898743403577 3.840222028486091 8.287420715717406 1.1762791820676646 -0.14862056135560212 0.047347378935712
Ni 3.1559780630752226 8.389543622063671 12.591343128483402 0.949170554507488 -0.07350321139547342 1.0420807096746636
Ni 0.15706935623752163 5.24290120928989 9.97226514520775 0.018258174879239523 -0.24251313504070493 0.7420810503817156
Ni 8.586193403193853 2.2606391054335995 5.929298294438574 1.043505872156964 0.3204648691258352 -0.052726898080070486
Ni 3.506925650797337 2.6671543053402 11.783667293365047 0.6293564315917742 0.4940505850672073 -0.8635443345962354
Ni 1.1889793144401537 3.6641653257281632 12.642438736474709 -0.2411933877880169 -0.8922712702172826 0.4735308678473006
Ni 3.1851052920157223 8.595228491095346 7.951615097386656 0.3665495792990397 -0.023414008048566127 0.2730745527673297
Ni 5.662495427570023 7.742724229422193 3.719477004475117 -0.5629358380746949 -0.10005910750713089 0.6601433350656437
Ni 3.202000542073454 8.311060403870963 3.7125321914459954 0.41836887796317623 0.387272670779004 -0.08649268167660587
Ni 3.3706342643477964 4.5727472448705635 9.457937301644339 -0.9136474219002136 0.3746097305993548 -0.44817002048500876
Ni 7.1882048174195585 6.11089809648768 11.584324290972292 1.7101420140358028 -0.10710727260316391 -0.6889530602084843
Ni 0.4503827375767137 0.03535615698065184 0.14513885054985426 0.3084094806231979 -0.3990017862904741 0.23353741390465588
Ni 4.750033521082829 0.6005537313378332 1.7148633268840232 -1.1530186688778272 -1.4603110051774464 -0.8051954623436971
Ni 6.190155490559045 5.511868125438073 0.3732447638225638 -0.8873563494141685 -0.039945172934369916 0.3873793715601974
Ni 7.874944361545155 -0.3182983139313053 11.647483380743365 0.3931219304709294 -0.1324768617162041 -0.5883473361692642
Ni -0.01870226763803047 4.851814879247331 5.890614091974852 -0.08280546263300577 -1.1955354591941154 -1.248831085293462
Ni 8.20604572291913 8.70068035371983 2.6438333954896223 -0.3509414404481375 0.824695737160154 -0.2777907272960764
P 8.340797865562873 1.6796610942839512 3.3998270705391933 1.534266730729306 -0.258393039495755 1.4347156732068451
P 1.8161073159092236 3.292788602761039 1.6007416052137406 -0.28122135024418016 -0.6456808797834106 -0.30253785233376934
P 4.829145187929976 1.3064627810141065 8.534966640700748 0.3768458190187252 -1.0544772835668035 -0.7091480470991206
P 8.62631392961127 1.7162204116595496 12.340411777922453 0.08440468879932561 0.15813852814836635 -0.23942986812969086
P 6.317466436816175 8.142854755317758 1.71111813722163 -0.053641696584856007 -1.432575744045707 -0.7250850300443512
P 1.7269860103486274 3.4588447747570323 5.88190871191815 -0.8525695807522864 -1.4668814593061124 0.9088515431734668
P 6.929092704809094 3.5980142738848713 6.291526080110285 -0.3764249294312227 1.8687723942189234 -1.6585253183007755
P 2.7539895150708817 8.438917827218908 10.466996320294495 0.5965604681076757 1.440559790692448 -1.49406958968513
