# total energy = -340897.7733848837 ev
CRYSTAL
PRIMVEC
9.00844198561794 0.00000000000000 0.00000000000000
0.00000000000000 9.00844198561794 0.00000000000000
0.00000000000000 0.00000000000000 13.18476543322592
PRIMCOORD
 96 1
Ni 6.048853411027057 2.2623170286931678 11.432509962723614 1.559955393744662 -0.6943613757082493 0.4980617631091293
Ni 4.756781604022671 0.3739872653518359 5.982969270666967 -1.3272026805248305 -0.9988280696336151 0.0929507785971238
Ni 2.882890571288585 1.582990428311092 4.784553729421397 -0.3952690587209193 -0.6343410292905591 0.3250895123820401
Ni 3.4672501776217564 4.334655027079246 4.779200913270395 0.110944386961067 -0.48857362111303604 -0.016256313957862326
Ni 5.170124950156223 4.317115590785069 2.7891577337739917 0.0027477379484662358 0.6208782189174339 -0.4574380760504961
Ni 7.435793119219927 6.154513425559365 2.425245509794219 -0.8717651798441309 -0.5829289933671703 -0.13671661082916453
Ni 5.07777040424564 4.546578621748234 11.591702642986865 0.15690748395474266 0.7542539382988236 -0.5318293464778776
Ni 5.628861834803571 8.003351981491136 12.474370495481452 -0.7965221029394153 -0.1472483635984238 -0.3061368825389373
Ni 1.8052737311148013 6.492113792565315 0.39248159648277875 0.6343808813895591 0.015881190006630713 -0.7390713170211143
Ni 2.5664600426448936 1.4890053544245228 0.3835920660590016 0.6981542670917782 0.4592918414297832 0.4210065726963395
Ni 0.5432919215987624 -0.01727729063615943 4.750945935388173 0.011501572881696322 0.03778827449236718 -0.11797841098971294
Ni 8.764871605369912 2.343888469701783 1.469099400454701 0.07986900571250116 0.6003302195627532 -0.10670180963462914
Ni 6.8466860640284954 0.675264693949079 4.785436556723313 0.12249738190598902 0.0756606240581084 -0.8423126789109686
Ni 0.712777647527 7.326196415596424 2.442688555760534 0.8682006024213241 -0.2599984363096619 0.33336640767885173
Ni 7.669345982785843 4.061077656345879 3.8488567830956346 0.17000314079643628 -1.1263637852944601 -0.408554977196548
Ni 7.710766798441018 3.8950340560509256 12.597251948310408 0.008433218369017734 -0.14104866254561516 -0.6533432814246748
Ni 8.032169986989375 8.922564380064092 6.809139779215706 -0.28437172294770385 -0.4995499176188815 0.5836111070358595
Ni 6.9204021437384355 0.8041016276892243 0.4673444508410225 -0.32032371556228056 0.02005203355486869 -0.011587447727283269
Ni 1.882917491474079 6.433270650360094 9.27587817219995 -0.7632353158618275 0.8863595327185381 -1.004658046051831
Ni 0.19184107523878222 4.822624305550222 1.27293517396909 -0.046170585018791455 -0.0359080267505188 0.25092886990822594
Ni 6.322403756434856 1.8818004446839 6.937032628249313 0.8223884291832159 0.3863154490720572 1.5041699113439255
Ni 3.423784445665206 4.490942484843848 0.41965375965387613 0.5282945938517417 -0.4602043259417236 -0.3638766604525669
Ni 5.998748457422428 5.501302298118645 4.7881264774615975 0.05511442447564056 0.4962753606326679 0.13227734411088832
Ni 5.081544941383422 2.8799177854760125 9.32557144001175 0.03640450677096311 -0.46032902444504586 -0.9066025992382901
P 0.38801340932206385 5.496717001213799 12.250031466246138 -0.7530424344892257 0.31195940275798534 0.6473587817064658
P 3.881458334173512 6.3198633758313845 12.39698888078019 0.5349303540007045 -0.16034993397738836 0.056561955555444514
P 2.299711070838586 8.428892757898092 1.3462044349629576 0.6297829776062316 0.09352721992588409 0.30884656816061645
P 6.290261635891648 7.746395185982606 5.733869638145484 0.954047422983815 -0.7349737499129729 1.104716896448646
P 4.574369664874857 1.1309197906373925 12.609065618960734 0.20361234421044933 0.23327259027904343 0.62684497802383
P 3.9182127769471338 6.046736427190831 8.007530096824079 0.4665022431352933 1.3494044134328502 0.4188612442185625
P 4.7842213179169 0.9111678599952979 3.7756550854156883 0.6839250108662738 0.2003321307972808 -0.10900140430208326
P 0.26137543623903636 5.461412917579037 3.4929080217168136 1.365751487332306 0.16777836523097556 0.9246705124835947
Ni 1.5087788842990575 0.9322205886134243 2.633564826876509 -0.45716656755666424 0.772657894727308 0.1534552637400841
Ni 1.9265633922677554 6.385174579289415 4.722532408929281 0.04527044180202526 0.1258480435457768 -0.557203306466292
Ni 5.828542956989873 5.39883127200346 9.008847236163543 0.14670714638297314 1.2337600498929526 1.0336878576252777
Ni 8.318215041251836 2.264172767715561 10.255677747321505 0.6048931563430874 0.8963780932968046 -0.05577082711271685
Ni 2.330015469243112 5.160350790742159 6.893733552467103 -0.36048563249314697 0.18581928189308644 0.10284104112764224
Ni 0.4087877770868312 8.991028538171822 9.227383927999224 0.24899128656588085 0.6278147981362671 -0.6454551369258497
Ni 1.4200727573402683 1.1319827867764334 11.284300374771538 -0.48587961922064066 0.6481301126548515 0.7677028647148779
Ni 4.012387028112685 6.880341602803558 1.4363483092420093 -0.34358294320053734 1.1654607512959219 0.9265965258617139
Ni 5.56742426134374 7.718685218832689 8.062075311419669 0.1248093178686173 0.2668740803835727 -0.4242618464088435
Ni 5.324880972805258 2.763321522530181 5.006282112206759 -0.9345687454339131 0.1933348735438412 -1.1434209978870629
Ni 0.6980533493129104 7.187574512311988 6.6677865163604455 -0.28987054127874595 -0.19100082609402588 0.936500158128671
Ni 4.980632375709373 4.343807604005226 7.0905950323523905 1.1033148738947964 0.7343114337386256 -1.1658412745637923
Ni 8.08722958361496 7.128271939572096 9.383637153684774 -0.0027834762824081095 -0.5314153988689105 -0.5703982078900112
Ni 4.610709719323091 0.38232908251075115 10.558083032839154 -0.5108555724396879 0.06596910780195736 -0.7807792382828618
Ni 8.11967799118128 7.046484295958931 4.594745859509578 0.02392334358481686 0.08960063117796827 0.6971754481182767
Ni 7.253795568397502 6.045727481702928 6.8970558658237 0.12312087442260088 0.078908955792077 0.48218160154376316
Ni 2.4290272536854856 5.174575120433225 2.4850912915780445 -0.30348016164238056 0.8093971591298705 1.4055565351443857
Ni 2.443801098329785 5.160837246602399 11.249334107706387 -0.3861285298722318 0.21655887706878832 0.5385700076358209
Ni 1.1764484557790316 3.165872755319909 3.762800038886777 -0.3431114028807575 0.6643874550539783 0.04524627343230917
Ni 3.7105501752761674 2.4231177158277664 2.6405787997058088 -0.3947430110141201 0.840711652972436 -0.47650511998427614
Ni 1.0161612498302415 3.27714502912868 8.172141354863884 -0.003210279407181568 0.5571367148944147 -0.033415085125335996
Ni 3.5988274793745822 2.629771372010829 7.099851206359719 -0.23920643926497512 -1.2720260353526867 0.13731464942447966
Ni 4.23710261021759 6.787005136730641 5.838385580562045 -0.6361312884217625 0.6123069323086552 0.454490820496714
Ni 0.7796500139587235 7.49451014323916 11.410768088303481 -0.07605220306957225 -0.3138365651760402 -0.26498714777350496
P 0.15814049425443868 5.598161064957368 8.213436052333071 0.011693377177528249 -0.10530055841172832 -2.288019561021995
P 8.440297445288142 1.663895244622343 8.063710343616584 -0.07544002340687007 -0.5185313438173909 -0.31998972926162955
P 1.7262606875933695 3.158395748579197 10.372375805660313 -0.06774753985861881 -0.04352851941025406 -0.44547241904818763
P 4.170665351527525 6.104048134280484 3.641935576189439 -0.9114316451958174 0.22647690751344868 -0.19814463622765874
P 6.8366146260331755 4.036412542543384 10.293926690599084 0.0415827085377929 -0.17016974828128756 0.7641416297261808
P 6.282757603825368 7.769042408809294 10.272870358604216 -0.9397718869014072 -0.10059466829562676 0.06608994965053779
P 2.3592838968341656 8.366383179857365 5.795034255817067 0.5369682103663397 0.4437986308901905 -0.37983292667150714
P 7.034259840359958 4.1719625671548295 1.4898386352962287 -0.5380876686827636 -0.9307061771547133 0.5961416354027024
Ni 5.319602025877477 2.931175819638246 0.6083400785545892 -0.2549297635375029 -0.12493453059257192 -0.40607771930064906
Ni 1.463340303575981 1.155575895998031 6.895645143829006 -0.29053260034277706 -0.4774775111998745 0.20507735879175004
Ni 6.672967271271992 0.7730945708199086 9.259818822902762 0.1630475354142095 -0.4758713430550191 -0.3036102594623416
Ni 2.5882064212859532 1.5791438236384607 9.12238062887824 0.9253094316191742 -0.8471532948327217 0.11047284664128715
Ni 6.4129295886486135 2.187655062588319 2.6497160622806333 0.6177977802198973 -0.68437752502266 0.16997254466881698
Ni 4.066131392227252 7.014702513089974 10.07524406200533 0.6329006972996069 -0.200016656439391 0.8367673236127073
Ni 8.285559439522821 7.098823343143917 0.22208061286194294 -0.6408081250721416 0.0868904313356568 0.42811335894444974
Ni 7.633041962105034 3.8232007406889488 8.16537781671819 -0.13438102071745242 -0.09885608833796523 -0.17653142883325726
Ni 2.9534897301162513 8.415938618508761 12.337578206738023 1.010842063375356 -0.6022012113332209 -0.002656206675924458
Ni 0.09616241428323223 4.8062739835810735 10.214395661670915 -0.4464916043413214 -0.8100409633614565 0.32118477801099526
Ni 8.50168997653869 2.2920719121444604 5.739341365728988 0.7238591280570501 0.3468981236166993 0.1434341320586562
Ni 3.622555715224024 2.7905360253780027 11.405362122345528 -0.803055533182559 -0.8114126468980026 0.3077633623987667
Ni 1.374481033105635 3.3949394148413967 12.636700816043245 -1.2384165748283575 -0.044689372487574645 -0.3581359013140477
Ni 3.0603839011828704 8.345753848006483 7.904609549460266 0.11653833610907671 -0.4511309028855457 0.22070195270288442
Ni 5.753691813606043 7.78457296256952 3.5418103483336294 -0.9921326598913106 -0.01471185228887789 -0.19687733947946093
Ni 3.113885037367317 8.33467346452326 3.5306425829643993 0.6368817934345418 -0.657040527770604 0.3637900142760316
Ni 3.174502842618225 4.343131970866006 9.058948586391429 0.4172764162299459 -1.0916055558776683 0.38874359889757565
Ni 7.120533688017552 6.0664739232979406 11.510115887627094 0.1231697253826653 -0.15602662401168613 -0.8068000878266558
Ni 0.4776519100129781 9.141136204823013 0.33356638674270744 -0.32976634903241914 -0.07565522474146971 -0.16495966483525784
Ni 4.634140676591276 0.3933265883288978 1.583727318854936 0.11872685911996328 -0.6140282858751361 -0.40047759950505224
Ni 5.701992365792852 5.655148468140196 0.495966973150981 1.3790764865759861 -0.2890670715408441 -0.3643482007723467
Ni 7.835371566197083 8.876603309713353 11.427288669823714 -0.05349745769750786 0.4447414544194341 0.02085447485150602
Ni 0.2089787350261693 4.721711739876174 5.85850503460386 -0.7437026451455385 0.024069382244377904 -0.2661598279253674
Ni 7.943580969774719 8.693578796519311 2.638864493220558 -0.7015753769581853 1.1260400834064543 -0.37574950063075285
P 8.510932637883233 1.633906141682787 3.578134187586522 -0.38064925192521537 -0.14879899591499535 0.010590116811020471
P 1.9323197866139183 3.3172506122728382 1.62100064787948 -0.1653540720601991 -1.5177281096443345 -0.3730202746250479
P 4.71254114606648 0.8711965026347979 8.17571500374827 -0.3066894126082976 1.1938544719472663 0.41460426871442146
P 8.487889043614869 1.8318396261489711 12.414642724285944 -0.03386579950950942 -1.0531441665776766 0.3159718663514881
P 6.294846932796495 7.706424729466291 1.346850340244053 0.6100255924736462 0.49793295084074896 -0.007570870368722446
P 1.8635943836923583 3.1734848886884657 5.97484816033353 -0.7714042248258651 0.13326207662166079 -0.5659124042045157
P 6.887665466032714 3.8629009439495747 5.987465383997437 0.60461470587072 0.80300565378123 0.28861558582572233
P 2.3329792466138284 8.493483286007619 10.162434969043892 0.34920028938731473 0.02638748885459326 -0.6532214111348299
