# total energy = -381176.0375654766 ev
CRYSTAL
PRIMVEC
9.08503362208165 0.00000000000000 0.00000000000000
0.00000000000000 9.08503362208165 0.00000000000000
0.00000000000000 0.00000000000000 13.29686503518292
PRIMCOORD
 96 1
Ni 6.296409637643664 7.108030179490441 11.356519756694631 -0.08396682993095862 0.04208150255108237 -1.3791412783756507
Ni 2.5014276651000977 5.7889015030882245 4.211143730497716 -0.8202173896738261 -0.3623265423566276 0.7049232103844957
Ni 6.580216995335428 1.0728152514609843 7.080979492607787 -1.3021051141262543 -0.31253790096927464 0.22936605613578562
Ni 4.532187005992083 7.264301838623449 4.484620496735488 -0.40307338525668646 -1.1835626031029551 0.38245802299918
Ni 3.520695729831825 4.036634775361941 5.568048884188517 -0.20729442104772688 -0.5262963324747904 -0.10322747793278352
Ni 3.9938715232522344 2.2513348662736665 7.186715653576306 0.6442428617853033 0.48199905321931186 -0.32666071352390197
Ni 6.742221310529882 4.124105476724223 8.583246088848092 -0.5799244022128917 0.6227001026175211 -0.018513228312839084
Ni 9.344956182826781 5.565654977893445 3.5415804045609085 -0.6381789149794106 -0.33975431348306645 0.39091540973791383
Ni 6.700729963093079 1.6304636852289727 4.91489312853217 -0.0494489986597471 0.1964381950595133 -0.3014682734186743
Ni 8.138972512112751 7.894903090415857 12.70889057022653 -1.9679853516756751 0.619928453409655 1.3582433518807189
Ni 4.671496907808579 2.4796326700265507 4.117799555056632 0.22356281919044724 -0.6243060136520603 0.981230668266826
Ni 2.9150601497618456 7.095229367461 8.417128070540132 -0.16427318029119453 -0.7399516627435385 -2.5090945807935823
Ni 4.614197602294254 0.4462913626485706 5.571493020342075 -0.04511668983298037 -0.16175555607566336 1.4875539000537994
Ni 0.900763797853927 4.369610333694822 1.4290139721144157 -0.18090461820028844 0.617989070295097 -0.7367131012015828
Ni 3.081261750376883 8.831588201742607 12.49483809881017 1.0309277783816375 -0.5033644062689653 1.840050857914515
Ni 8.43667997087268 6.768286271291035 5.600865841756116 0.012922364488622905 -0.1480970847519643 -0.8413176619875512
Ni 6.140401444478614 2.2065183966205573 11.568405447650365 -0.6511385604638721 -1.5032296589178433 1.768076167348426
Ni 2.564659497410181 1.8901411942690736 5.23264853044708 -0.9323180017265235 -0.918281321127799 -0.46534139005797276
Ni 5.863616817587955 1.887161303321127 9.263673297698178 -0.5091139071582329 -0.20923149016943968 -0.3089391278744228
Ni 3.8145511344395313 0.18602514344558305 8.223219843632558 0.47197303644187755 0.2492481397716933 -1.025208102289041
Ni 1.9738779469130439 8.849104146095168 9.456862898465559 -1.0262612261439035 0.044479313359297584 1.2363347525986643
Ni 2.591542111175344 3.2445107151441066 2.9848668207275044 -0.9912402299840283 0.6155256963562689 0.4109016230518537
Ni 7.192684520505578 6.508145425548662 8.024232174563409 1.236348122335103 -0.7944963307586381 -1.3647515853128818
Ni 1.2120888131439689 7.792741890081535 3.1090465079564695 -0.40395758763385264 -0.5208728474663739 1.5265043131750677
P 2.425867442496224 6.710787095042398 12.0064039918316 0.6774478877823623 -0.0015624593911134383 -0.3211518678905308
Ni 5.615649916571949 5.612006818187417 1.4489329077954298 0.9742568080521543 0.4422621396410061 0.45666211711641996
P 0.5208631336209302 8.793576422089533 5.094467898279455 1.202428843879839 -0.5456821932005699 1.665494036309125
Ni 5.764853419736962 8.490981215372301 9.27871175344859 1.4181382284641384 0.2602318924767067 0.35209046645091624
P 6.684476838380041 8.115651231431718 1.5864221689229976 -0.08487468645720866 -1.2954693539772915 0.9327808002955549
P 7.707551532097103 0.7291784064591552 8.895814845207568 0.21593204211806685 -0.6777597625958264 0.035019196387662266
P 1.3776362913557978 3.8810899188991645 4.669698979703095 -0.9690459532751761 -0.2920248686175874 1.2112695820999204
Ni 1.6171813664305044 0.6066939864585033 7.179150546282541 -0.3323855318228211 -0.03614559668262162 -0.1611598314731934
Ni 1.2834335802605035 5.699268563782007 6.308524529653074 0.6410071284568251 -1.986903785846733 -0.07724725181893793
Ni 5.910504674851222 5.695698145664498 5.693863877425502 1.3749426669132707 -0.5869206310250665 0.25287519500131933
Ni 6.996638585244187 5.498234945196157 12.85736363670796 0.3808567399503312 0.1483426251038671 -0.4848295806895715
Ni -0.584370242442363 6.413924544386612 1.0745595778695385 0.3189137225886314 -0.4376824906901236 2.5104786056253023
Ni 2.1735306404254553 4.583481104443624 12.379992374873645 -0.046570134450055284 -0.4233041104812645 0.10803415529280748
Ni 6.683986246577636 0.9080409095896133 0.4082704979621199 0.9818994121990767 -1.178209566321158 0.6570878360687715
Ni 1.7174256247220927 3.1434942290153978 7.124340539913757 -2.3008887036751795 -0.7870691850566316 -0.9690305266562085
Ni 4.567209809663831 6.218587241728696 12.705991536075645 -1.2425133706055504 -0.6602376945516629 -0.8846284089600441
Ni -0.03956259485067789 4.87162202305664 8.166628262218373 0.7173614361478483 0.5946015446090921 1.519024716968571
Ni 1.7083769314777186 1.536379079567591 11.549590343524764 1.1351353608395032 1.2793863323724999 0.6596257719992769
Ni 0.6328534315667866 7.255725567114724 7.907100656229006 0.6098237608754852 0.05943104957312346 -0.7598381172548204
Ni 2.380296915072751 7.6251411943263046 5.811833944340684 -0.5435970285367671 2.0609379300450117 -0.3558867002685548
Ni 4.736573001894373 3.4254028147311844 2.1200125258030074 1.031086929667321 -1.1255114645964939 -3.0491578851454775
Ni 1.2364094474965681 3.618823175346366 10.105045506850852 -0.005537641988777559 1.1438454870189914 0.27573075944325415
Ni 3.7926562039988267 5.946372386627114 6.637050238637467 1.6043804568272562 2.008130299325677 -0.9319922429559884
Ni 2.574135187223315 2.6535292939126562 0.6031753530312481 -1.190926499667194 -0.07671014836854531 -0.35829119594498937
Ni 0.3143721354849845 6.20400576315719 12.185751635744438 -0.11189800912358792 -2.249531689359442 -0.20869387249841476
Ni 8.49549647696111 1.8694454882342504 12.518213889691468 1.3070364899896005 0.958384359796272 0.08802583049168065
Ni 4.630096410705554 7.905060157732333 1.1736654814788776 -0.7225499223273234 0.6106645116092256 -0.24543339401129344
Ni 3.2827587056650045 5.176252277250518 1.4527359027674127 -1.0624675008611315 0.0846016353014801 -0.6001741536008631
Ni 6.049033263797219 3.3024278029281264 6.630135619733557 -0.3851419975892464 0.41094687446749223 -1.4369671882451833
Ni 3.4696378422481087 5.198247143058379 10.278369773634154 -0.2917309915262524 -1.5284886905949482 0.9712115934679275
Ni 8.372912121593302 7.672110816889972 9.83659458107773 -0.26051239983160296 -0.3467312590215319 -0.055540199159149505
Ni 0.4513262881465947 1.4595560373241911 9.650612137289022 0.05977609161736802 -0.6165428247668736 -0.6714921844195597
P 4.586197529423612 3.5949022824623937 9.142060132398464 -0.5857235253931719 1.075215030334787 -0.10935827342086973
Ni 8.667049162235722 2.6658758542732026 3.7048920560584397 1.1110158420834804 3.0249995427317193 0.4885602513765973
P 5.699959026318726 9.075584943172476 11.974238431157199 -0.8579881806646965 0.2466832072579945 -0.1473992873539913
Ni 8.975113559046441 2.2067182673548706 1.442869556519029 -0.051328475070647084 0.15380904753507704 -0.12095369156795299
P 4.523320013415266 3.9541880974576307 13.171049852172915 0.06580070054489312 0.1456797335597233 -0.021981389367097627
P 5.05220523150887 7.784165618572811 7.313594504221841 0.48141284169853865 -0.8777933883160818 -1.2512795468339548
P 3.3000475241831206 6.95688247918256 2.6909659909529093 0.13528142104453478 0.8705755304114039 -0.8008574970899756
Ni -0.4324521313040376 8.774697722730286 1.6413384701823017 0.8266667448435957 0.027674325986816854 -0.9686520602708673
Ni 3.3446913782020498 8.966146631102466 3.7445037100893583 -2.2929907889843415 1.0717548397003285 -1.026074049833762
Ni 8.922284089954037 1.8323876370858556 5.801276227052242 0.9398469631137168 -2.125799406605087 0.3689576745199001
Ni 6.846880895043122 6.402704528164923 3.492381314806307 0.3442732843993426 0.05581247898392968 -0.5521762855653458
Ni 5.310756196410112 6.131816087936512 8.962605285091767 -2.0821135356813625 -1.1174137751900242 0.41042622607733187
Ni 5.51098124702533 0.23236608169950126 3.171222659388042 1.2836024273363764 -0.15978403417158932 -0.6262294559270183
Ni 4.555753582574318 1.5619716185930943 0.023348535781165674 -0.5526817644468546 -0.1900700867496404 0.21718262669571625
Ni 8.373293692995173 2.67005496962703 7.845149813625205 0.24149832062294538 -1.4162343265732062 1.0211529583830607
Ni 1.3473467900739278 1.1266804143584674 3.012099208277716 0.9915829580354277 -0.05672702037839907 -0.29959291077283245
Ni 6.455561252357461 8.053891174528854 5.112378133080618 1.6979578132647855 1.3733395840922091 1.4939258650184142
Ni 3.812879488298 3.0295588254233365 11.309621905894648 -0.17853714640937637 -0.4407248770608732 -0.08925764601625273
Ni 6.724305624708692 3.371746607601393 0.5210775404086483 -1.0884904072874544 -0.668999499904693 -1.298863467260505
Ni 7.798883372644985 0.29743945027528157 11.174313052777775 -1.628735231522537 1.3649328480857525 -2.0156746873318383
Ni 3.8134336753340508 7.332303313456921 10.33859173438614 0.7723370210527796 2.0002079591548068 2.882981317183983
Ni 7.920304843740426 8.33871605595894 7.152210696807097 0.4649768076297024 2.4092203356037474 -0.2904557243582546
Ni 4.010642494867811 0.5586350683928268 10.669205184040772 0.9035121332384245 1.7302693809132976 -0.8396117350400379
Ni 7.664924555488064 4.477458764923701 2.2492707466902107 -0.08549303676749792 -0.30654954459632366 0.9507795508658206
Ni 2.8019151440736603 2.1859589660864023 9.152736863624154 -0.21297655903416865 -0.29737044920021694 0.5130456381124713
Ni 2.011226519129531 7.439379516848679 0.9292272074268423 -0.43457659807129023 -0.3558581610234645 -0.8879055370494192
Ni 8.280544587240339 0.43639140177668884 3.6864230917045364 -1.5805111064088264 -1.023607076350508 0.6234320956875392
Ni 2.849502548907024 4.69344634844955 8.108016169380944 -0.05486554168962809 -0.6489397530403405 1.8341913138099442
Ni 1.052537456961544 8.415938839670966 11.719736665632478 -1.2726875801960855 -0.0035558356720583923 -0.8742691772129071
Ni 4.552001463789251 5.066023567276633 3.6060832330405574 1.8657829725732964 -0.03889719128582979 0.8542454257928127
Ni 6.062115711861375 4.379649295577385 10.857010085525083 -1.5673953949624748 1.109138165444793 0.6899568188826504
Ni 7.929934979120984 2.889885522271725 10.43438250931589 0.8729823400806836 1.4344037983933813 -0.6460871140828938
P 1.121947111968589 0.5533784680803823 0.47745484414139333 1.10276208671512 0.7299405583644396 -1.429962474792576
Ni 1.2302316247996061 6.376893948338351 9.980188076131897 0.9377715686419269 -0.9633275627341601 0.34713055134247955
P 8.587073613410196 4.019872888779743 -0.5151659091896582 1.3862550066022963 0.2646109953810088 0.42904204140630625
Ni 8.468395822394879 4.099648566870955 6.043052586324557 -0.4626558728060096 1.1763519442871289 -1.9166810449747445
P 3.542781445973465 1.3646901187923113 2.110292448592008 0.7048144527207733 0.11247265068013533 0.493616325743266
P 6.587930188673253 3.8844422962156036 4.454382780143871 -0.01687697826099674 0.20274433978319922 -0.3389883818513194
P 7.6235240583850405 5.550283101418063 10.046951260915964 1.0165743378734429 0.7662301368240932 -0.5081808538210022
Ni 6.7811325084873655 2.1963249891705696 2.52337256322438 -0.9033218716044894 -0.5060172705107802 0.3817869650740844
