# total energy = -340870.4684637909 ev
CRYSTAL
PRIMVEC
9.27259988309837 0.00000000000000 0.00000000000000

0.00000000000000 9.27259988309837 0.00000000000000

0.00000000000000 0.00000000000000 13.57138721767673

PRIMCOORD
 96 1
Ni 1.478478933394013 8.844279784395198 5.3882613286040035 -1.7320712100087268 0.6144440332563159 1.2974671011336105
Ni 1.1886916472505555 5.962198160267111 12.357874593566994 1.7907103598081742 -1.8446711302953458 0.4559339807011438
Ni 1.9528465893688942 6.891210652633258 3.824728547108126 0.009682260284770422 0.21306140543849114 -1.8100429986985151
Ni 4.711936450940766 7.83189734803456 8.97133850918431 -0.7386108324449279 -0.5251503917958052 0.5479180245096241
Ni 6.661481994812825 5.891012412291835 2.353061265461233 -0.7221298040707692 0.8077709363803572 -0.7717160996393291
Ni 1.8160479258441782 1.6754660416376965 11.307231556282089 1.1544847119003925 -0.12081588043850806 -0.9455892649141328
Ni 7.350185793089192 8.564469815539926 12.630469552587751 0.374702033202845 0.2094011829780845 -0.30608777446855673
Ni 2.0554849955611996 1.8619380218100035 0.0630397691298571 -0.34267123001954536 -0.979826588830448 1.3433674632101509
Ni 3.074497340714637 4.7602652406303765 4.161136610074573 -0.10824241464887165 0.8227612391416024 0.2913964910049691
Ni 9.216444846364153 2.8371558785321236 5.336391333085064 0.6396310740449049 -1.2188242545187267 -0.1671723562158605
Ni 4.401907079629922 5.949485426064414 7.102802105420522 0.39732799813247704 -0.6071577840075478 -0.5003117354855705
Ni 9.182368042429134 5.478288999190425 2.8888728761558435 -0.3903554234693858 0.3415157762588635 1.221304340628103
Ni 3.0976324769916093 8.977044867045972 12.841423050514953 -0.9099684303867297 0.4276122509383152 -1.5246389778315548
Ni 7.346059486218149 2.2045049455039716 9.922733202730962 -1.2343280065812805 0.03668552834649166 -0.8517373146589783
Ni 2.8673660083879846 5.18906734162929 8.764428791990731 -0.12357647390278072 0.5565232496801319 0.9759277679966741
Ni 3.139034634697693 4.358464949987592 11.267942624049963 -2.677179935742015 -1.7120623709869676 0.4045983065416451
Ni 9.141642784501895 6.663475603750522 5.262562894192379 0.6000242582865601 0.23399507026736474 -0.23631163421568332
Ni 6.77073176459851 9.076011323753034 8.599075157658426 -0.04252090408134613 0.30733064573672236 -0.6362693566615235
Ni 4.827667767923887 7.399812746738232 3.9231488476922567 -0.1324156694609655 -0.039422724771996626 0.6760263248444873
Ni 6.850364850909787 8.225213209942503 3.321569469033045 0.867454468283919 -1.2796336724966155 0.15322566422778128
Ni 5.351801466543461 4.126288325843665 0.06727456541750965 0.4904343284708586 -0.6872455905990744 -0.27746522563585757
Ni 8.771795872460492 7.4807903600074885 9.222273602541991 0.8806087462776898 0.6678407037099015 -0.3290225288878591
Ni 6.654203004040312 6.483225537983765 8.027488930021857 0.7346976134334507 0.029048580626524167 -0.40345545118645354
Ni 4.778708441453983 3.1663795312431 9.930238444936403 0.6092730305783378 -0.8140966214880689 0.7490538821551229
P 0.4918910149072345 0.23500105801565738 13.603958069463918 -0.10779452847817564 -0.23036878636868713 -0.9083105830683323
P 6.200782150810793 2.393684524791659 11.894126846040216 -0.8553178329213851 -0.08151733994920154 -0.16504219724673513
P 7.082467294256033 6.798939012916967 5.703077215885258 -0.6426598335688997 -0.2948597669632212 -0.12793757908495385
P 5.392758539463455 4.957447073467975 8.896668118237937 -0.9568095591099844 0.6674666081999343 -0.06528622280231983
P 3.4315109747571113 8.242766241193928 5.529159408460603 2.907079238673451 -1.9844201001929307 3.425079649688037
P 0.9501911101042653 3.4706320729344835 12.422840281656661 0.6870095633288684 1.1714457652347632 0.6851077183204652
P 8.338515105801548 4.076791188590568 7.942193067067556 0.5539511180775815 -0.6389350764191448 0.28728966792544713
P 7.658434825255676 4.273073579256276 1.3088682485347507 0.32416288680271266 -0.18320935507406513 -1.814701837626765
Ni 8.016199539874677 0.07128681931211715 1.445244081512681 0.9467958836277244 -1.0424884866360433 -0.5238715250833816
Ni 3.6033322473872875 3.156522757751148 7.835087122334871 0.6725810466083643 -0.3104535076364202 -1.3636663226685029
Ni 8.244324037945242 1.7780117218329001 7.35664137700744 -0.1844126313535469 0.684987133582201 0.8020553740528187
Ni 6.276075660457692 3.3472879515892813 7.682789308394541 -0.5829192231751574 -0.39449027157336575 -0.6002705699694113
Ni 8.547732773062997 1.933735761366153 11.971415819144749 -1.2843313350826009 -3.4438697858113465 -3.2736514436803104
Ni 1.2111127933498416 2.3033694036142216 7.628205222940424 0.6369131608931096 -0.0702664496257306 0.7937000601095879
Ni 2.8701663335004675 3.9737447880110137 0.22693667804768844 0.7134160783468552 1.474468527624751 -0.3655499343899318
Ni 4.3001217526109565 0.864672704756919 8.24962518319957 2.0512016765938546 0.7503708011943335 0.3361655676905436
Ni 2.287077445923384 6.59649034344397 6.0145401311113 0.421983334787312 -1.0337256528417487 1.206874024135386
Ni 2.5153688507887337 8.774280929182828 8.289809848563703 -0.6140465407075811 -1.1122561422484845 0.5403769789375725
Ni 1.174523114893356 8.500043792753392 11.341852661820099 -1.900742262257301 0.07622215298853326 0.5175188433924764
Ni 7.393192110545143 4.757900727704273 10.10954363279269 0.1446878019600992 1.474730523036886 -3.312305665717399
Ni 5.087263469410903 7.656969754501463 12.020300037557002 -1.1828131265314403 0.4087436961685864 1.3714351679806447
Ni 2.8657062130398576 6.918221735589098 10.74171239063591 0.6481658509887933 0.636786148396942 -0.7080352736509161
Ni 3.2635192858072517 1.0618610284143146 6.0575204852880615 0.39796614593710816 0.7728116466963529 0.8112018164387771
Ni 7.766979877463385 4.551427749957045 5.646986332978231 0.05966476285048434 1.7651440813032953 1.1095937649249727
Ni 5.729585723936804 5.3178359338049646 4.525162184017907 0.17112157067159564 0.23174561211155575 0.5771951762071865
Ni 6.692647202438839 1.9548123805074584 1.3409996610505674 -0.0664218790686598 2.0688576991127205 0.3304795730493599
Ni 2.3600249878436 6.841889694774656 0.7036234112100931 -1.1799697435453744 -1.3945010486611726 1.2009841410135123
Ni 6.83807865629376 6.0600889954077894 13.318728266078029 0.08953866759178128 0.24206961974538307 0.05031468909415205
Ni 7.928851650604506 8.884012874153443 6.324877352732523 0.7061699383074032 -1.2086928225116795 -0.4905106902347488
Ni 9.208841314601782 8.814403468128903 3.818960990088376 -1.1529317655909757 0.12204769596308013 -1.1894175192218353
Ni 8.954734992143209 2.3778191066874914 0.3165563542468602 0.16546540082708278 0.9477626184163678 4.69795929129027
Ni 5.734592927780317 0.47959276591158406 10.907446201556334 -1.0656610680977645 0.11833425166723491 -0.016475114836887753
P 4.300047571813274 2.399628261205903 1.4172463939476754 -0.43665919163193184 -0.614482085583103 -0.7509143324026293
P 2.2393235574158066 3.082777772255854 9.504245941649684 0.8486635608296609 0.1333356101720736 -0.06306993187729139
P 3.744238672583626 6.2512343658340415 2.5804096469360545 -0.39559404616050575 -0.45749695431288945 -1.2584567813086842
P 3.1163816736056527 9.177453564582724 10.59732595876833 0.9758897156698871 -0.09752091446630946 -0.9379978257201199
P 6.237065833476841 7.802401208356383 1.1165981117636503 0.2988004967785241 0.20102350043735057 -0.13891644669396075
P 8.429228948766525 6.367605492197166 11.56324247072114 -1.3131711421324288 -0.16153572675537342 -0.3814221255354979
P 3.483595167329356 6.0565468623184895 12.644949644295215 0.8741532204603332 -0.09156726798603586 0.4610005965907738
P 1.3398999307249366 1.5357743270033954 4.190097720749469 1.0807218190856291 -0.11787299576010021 -0.36376533168568315
Ni 6.625569216135185 7.35719587847011 10.331584378193387 1.232675301469206 -0.8277851747187549 0.677243227970724
Ni 6.907001889939744 2.510435827742903 5.044361932331678 -1.1984989126978134 -2.000233927296736 1.6205519243807962
Ni 3.865607730190554 8.346220636160732 1.220444737698196 0.4344956083217098 -1.3231953591376502 2.8709020174219457
Ni 9.027432173871249 2.4521853563633687 2.7696624797614526 0.20198972100536178 -0.6643193208202042 0.14899517108620144
Ni 4.114873755600398 2.046342212246933 12.541074273301568 0.5664217397407664 0.6442575170733228 -0.5845734709491287
Ni 5.439835528192186 8.035727634864378 6.394348597021381 -0.0014015083332169411 0.3744410662319745 0.8062203040637858
Ni 0.9852693548079866 4.925595693463406 6.910428115532667 -1.7204863333846048 -0.6415046369185339 1.2953891355586595
Ni 1.4787200209864784 0.48001188741848555 2.058426264189278 0.0515768436360273 -0.12647744959965962 0.0317711217640098
Ni 0.6938658545350399 4.545678738136716 0.9919595354989026 -0.8653808735843419 0.3725276512593455 -1.614211069764433
Ni 0.25751029381219015 3.1871501545939687 10.300126156416532 -0.11368389737941713 2.1606072583128917 -0.7656349264422556
Ni 3.811261023289018 2.3968186634937094 3.922510892832195 0.1292231306655968 -0.512541187672227 0.5316043749512651
Ni 5.270452949285795 0.3895697316250183 0.1691711636329983 1.464497532454968 0.3962548196729563 -1.9355017772256733
Ni 0.8692932411925164 5.711337247707111 10.218100739380022 -0.8080398737710276 -0.4112713476864465 -2.333219554597401
Ni 4.905038339905872 5.618008531623856 10.943315399015336 2.434446457160388 -0.14401288738026163 -0.7241856581585334
Ni 3.3332121452291834 9.157406204009252 3.8570834292769587 -1.6804470580745319 2.7419807342674845 -4.4063846228362245
Ni 2.257275310454772 3.3479648513681264 5.856691738984438 1.4565965324403367 -1.2010293924291509 -1.05922533977475
Ni 0.10914869844884327 0.9834982882633367 9.472706120995378 1.076149112113282 -1.175402435889666 -0.7304272681928711
Ni 4.627175616989744 4.186615859558286 2.5645989371701767 0.7982452562781092 0.7023603347533258 -1.1007442849541431
Ni 5.143993234437963 0.480207539272371 2.4612660132595767 0.09410931768159922 1.3630867960159494 0.10774979128316926
Ni 9.071124663705755 7.098045261769184 0.03875668500876131 -0.21552040850194495 1.7555039871103704 1.7726162213106245
Ni 2.0603902008079005 3.3133038736513645 2.417810901977652 0.5397730268049866 -1.020829256495055 0.49891536935867625
Ni 5.47987461374087 0.5122517893509119 4.704942128979355 0.46786184248698137 0.5352136895690783 1.5907227568345055
Ni 7.143202822357903 3.7630805951947712 3.280597559953515 -0.37867901557272204 0.49349188435025976 -0.38875259775864013
Ni 7.484388128695049 4.037197187827974 12.073878973202532 0.38489979967145327 0.23318054478586941 3.0082220661630643
P 4.577474482543023 3.9305808363599897 5.686790821754246 -0.7211718110328742 -0.8271403420459045 0.4946288261681805
P 0.8851076599982781 4.631923188041371 4.736889016760939 -0.046145645318126975 1.7467822909666562 -0.9193380445270877
P 1.4672776329440802 6.742765603872519 8.005598176625995 -0.4498774900944188 -0.07054232899493658 1.7687024880785152
P 7.326494300829608 1.0203383269119977 3.4006907078403183 -0.21691137531220062 1.2975534901998298 0.12221481766856371
P 6.287425322502988 1.0692976533819023 6.834916699792578 -1.527318324435931 -0.04397100626431137 -0.46433223206716806
P 0.6994776318796585 7.511083943260743 2.1795644340634217 -1.008678222954818 0.19643922350077783 -0.8349205002119556
P 7.863813636237099 9.235713308561968 10.481100412220655 -0.0019542955128934087 -0.17042120217046133 0.9184795531815343
P 0.6665905024874595 0.01035378483641957 7.40944790509711 -2.227573954141428 1.72408819180325 -0.14463329457307997
