# total energy = -381168.6475073704 ev
CRYSTAL
PRIMVEC
9.25076181908190 0.00000000000000 0.00000000000000
0.00000000000000 9.25076181908190 0.00000000000000
0.00000000000000 0.00000000000000 13.53942500355689
PRIMCOORD
 96 1
Ni 0.5439753110736442 0.8979048254720212 7.1656455053174115 -0.2488380488174682 -0.3085210665003976 0.41356708569915873
Ni 6.333654206577087 7.452755843420989 12.213292133504543 -0.6098147620144208 0.35628959213392836 1.316774286102655
Ni 0.7293513232805229 7.74092631880681 7.435811223352156 -1.0170751887692613 -0.32748732319025536 0.6335815254167152
Ni 8.689628926514992 3.3597101085542516 7.709212857803386 0.08232672322437434 -2.020641030198178 0.9770346279076076
Ni 3.319395289391739 4.695557090276 5.498617557109754 -1.2656275880255106 -0.6637485359183988 -1.1265458193982791
Ni 0.8430311576638091 4.450837442243625 3.8204600175908476 -0.03425712141065713 -0.016094077348385187 0.08577482967397486
Ni 0.8283816515541822 5.250223506559859 11.315749937888228 -0.5465707664531103 0.8972604959017579 -0.02299954621896684
Ni 5.139066354871758 7.7941737027213165 5.839039109383051 1.108909851484071 0.7758854005256702 1.3490570573957603
Ni 5.08842768573555 5.870255804487202 8.49321305538463 -2.7147486380244086 1.657448026076197 0.8642560159512792
Ni 2.731315122117749 6.146002507010415 7.061784429323087 1.9823876431439342 1.5398043727180837 3.2719447454018487
Ni 2.6605837987316625 1.2435336314641288 6.503459336816472 1.7341170367941618 0.7280363993631913 0.14045319505346132
Ni 4.368773935866699 0.10347901953920584 9.689137642144797 0.41095278800476326 -0.27030701732452156 0.18749229872013515
Ni 3.695235232699343 0.41028792944742976 0.7262652692023646 0.23857343366666656 -0.6128288662503961 0.6307283722386363
Ni 7.565134095643613 2.7322309475186417 3.8503011244413363 -0.07093107979292301 0.3526314265560508 0.8266389769294538
Ni 3.5595820642277793 7.1416712314896085 13.00714901759741 1.8381790948130987 2.231567391571537 -2.241570011310204
Ni 4.688757780481497 3.691405417386521 0.5875621246229805 -0.5100184212503732 -0.791554988742127 -0.22963319375424324
Ni 5.731300114115452 4.315175023010436 11.413992101271424 0.4736357688562811 0.8144653176813973 1.2262184901002688
Ni 0.1537865114092317 5.980173354117531 1.6028517145091703 -0.06706388352803289 -0.30673389269298784 0.5100564735771603
Ni 4.013452181843733 3.7200365246164373 9.7766831498608 0.6573122933747517 -0.3499075998669845 -0.22987153501729446
Ni 2.141643823844229 2.48982398989256 4.501357701631029 1.5380907324610866 -0.08666083182335398 -0.5317534989346198
Ni 4.99210875569423 5.83256820162624 4.521911043809843 0.6716780751781207 1.3715372407761475 -0.38158564769655573
Ni 3.5691658532714605 8.363086291907946 7.643519499198369 0.28639466691500354 -0.38820366723370564 -0.5682009431283763
Ni 3.1563228634631573 5.652668640301465 0.8395658223590186 0.5651148480038849 -3.158083441904303 2.26038894378892
Ni 6.19363467861844 8.326841807860509 8.337144381082467 -0.8286889174799471 -0.771206506992762 -1.3940935288101088
P 1.6794572715272431 3.4266948734821425 6.69664021660651 0.6227091014785856 0.10009073207601471 -0.017954784706207788
Ni 8.319848232071877 2.088257678505345 0.9541513063054093 -0.02802656711991302 2.3290787929561496 -0.30425149259076634
P 8.94375659912017 8.686261649283429 9.432118181455587 0.9521180671715862 0.17736420914719778 -0.4099762830241068
Ni 3.257026654514811 4.751681461055936 12.09980471496306 0.6777399651014845 0.056896713187043944 0.1265098454994918
P 3.043149045740768 1.720660163805772 10.177613008848203 -0.7673994745418461 0.28581565448308194 0.5136431624871541
P 3.1261283775185866 5.6037506128275405 10.096944517324355 0.1536038735028064 -0.17442595245448025 -0.6448907797819473
P 6.22879682355573 4.221853339735672 5.093436973155583 1.4340584992388206 -0.12292341369981409 -2.522574874668204
Ni 2.610361413868588 -0.00826463043593121 12.206698190618118 -1.6154894222562244 0.7494585737927093 -0.18190554866097702
Ni 1.5512787184488206 3.09483305094062 11.413992101271424 1.5082700495552281 -0.9620278700861303 0.964087066608004
Ni 1.7849067032926114 3.4858904971216362 1.8093814433243365 0.7540569917966692 -0.8228337442507506 0.567826590508093
Ni 4.968944848584793 0.10808497375238041 12.234129474065249 0.9645020426582356 -0.2587627641303479 -0.23163608311688494
Ni 7.814192350878195 6.783093209374582 9.75706413460613 0.10784775031361425 0.7706789166240663 -1.4298470322606343
Ni 1.2274743092828253 6.609077132443417 9.586021252461297 -0.5674578943147647 0.4802208782729665 -1.6121223055562044
Ni 9.316627047946092 2.518399592552725 5.5843360394047865 -0.1596235973343251 -0.9427034587259056 -0.8006464095204341
Ni 7.6942932294543045 8.98419167818381 6.472630248624414 -0.6692190721146668 0.8969337086899585 -0.21209801308395726
Ni 1.1692777678988504 5.699264726607471 5.773806438706967 -2.1884937003105147 -0.2272616081982731 -0.41973850461719325
Ni 2.201958789640369 7.635772911413447 1.4128521716420293 -0.6220275020305287 0.044713540857290734 -0.260488488572203
Ni 4.239300276160751 4.070751399350066 3.2479858851785273 -0.7447079464816012 -0.23113626066233095 -0.6864495770603403
Ni 4.014756539232883 3.4435682626864614 7.275450195655913 -1.1964883100256878 -1.143762954607514 1.859175494559108
Ni 6.855665434324078 4.564677314803026 9.338547652693107 1.0257068963023304 -0.8642246484927116 -0.1480099243547967
Ni 5.074533041774538 0.948212317342047 6.828974211806961 0.017032787112570665 -0.7997424096489258 0.7268727180723933
Ni 6.645747151525611 7.3929126664677325 3.8628655088806494 0.7418540219725739 1.1348180867094004 -0.19953920258234023
Ni 6.71553489722593 2.537169387890205 6.418594699819443 1.5483247514842688 -0.8244604812208961 0.4020022636796948
Ni 6.317798401151538 2.1266853422963212 13.073654593073115 0.006792083221168948 0.00922871768711959 -0.16845327981081312
Ni 0.19320308161793923 0.9665288253598933 11.79086257942407 -0.2161909522064083 0.03674517793983349 1.613947531690401
Ni 8.317924073653842 4.530421744505004 5.634228172077842 -0.6941646863164109 1.070862666903362 0.6876973334245124
Ni 7.737318521772992 5.899034923903122 11.76325553150606 0.7939168041060845 -2.2229079161243264 1.2343940839325258
Ni 5.282693679864223 7.091356339010283 10.257955873562848 -0.27577755352078953 0.877031827559709 0.7922733549653903
Ni 0.2281108306105365 7.8238408952532525 11.522970698596795 -0.09796622953384418 -0.24589285014621523 0.4400533049151454
Ni 4.524834284483398 7.512747032560248 2.012608650239315 1.0290349322342986 0.14076378431534467 -0.012396573892139941
Ni 1.411786483902809 6.888450133523698 3.7221503236477895 -1.003821923303781 -0.20281915888519264 0.05096954906933157
Ni 3.685965969550918 2.0830772519952467 2.4061453005358784 -0.547731876640747 -1.7039945063771686 0.6705118227841613
P 1.6265614165544933 2.242967415924769 13.493728903243818 0.45291396292789743 0.7756218624516383 -0.7685204755201669
Ni 5.78994994281906 5.265829541421528 2.0219907726795676 -2.000377394853136 1.1055717882497733 0.19222364275753345
P 8.846022302550198 7.167536360993598 5.080520134698352 -0.35695165119795946 -0.1683478645812004 -0.3116477850548375
Ni 0.7684866703358251 1.7152854713015455 9.736985356498687 -0.7730551301657267 0.15850876700359154 -2.0816476517885376
P 5.788099790494026 0.019879886732500747 1.3350615920597715 0.07867421407345161 -0.026792180492179667 -0.8090829703235615
P 0.37999168512498216 7.667244002462293 0.27474206981071786 -1.3883944215428023 0.230350531536242 -1.420920676305282
P 6.076594042536728 2.5286401856717933 8.647942219403467 -0.1713938504963758 0.3267843835859598 -0.5434589602970059
Ni 0.3149394043005901 1.7369322535044547 3.139237631817622 0.007441286769393635 1.081763372976266 -0.6226684780486372
Ni 6.376540737471397 0.4621430737373474 4.622143046018612 -0.47296496804150157 0.7043825073896772 0.09866891202782362
Ni 9.116671835417938 8.13958789104372 2.4506090862872814 -1.6356926366769766 0.11393869370270053 -0.06481879624759804
Ni 3.7502680136075086 2.123484578774011 12.473533634467799 -0.9006828913197455 0.9233883033370615 -0.08276381076179296
Ni 1.766155409478382 -0.0058076281482847695 2.9442288015304485 2.475654813077898 1.4194775161008522 1.7731234999643462
Ni 1.7902351419887121 4.020630772864869 8.891814497670977 0.029167879813207828 0.03557146934670648 -0.49817540586885817
Ni 4.715307466345748 2.806329548136292 5.180251670703199 -0.7261044724478011 -2.4258425175414606 -1.3835255234862753
Ni 7.704265550486243 0.019777203278461306 13.379429267831645 -0.337833956531902 -0.6520618436090899 0.039632526789957545
Ni 1.9874521290758147 9.106347985444243 9.152542588695717 -0.41064836939046695 -0.14353491930257858 -0.055572852169297846
Ni 5.447930784013096 2.131606747480914 10.78667020318344 -0.920894076160298 -1.669196167751061 -0.5910197407951047
Ni 9.145164181223477 0.06928635442023456 4.751295704296166 -0.7482946353915951 0.3404135443336202 -0.882154750608571
Ni 9.261307493427546 5.4266170292286935 8.048849945490868 -0.7405270756310344 1.549314626201364 -0.6133536284056147
Ni 6.957803093427634 9.119780091323996 10.30206720529633 -0.22731328737181497 -0.0021291305278608496 2.0739335709737317
Ni 7.516863621483451 0.6267270741154831 2.4346866753780305 -0.6265377311960565 -1.4623023245758622 0.9716612794108362
Ni 8.571450446753383 3.4849284179126183 12.447456662522592 0.1178555122586035 0.04111091110769694 -0.4683205272909548
Ni 1.8504298478837249 8.535270718037324 5.580937309583697 0.07400869027698222 0.0055713234401904045 0.5557925421616945
Ni 7.809742734536486 1.0217651230238123 8.333935291874694 -0.8030143955319783 0.7816441573863184 0.8683445841983563
Ni 7.66604140345102 2.2420423397622518 10.607042614250446 0.4688316625994184 0.19005954522667914 -0.3305222533618372
Ni 1.2539962428622018 4.732023592602439 -0.0036114973384682608 -0.7926698190728606 -0.7114206451833812 -1.2587087494184903
Ni 3.4968989034555946 7.747031821479426 4.326536808438475 0.8028650144383077 -1.5816195089816567 -1.5115060399940226
Ni 5.878026444252351 4.706398982900706 7.025295725168746 2.165190249697884 -0.47390393491600313 -0.6206905283866601
Ni 7.089395177545746 7.03670283932875 1.0065762975114378 0.1573643689865032 0.8980439110350017 0.37539057462943737
Ni 2.872426239948166 7.562294111824684 10.69751321279233 1.7319292851142236 0.8164946894066003 0.9737407876476842
Ni 0.7638150357151118 0.5262508517998091 0.8263964381094197 0.5394012452878646 -0.5136938132194313 -0.2212871357823931
Ni 7.40202466666853 4.664298766744534 0.6179703031610927 0.7878335740264819 -0.8998367412693664 -0.9765255494816731
P 3.1098100340117782 5.882688828111438 2.983534362599654 0.6012743286435773 -0.06898269781730056 0.1723904100816902
Ni 7.3089065001495195 6.820725307665794 6.523660224977365 -0.21612436063453097 -1.7631327073002214 0.513192962323613
P 8.863987281626287 3.9527301825360848 2.1430610405252057 -0.7648854498707408 -1.2322384710421037 0.04071187589706537
Ni 7.459129618180734 5.263452095683859 3.4798081213530843 1.2682789096054288 -0.4558167383969892 0.16081196121547142
P 5.388078356298215 5.493833063197214 13.22633933877279 0.034324741423798946 1.5676579045952421 -0.10672006446707427
P 3.506769466109656 0.540215801549173 4.362564824663881 0.00605520505514441 2.570420019175941 0.37294494130242223
P 9.103545004671815 3.75220142278717 10.027067964312433 -0.6249125368878077 0.7634078368839498 -0.24704136192836162
Ni 6.0448084255926275 2.502830560737556 2.214453793367493 -0.776810740553417 -0.21241348744184704 -1.0666098051642792
