# total energy = -340872.2009917849 ev
CRYSTAL
PRIMVEC
9.19461725541247 0.00000000000000 0.00000000000000
0.00000000000000 9.19461725541247 0.00000000000000
0.00000000000000 0.00000000000000 13.45725175945173
PRIMCOORD
 96 1
Ni 3.5622612626119423 6.591538162644349 0.17978878207551613 0.10625340924330087 0.10736721113276991 0.4928668491717512
Ni 8.17585342014805 2.351716380032262 10.280115073351203 -0.34648340467678396 0.7895050481916338 1.1771633844448308
Ni 5.283438393888589 4.689512109954195 10.069684310722396 0.5395351997625676 -0.7117510319396064 -1.3971215170031552
Ni 7.618696409523566 5.038696079069087 1.4554150025752282 -0.522094635688617 1.1826773722845243 0.5338888001100677
Ni 3.7635314283418575 4.214205579701009 13.118855603518158 1.1648537138395423 0.47918189548549095 -0.8172850465183796
Ni 8.828091964980532 5.47822635464639 4.9352851413373475 -1.3403248197290851 -0.3420901607050947 0.611533030257108
Ni 2.736603046887184 1.9793619761234271 4.261534870614427 0.10820307677050398 0.39941804789228635 -0.16022343570185307
Ni -0.06117730354959184 0.32277702914338424 13.349754503009976 1.284623155291407 0.3085886865135395 -1.8629056510255013
Ni 4.063726478178131 5.893593176795724 7.026569512132495 0.31987994315664264 -0.5723537889544852 -0.15274872459136277
Ni 0.07899647126017093 0.3369716788397682 9.6656167533819 -0.7177129059499961 -0.26857023713907296 1.7260422302058274
Ni 8.841286240349303 1.0567281350924373 6.584336938624264 0.05540213091938846 0.8439399301017465 -0.7068757061251761
Ni 2.5341283863326636 5.226873110217029 2.025491369520731 -1.1908272550851686 0.3529610419813276 -0.2901227664988681
Ni 3.771613496668792 5.583697806043734 4.062085239046893 -1.6288187923752788 -0.8824229166682931 0.7430878943796752
Ni 9.007193909167514 6.811399843911309 3.039898521569694 -0.6794451207180491 0.5938782932898224 -1.5463339463064851
Ni 3.457497796722191 7.534731167246472 2.6509846124767766 1.4724203868464705 -0.5969793008126494 -0.7978387648683098
Ni 6.619425435949916 6.730661912194799 10.632896896091042 -0.41304618019868217 -1.1022206123893534 0.2172463900541162
Ni 5.335139725176817 0.21246185352006863 8.209367799046431 1.9908393734557133 2.766908093636783 -0.7307301441452706
Ni 0.7706403860912221 6.878290682453343 12.19672378857437 0.44884853460927215 0.6127363065365898 0.4692281267068887
Ni 5.8849870153008315 7.821106707759215 12.921733129508697 -0.3095423086760605 -0.6641151752291982 -0.8394289296052704
Ni 2.445317580906201 0.589682968197329 2.205535761948339 1.8025209792898569 2.2712803938904433 -1.2587270042509353
Ni 6.537933545640906 3.5393942501783973 11.886507525689717 -1.2744382443386053 1.0601697059658903 -1.9451413571979663
Ni 7.991574906600358 7.402576937368168 0.4425608213344782 0.7123791524419087 0.3303772431435407 0.7135762580738033
Ni 0.8226681262823016 4.0870808053117065 10.959195463538428 -1.4515828812758291 -0.27290588839994934 0.710844460964937
Ni 8.247525459520581 4.093103279434735 7.171436219449729 -0.48181316246075084 -0.03655363075431769 -0.1072211724732089
P 5.570301249101363 4.5347942900027425 7.657660437907014 -0.10477271093271631 -1.1020190379015085 2.335221158408462
P 8.754112076745589 6.198753319802127 7.570820958361433 -0.8014174833585036 0.6531666466374944 -1.1678577907731886
P 7.437636011919477 1.2787873298180286 8.357006683383654 0.5275088647256527 0.38811033618895097 0.5221895093952684
P 0.680654508614496 1.6296814976915215 11.481888291330318 -0.024862310459318474 0.18800163425638589 0.07216752330318539
P 5.111784089456802 7.9327477471512955 6.324194559822075 -1.906225396859059 -1.2064407932527095 0.09544860531831305
P 4.36625696072776 2.578253353227952 11.789104350693835 0.2848152382430256 -0.8800940114248003 -1.4668063830938027
P 0.46984584722774114 5.999414023638373 1.0038204700562072 0.00470460456452093 0.23250383043381892 -0.36992363797759514
P 7.971558225431148 8.142725215162901 11.80075760825647 0.4959161775210363 -0.7498542665692313 0.43638922579999684
Ni 0.5517726429199871 2.5421185084897804 8.637765232382263 1.014669664651562 -0.27047953834664384 -1.3523642673921226
Ni 4.2018388198605905 9.388991184716577 4.0186581435805175 0.21159407686434525 -0.8321041138090831 0.820892818474296
Ni 7.132089694999842 1.0379711164497225 12.447647644390685 -0.9404380597304964 0.03461707585323716 0.1393501917972697
Ni 5.905270340362511 1.9544997318048483 10.092601893549341 -1.127043327859988 0.3669614700254777 -0.05751557771796546
Ni 1.7032108496943599 7.88533110737655 1.0938550790029364 -1.516987117713252 -1.1073031691185833 -0.41762454359798395
Ni 1.555251073224474 6.993315340894698 8.101493794231763 0.8231638738966598 1.200034118395417 0.7110365223710852
Ni 6.432250618052982 0.20437702680803962 5.768369849198243 -0.2136134212872192 0.7596026042052466 0.5495347341774407
Ni 4.082106517524594 2.0617181604287196 0.5032498907223406 -0.28794812744505244 -1.8957682060814771 0.37587445624439136
Ni 7.247868312033698 7.211705883444582 5.6802651903559775 1.3662700788399373 0.4569238554182389 0.45824026023681724
Ni 2.596982788019721 0.8141759780379821 10.604166476408253 0.050083289809636326 -0.1124112013145806 -1.8915490257938068
Ni 1.700093874537556 8.46909733954614 3.7427037819548588 -1.6477878772786139 -1.4713811469486788 0.9039412503560433
Ni 8.02920847390655 8.377243115898729 7.838081809630872 -0.05462257244088658 -0.12704977716336185 -0.11672525530890221
Ni 5.4628529550529485 1.6117244107262165 2.4341075038820845 0.05434874995420963 0.6945380104954296 0.6159013345281328
Ni 6.157561435724007 2.378380769279258 7.005925758085131 -0.21726104534213553 0.750259986648082 -0.47590785271990943
Ni 4.967355045907898 4.939054014838155 1.7220303917325506 0.12170008281567427 -0.1713264875935501 1.4227965531717561
Ni 7.177980028355622 2.0593275600134717 4.721355826946995 -0.11653345101307026 1.2368587434229343 -0.8482539840960682
Ni 8.490410461709773 3.192987055391985 12.951877681283275 1.7264834315083042 -1.112389325392239 0.49965481862786204
Ni 3.001122982834372 5.376726977785149 9.123855209431614 1.8454859128871572 -0.2888071330112381 1.2055190527693884
Ni 8.920819677241207 8.965009006455368 2.048341831643709 -0.09391442806197374 0.632677268434891 2.590878801250925
Ni 1.8958104916105107 2.4121250136021812 13.120052742649177 -0.24182253673158355 -1.5251328867488378 -0.29586198297549043
Ni 1.490373855801437 5.210331994266909 6.397213610582428 0.7784590747901174 -0.06474217737339172 -0.20216018514495504
Ni 7.77881146964329 2.9949901733075626 2.543783653625171 -0.9843224198182725 -1.2728716711824335 0.08673950758008933
Ni 5.980804118867367 7.123078970357754 8.097712967728878 0.39588432370741494 -1.960720956803778 0.4208474214106558
Ni 5.381756433274152 3.819535840377532 3.909210020338578 0.6987929291170416 0.4072992504125759 -0.7485843987178721
P 7.24579952321281 0.8179512877706776 1.3008185515679347 -1.6127424556387062 1.1018848263164895 -0.6487741739967536
P 1.5598759655662808 6.262536377804339 4.101056623123926 1.8556656816336363 -0.6491881216057207 1.1246010369670825
P 3.7734708092991 8.724036484598372 0.6012562325922237 1.0252559248078408 0.20168967326643975 0.2187044626568814
P 4.932535031398114 8.058346215121631 9.886113782682298 -0.3308649814132366 -0.5639773919653319 1.4660270817256171
P 8.900830579922943 3.303009842195282 5.2526879168549145 -0.37699391456081527 -0.4814964025512805 0.06355227083034862
P 8.185636492616604 8.819881172015853 4.366191678947191 1.3455680704058957 0.5297920043328747 0.8070638830110036
P 5.00792169603126 2.0294634440568355 4.919163299921594 -0.784688600639597 -0.8106220326759072 0.9594009739862446
P 3.4119292749607717 3.2902752976755956 2.2906126334185233 0.5964766501446179 -0.4372042655021244 0.5773972649156637
Ni 8.079484639562612 5.515988646590325 12.495919383544729 -0.9111693926733663 -1.01374535306508 -1.219790732197054
Ni 5.353878354585569 7.08602466392141 4.1814240117760715 -1.2110075866877854 0.27470000418589463 1.0902760384329673
Ni 6.414854402723562 8.821002915287623 3.2628992450742134 0.9321801905970786 1.3273690308993658 -0.9935218269293533
Ni 1.495743512118763 4.590090716530824 13.197526585337176 -0.455756317472699 2.2867232108080744 -0.7160681712577216
Ni 4.340098275414759 2.8526575024304917 8.50780851596259 -0.4027931350121063 0.5513825860194568 -0.40718972141790516
Ni 4.937058782953121 0.31761333224644867 11.646726626193553 -1.4832879256885938 0.4786579046612209 -0.1511862652002493
Ni 0.8939107770417855 4.958013315054468 8.766241615467877 -2.2121136537223 -2.0714167180891487 0.26387694542846163
Ni 8.72342963987758 6.945852728035044 9.696434351119542 0.938947334117583 -0.3906567567598885 0.6372815999761218
Ni 1.397682922008688 3.9648843456246086 4.134216089806811 0.6582070372748793 0.306809997346562 -0.7268256668845419
Ni 6.2501880071978855 5.162207368984571 5.8367198734552765 -0.11085594101231874 -0.5857762330079782 -1.1097765703597402
Ni 0.6185917634495642 7.80442767255437 6.268966173459658 -1.9485843214412437 0.5034567088724555 -2.184248808991232
Ni 5.83865534032993 7.299192664025675 1.6797480260803992 -0.5300992511606484 -1.1161027696880843 0.4985978381182574
Ni 2.576350067512735 2.9359607322849017 10.043899846320551 1.1867530850157948 1.6975243252717924 0.010372344373259556
Ni 3.585955790573842 8.131673285550871 8.169063195507048 -1.8832857573437505 -0.5674473527918034 0.0982927596353275
Ni 2.0486985827826 7.716637469612879 10.393789042557941 0.7890265658933185 -0.7664905895743315 -0.4748249040683758
Ni 6.303875375754166 2.950690508689622 0.5384018309051656 0.09498760652149446 -0.18672585286775584 1.6872517397011912
Ni 0.10392307789762185 1.5885355866983113 3.9224796915666005 1.9337950789472116 -0.8191830348720407 -0.27828566465462395
Ni 3.1379572727563727 1.3367318060368465 7.002520991416798 -0.5669583289705267 -0.3048883548438169 -0.26692293134363704
Ni 7.031620115240556 8.97068208513309 10.061502021070362 -0.9746877249419859 0.6702089468317618 0.05363244061347537
Ni 2.889077380295096 7.3969130533074265 5.873431220678202 0.09622867801744717 1.2056609776638911 -1.9557093625217996
Ni 2.2807247423163783 9.057681551014154 12.51856756409411 -0.08905555730777566 -0.7569481973015351 1.2941750606459002
Ni 4.376830770256742 6.3876015579897345 11.47221279588045 0.1325323975444879 0.7596185450448466 -0.7384761066392765
Ni 0.5310332648560129 3.7109014407384753 1.5916157833871885 0.45518064747488707 0.37879265833245085 1.1083033282483237
Ni 3.591775983123273 3.8061576726691255 5.753647428487107 0.6685906945020484 -0.7396253897523714 0.39785610272180516
P 7.941703304091494 4.583305089198313 10.308765499866249 -0.945655599375694 0.8845055102289348 0.3938217847514314
P 2.2671902661192824 3.416636918855414 7.49196148689429 0.45596869059382117 0.04578209133112115 1.1383034741548397
P 7.019372885420901 6.044256170658236 3.568351776900635 0.27186099207520276 -1.639582972870318 -0.573648853616825
P 1.6267851933422788 0.06609458471141728 8.516717180356181 3.3699479988212158 -0.8720305176903757 -1.6618168445678543
P 1.6624051395294734 0.39740421841384044 5.466066473688061 0.5230839961850797 1.4739195970998165 1.2824621430843464
P 0.7736893210823614 1.6517761622986018 1.4199550427235152 -0.3109111639991291 -0.0658814331841575 0.5907605735964471
P 2.6180568501418304 5.212722594682157 11.388965653189631 -0.40678400133905424 0.8585404536237407 -0.3480749175336199
P 5.885777752361259 5.282932689954594 13.330026532813992 0.44810085780997017 0.8022852306754377 -0.9411322575840436
