# total energy = -340858.64604717825 ev
CRYSTAL
PRIMVEC
9.43267209277334 0.00000000000000 0.00000000000000

0.00000000000000 9.43267209277334 0.00000000000000

0.00000000000000 0.00000000000000 13.80566907688146

PRIMCOORD
 96 1
Ni 0.5059609859229385 4.2769150254338095 0.44970830251882293 -1.8856000072992234 -0.09963616103709937 0.7159205899362638
Ni 4.990638160750129 0.8965707678616076 5.16787618319071 -0.23345590993444307 0.656910687060959 1.060203387417303
Ni 5.87213080224151 5.534667524780642 0.3193034971118176 -2.0555046748445824 0.7060609235333647 -1.2212367206149612
Ni 1.5738036111146065 6.264746913538295 13.089182370079397 -0.4144212061693379 -0.7829870445674579 0.20576924265245208
Ni 3.982474165473472 4.718892309890051 2.0055077723742176 -0.11724718925064324 -0.08520121655869198 -1.07966381013476
Ni 3.593546228972282 4.5904570464199255 6.300755196056719 0.7996879022619067 -0.9127454789112345 2.752998425534227
Ni 5.533186595259137 6.528229743628704 9.640167316268295 -0.15816346784903085 -0.24595275684987317 -0.8132072769045802
Ni 8.144423783212371 1.2105702734451314 9.368664828348694 0.17929073674594928 2.2463633189337893 -1.8766782793295613
Ni 8.509892664172272 6.469256677587633 7.069206694963936 1.2707505110743729 -0.21045045017820532 1.8631069684030304
Ni 7.555787312766596 1.0069283152300512 1.709486939835205 0.30510844127442294 2.1585873996693854 -2.1389950793597547
Ni 5.326073413707026 7.970051406559263 5.0763585118305565 0.38853482532087924 -1.0177732432775504 -0.8373702473040288
Ni 5.277278200874259 4.42922438201813 8.241915165820735 -2.0076250775544846 -0.00786526168068968 1.1384379428501747
Ni 1.3920737502145308 8.741851504066062 3.0523089358867725 0.3049618883942296 0.08903421715153699 -0.45388146904748927
Ni 2.4161223653269466 2.825141893425622 2.92743733594037 2.2036971475238305 1.5035299637670814 -2.1787757016918023
Ni 8.856599960302406 3.289568937507223 5.853962532487559 0.9658259036759816 0.48911972342449306 -1.573836265491812
Ni 0.5536355973088599 9.353447098431218 9.978903061197006 -1.664785954498507 -2.2659641238838524 -2.614773091370019
Ni 2.692292139407317 1.7633059938345543 4.974182864251624 -0.3136969542743823 -0.48611256116705315 1.0961198988082543
Ni 4.590324989010364 3.981747849720887 10.618381634323743 -0.37778092923848483 -1.0257318360029946 0.23695595266790156
Ni 5.278815726428433 1.4830896034183527 8.424329838716105 -1.7058935231720942 -0.8880942560214576 0.08572340761074913
Ni 2.459135350155367 0.6616708208034534 8.559349107320054 1.2884309590732714 1.7048254869188963 0.1656273803262438
Ni 6.724636842334267 8.213367183675294 8.148202511660237 2.0246151843545777 0.02713722253642423 -1.642751600406287
Ni -0.27215334229529536 0.9257611149778422 11.884196238524272 0.14036706309755825 0.04743968153920217 1.2793120274911387
Ni 4.427875509906186 2.633507726808476 13.232319396302499 -0.984979336675981 1.4208085762074498 0.35838812653416985
Ni 6.8712771629795775 4.352555623095893 6.867795563703225 1.9571029004352165 -0.04567179100550199 -2.0466120003406427
P 3.136514399826094 8.770357039187001 5.491425326019913 -0.062001895624093216 4.335598296151281 -1.278101295012489
P 1.826589791030579 3.0537992980803885 6.76249958818981 -0.26110581044122777 0.14388947442851993 0.21846560717319793
P 2.6529673293744915 6.417792018547312 8.4116561004671 0.09218510407569286 -0.7478693749287184 -0.014348041191555935
P 4.0888841395632545 6.047870916350787 3.936810599781721 -0.07956767242199846 -0.12559581832565467 -0.8888828133610239
P 7.003721312097089 6.331369876661788 5.727820351607739 -1.5623586038695159 0.21446137110981128 -2.5219511250412756
P 0.5517707580324173 6.641365212933982 5.2049862018117565 0.5900396362700225 -0.051603840219220806 0.09667296464371737
P 1.8569063991969261 0.1677034774702815 11.443684791314157 2.1111014382732805 -0.37714972341238917 2.5608493447683705
P 3.2136264943375714 -0.23007890834196892 1.6828698256709864 -0.6945904609999198 -0.15746772733358685 -0.9079084625339073
Ni 3.16707625746734 3.690768780425468 8.819503147422317 -1.9496058207272229 -0.7445007155668016 -0.6281847798811762
Ni 3.138363203559947 7.673459897357505 12.126375378650867 -0.6905571714708107 0.4225286657678207 0.11417677785543563
Ni 7.131760403338531 1.4852025219713278 7.141713758950582 0.966130065179962 0.432410700768223 -1.3521462378440454
Ni 2.0074046827358396 8.300044007707827 7.341123277189234 -2.5417589037958224 -1.1109083699713385 0.12603110609086035
Ni 0.8533257392992446 4.392087951915172 9.657796980444681 -0.01290745209028745 1.3366627974964655 1.180056903942542
Ni 5.466365546021302 9.052092089813154 0.736699238045501 0.8509464433265668 -1.636483508009388 0.3349977726346876
Ni 6.216046027426643 3.888024819621066 12.180051999301332 1.254093362133666 -1.1524468555347571 1.9214396427056524
Ni 7.678647867018827 8.117851945874289 1.6823038653442965 -0.24534443384191293 -0.522764408062132 -0.9737004213280521
Ni 0.6825953173483841 1.8315702419054487 3.566943263816231 -2.435946695854998 -3.280633788535414 1.364481362370631
Ni 4.884501734151579 9.272675127140479 2.97248494814324 0.2110870553209397 1.1424313802802841 0.5645391780060729
Ni 3.7255564751726644 0.5211598504961915 13.457380123081153 -0.26784287205474516 -1.7305684002109551 -1.6725175188148096
Ni 8.88840693066237 3.339524369009704 8.073541025363326 -0.3635971815389351 -0.4126510016427925 1.1933682763394673
Ni 4.350999232197496 3.8364092378269614 4.2636460855745675 -0.007497079707993539 -2.717190928917314 0.3545515263968991
Ni 6.432601313762361 3.0728249977292754 9.593503887332728 2.482023435608403 -0.11563459334788473 0.6182706060912578
Ni 0.383369262825885 6.9546053884125305 1.265191104573958 -0.46473615237380606 0.1876511928955026 0.27977150517153104
Ni 8.273557064418748 5.307142040779254 4.162464641636188 1.006577888782363 -0.9553363169985677 0.33092051724152044
Ni 7.884100898279314 3.1074995004111337 3.453156940135259 -1.7038934620229302 -1.258966116844935 0.03525393810628767
Ni 2.0813379667457426 1.6649892524164351 0.7247423828769691 -0.9979549230000425 0.6420738791584426 0.8011768281026073
Ni 0.6919459252125097 9.305529124104819 5.480049523453449 1.1280288317017086 -0.9366855346665998 -1.5469944627086196
Ni 5.103518947908397 1.5520801672418318 11.087705178498421 2.698183791687192 -1.1070954239831514 0.03709664774198127
Ni 9.11001812924985 3.4513203988751506 11.676986843716623 -0.6882172104837243 -0.07365619203356992 0.6363729721189234
Ni 3.811318330010383 7.1020569188594305 0.6944748246056018 -0.8244753936192316 0.35214291695540645 0.030146955897025502
Ni 5.14616405852447 8.537322874672501 11.739499048333927 1.1993085530833023 -0.18960831662187347 0.02260205367023204
Ni 3.0330191214187634 6.775846819227577 5.617416584145949 -1.2252787518948187 -1.759066764760964 -0.05105490969428626
P 7.4588194434604205 2.1227096666267626 11.430251722960175 -1.619449692455553 -0.2563166165827005 -1.2999705842817546
P 0.39674384861277473 3.83942769290264 3.181433727688248 1.215558182172945 1.6806764004765185 -0.6899830441348955
P 0.039065411549759316 9.371472934836286 1.4405246705152286 0.5224183375766229 -0.1456825617732007 0.2721070466477378
P 7.802866726055114 5.0338680970371135 8.82699929194932 -0.28165972333317946 0.38183453048256816 0.3329239208247944
P 7.139315973699839 8.254314413311295 12.925584934779248 -1.0734479111320352 0.3000461962601671 0.36635391834846587
P 0.03556494692918327 5.5783502293289775 11.526532893736634 0.3516299818747299 0.4931291016942023 -0.06704305759242647
P 3.2695999706471865 2.2336284579858403 10.934890230688923 -3.28071580672626 1.209876815517452 -0.2601881837229648
P 8.517608589959474 2.6357244047546775 0.13955449735515613 -0.2508615070054002 -1.032590510796041 -0.2671733567915463
Ni 1.091209240546265 7.196949600301078 10.515322145367962 2.0940488536663677 -1.6473037385533438 -0.11433901446491276
Ni 9.111272674640677 7.88874177295817 12.293354426902985 -0.020105769610939565 0.2561242980662363 -0.41609782254081246
Ni 2.1027501324388376 4.3643841939237085 4.658211930196798 -2.356584968796219 0.5301732989316934 -0.18507057665251997
Ni 7.008994175807415 0.6670851745954518 3.788772357129486 -0.08031740610382941 -0.3652378024661516 1.5559020496108946
Ni 1.4418122302584475 8.736814457158522 13.640387167785125 0.6241862002447445 0.6129736193583766 0.2549048238368384
Ni 0.8958482251778671 2.0384947700153293 9.563339145187376 1.1570828116448717 2.3414866797021996 0.8923080369924891
Ni 5.310132197838598 6.34399079194697 6.9388669749945 -0.857275213758072 0.22446759039290373 0.4537194895483283
Ni 7.145343451179085 9.26075222959155 10.553564084642389 -1.2816707575313024 -1.7651852189538761 1.975755225429081
Ni 1.925585684840726 4.060123922295304 11.939017985569073 1.3770532854983704 -0.5092252359251166 -0.7699793194538804
Ni 1.0591664533835143 5.211098573340006 7.500661833679804 1.1724767776024387 -0.39895087844788063 -1.2727135483380145
Ni 2.15731814060384 6.282131328239781 2.890989490901551 -0.07475276753185835 0.11872865889217618 0.2601470460723842
Ni 0.31833193188433356 1.1401270781164816 7.353506489137204 -0.2471004973010712 0.30166239170735143 0.4866175258279297
Ni 3.440482258619042 5.8634999072594916 10.499501667702564 -2.4403039443824297 0.45884935457572584 -0.2567799293723642
Ni 5.676261365846304 7.132279200304664 2.281414374902677 -0.8151777703673896 -0.6777628479196198 0.4411485948618532
Ni 6.5912305606613835 0.9514925012307912 13.116379593578472 0.6259440634761156 1.284877180283742 -0.7300955958850652
Ni 6.007819790565376 5.165736853155823 3.6185069659137223 1.8852397957463274 0.32311233405101125 -0.854588153844212
Ni 3.2462352418270117 8.136896510867398 9.661690787492306 -1.1049675790068711 0.21089627946637224 0.1904521526794075
Ni 4.274302175258924 8.496564298478727 7.2566461522931 1.4680759938348458 0.6923767411780527 1.4359130359490562
Ni 6.788137590988855 3.55076906094665 1.1154040445122515 -0.19170633680148275 -0.8767747172435802 0.4470721594351397
Ni 7.800395365961902 8.48692410758078 5.758234116296833 -0.43262693054408713 0.8525137878136867 0.666711989422097
Ni 8.291931909691941 7.177952198668525 9.979980272352138 0.2808878781641614 0.6492634549283464 -1.8591986344875593
Ni 8.48692410758078 7.474788957345183 3.7779210111324213 0.8248682581822762 1.421952717114222 -0.6034104011499737
Ni 8.112098015886275 5.987784795000559 13.267178779357742 0.09058356391652787 -0.36753276914791544 0.42925929962343495
Ni 7.0966048343789865 5.615109352547477 10.9618252259033 1.3416911039489925 -1.1018508877547606 0.5711643966320744
P 5.468289811132046 2.472284495078792 2.878564775196289 0.9444320113812379 -0.36976500091254383 0.053039287114166715
P 7.47061028359979 5.728876810884226 1.648824482218965 0.7588531276337318 0.6378557273120369 1.4044717867206393
P 5.1083767740458175 5.820043586841832 11.841647341163737 -0.007341013746103486 0.5561252429107648 1.0344594456839795
P 8.516731351453105 1.3159332209305379 5.231423151938645 -0.6211931790546914 -0.804379394200305 -0.23233465184580632
P 5.169887228884881 2.763216401013653 6.44241506582716 0.11192731969962659 0.26523037413256256 0.4383705178960837
P 5.237179911728291 8.617359097538541 9.399410623096113 -0.4148940320406984 2.72119387942912 1.4463689411750573
P 2.4994317254156764 4.274830404897169 0.1831211800365212 3.049769036366915 -0.08969910442904552 1.0927766933676342
P 9.040650258541909 8.359375515289134 8.092538426995878 0.13573984873819203 0.8612329128542393 -0.08921573703472377
