# total energy = -340887.00043569907 ev
CRYSTAL
PRIMVEC
9.12793642641448 0.00000000000000 0.00000000000000

0.00000000000000 9.12793642641448 0.00000000000000

0.00000000000000 0.00000000000000 13.35965762601396

PRIMCOORD
 96 1
Ni 6.27031726058177 2.090169649082197 11.056933182972426 1.2177168803871607 0.3653933542074094 2.4339756881715564
Ni 4.900889471226938 0.5154728255132184 5.794283509958674 -1.3748560207367355 -0.09834289614697257 0.31921119922439223
Ni 2.934047371116073 1.9021250308926902 4.713033801321326 -0.5910619068869497 -0.3503855679446675 0.6725455653847385
Ni 2.9879387077400645 4.587801252019129 4.716172898656182 -0.0032701861108395294 -0.023321448334759836 0.006078344983595984
Ni 3.565371965672601 2.8239005623352966 2.6248522167914166 0.6994976684935501 1.0961098715059252 -0.4212166318246165
Ni 5.653168351285585 4.826551557022028 2.576984405411018 -1.5917280581705682 -0.058691600303937635 -0.4647754902521738
Ni 5.108321826372636 4.454533380286358 11.520286404320785 0.5690550635985554 0.37507458605091537 0.3400070529238209
Ni 5.5579548464880135 8.133730713117016 12.568618948640136 0.26237336429974173 -0.4478530034652223 0.8163460796438778
Ni 1.7993079550572162 6.490172737195159 0.2157862425573308 0.9235060598618483 0.11297375868626994 -0.08828191236654473
Ni 2.8855962845984333 1.5039188045678895 0.19186374678765658 -0.18757843067603824 0.9663285543440132 -0.3839281797868033
Ni 8.502088587348245 8.765329145766145 6.639402631345676 -0.6841782645276604 1.1448834413652025 0.556825354301583
Ni 0.046624586439987396 2.2959224639266056 0.9077230733239349 -0.9773940681295554 1.1375331716477182 0.8598092930338354
Ni 6.900792957051233 1.0183125870210838 4.7440140175309855 0.7489808628253423 0.03411673917805092 -0.1562654794953696
Ni 0.964695088489694 7.636997541074167 2.342655672809992 -0.1012227887979289 -0.32690651098612084 -0.4503451737594566
Ni 7.712220865111821 4.351725432387305 3.6209747903753517 0.13042126473875604 -0.922067784753425 0.6571338588153587
Ni 7.5605510735562245 3.910225403622193 12.692088893419623 0.5504117374657553 -0.5588845508234568 -1.7616268121786565
Ni 8.486863189399598 7.247362447047795 9.567158115887406 -0.5668873665232753 -0.2715660865426033 -0.30790580151390196
Ni 7.044996096615225 0.9234550717438956 0.4246964106094359 -0.07047290920958185 -0.42480949138219737 -1.2894619714409472
Ni 1.9955585880883504 6.2331574314157345 9.524754287248053 0.59202221391769 1.402957406958642 -2.094480284776832
Ni 0.08021904364034951 4.86507144871465 1.1166268518205458 -0.5051096710948462 -0.41500793191074337 0.6821242102121091
Ni 6.270910576449073 2.5122089173997555 6.7819636551477025 0.6164942309171253 -0.5348766179446337 -0.04773535840275005
Ni 3.6559941184508844 4.636736119167031 0.6541225285592516 0.24086068703894645 -0.4917610177020822 0.531848115530955
Ni 6.0194359280766205 6.013055500519004 4.734716301493519 0.7931966381106081 0.022195305150116616 -0.19649938731475192
Ni 5.801004409544759 2.975387795162492 9.0300593834078 -1.9768119488283695 -0.9715481508717398 -1.5803550404469364
P 0.0024599788652042136 5.601148241627704 12.378217497266974 0.6291666841784713 -0.2218275816668954 -1.0346844172105922
P 4.279286128957765 6.114850247475431 12.823106728824849 0.6301390753940697 1.9543672466716082 -2.083618145251347
P 2.6592508451903853 8.64641951802212 1.1970457972684945 -2.026208754093943 0.9650877399583766 -0.36271555026493013
P 6.435277327564963 8.128080520473004 5.609746757735393 0.9673194575023727 -1.3695137825882155 -0.4586457232053521
P 4.917338012655872 1.183500852414778 12.619132035995067 -0.09888951267906196 0.42004086634896043 -0.4041357650829298
P 3.848739623896718 6.304300567873627 8.313995591095711 0.8796687509619238 0.9357005450455111 -0.723041003031129
P 4.934808882963853 1.572515246764586 3.7555735152381655 0.6376569810376695 -0.8156937907718598 -0.46202518120054625
P 0.19856639050090133 5.810260137074692 3.4656291788234 1.6309618068602105 -0.48764982374718596 -0.536326720127599
Ni 0.7074022934430994 0.1041004636961335 4.5296991983245665 0.7704086936818151 -0.1196974505633487 0.6253077154436973
Ni 2.064282821394927 6.918930166717877 4.361313416802927 -0.4887168315591196 -1.3655691961181706 1.1091710755652575
Ni 6.035263769828992 5.970619724102178 8.860405731517416 -0.13970474692321103 -0.9891308969505094 0.7312721326916696
Ni 8.628610914066597 2.6229946817299354 10.332693498008895 0.44187004640891 -0.5085037843780597 -0.36138011928295827
Ni 2.408816781569818 5.262803022345608 7.025777226482805 -0.551540965974192 0.009241058982293762 -0.07108406043101952
Ni 0.5906486842814888 9.153129524572087 8.969594106974085 2.866013321871077 -2.2443498880481862 1.0225282414640327
Ni 1.5084645169050759 1.056239162846403 11.173630198928231 -0.013984230094233982 0.3351579523616357 -0.1532932842409231
Ni 4.3257564532722546 7.402820332217714 1.422990520267702 1.0345826015254054 -1.9161210587062163 -0.08226990184450993
Ni 6.347932103961478 8.2899005773277 7.758781555996868 -1.6567962514248111 0.8223910002863772 0.546240379696885
Ni 5.035891650879517 3.4066827910099837 4.973279483799808 0.5086943031223111 0.19641711201359077 -1.0732288531426937
Ni 1.3086266048608612 7.449162865422322 6.631039615997624 0.4013620589925346 0.3870538698999786 -0.6579357858913636
Ni 5.037133050232645 4.948710730131594 6.984148359645512 -0.018054543508865678 -0.8524559379925577 -0.6679687446473335
Ni 1.0093124417109118 7.454028055534209 11.372542538219454 -0.3460578871035911 -0.01392432339057602 0.16478688670281944
Ni 4.931303755378553 0.19964257420482553 10.570241653785274 -0.911570741876843 -0.05529131637313704 -1.2403605859286058
Ni 8.35578602240764 7.308528748998568 4.721196002068137 0.26123796514371783 0.5416087944621447 0.6567265960746109
Ni 7.4905945688329405 6.350962578852935 6.969452382009227 0.15875250758328144 0.19554062294590838 -0.8797407418504397
Ni 2.109922503495191 5.2386139908324685 2.345288169673535 0.3828683710637213 0.5631507822989785 1.5878714034286396
Ni 2.5540696338221176 5.121794660528634 11.407236911758432 0.42378027878673463 -0.5967265613718948 1.0437028186591184
Ni 0.9158241168967317 3.4114749576305115 3.7404640420820523 0.6270948892511071 0.30575224550600894 0.10804906769114295
Ni 1.5669198217390938 1.2836160590699168 2.434437073513622 1.238951621396221 0.45811299063033356 0.040342665483104716
Ni 1.142790255981343 3.3954736850861593 8.179050004648936 0.4060589502475716 -0.5701876345411018 0.1876146832306124
Ni 3.7478485426458747 2.7816199608376118 7.122741469485741 -0.10371881574690525 0.23806332679946743 -0.9850240738709874
Ni 4.233600807175402 6.958956167919808 5.892050098572932 -1.0384819365798115 0.8289043759248627 -0.0039037059297803733
Ni 0.592413114391485 9.322452745164064 0.015648021404896413 0.8155788624605503 -1.4495545379918906 0.5038917395273451
P 0.30068152802567333 6.183045060469645 7.934661373319371 0.010367459277253112 -1.5391078608716913 0.5867211134197509
P 8.747347111018641 1.4840107752357545 8.104422734859511 -0.7161054522535603 2.753246279878974 -1.7747715770907309
P 1.8471565977711328 3.1867269070959727 10.207553140864542 0.24839299086024963 0.10033292999380784 1.1295756073635383
P 4.130555532929426 6.216289004911478 3.5420190531355376 -0.7027282596157058 0.3440588543956913 -0.2835757094089697
P 6.998297573890236 4.216650229243364 10.011286990341492 1.381249325857589 1.151656755533294 1.9458342694999329
P 6.383275473779923 7.695890986856347 9.969404366871723 0.17588376794692934 1.510332845621528 1.7979873530855617
P 2.7528760890508663 8.893129383583304 5.430180166892831 -0.7480971746688084 -0.11470179712097021 0.74956810278738
P 7.211316226125007 3.9076969652338387 1.3704738508685708 -0.16109606811479352 0.16566568976334697 1.103129497356868
Ni 5.348158355809521 3.085452452515488 0.5232954670252036 0.30761166731225087 -1.0193341600067671 -0.4919337958345205
Ni 1.7834162177499044 1.2443020369087494 6.981797003223707 -1.3470122590515898 0.04873346064996124 -1.4824559167056017
Ni 7.397644792267544 0.5800447605423135 9.450768711388957 -1.0964790819198857 -0.3165200255454742 0.4137110674761907
Ni 3.0067878964474732 1.4137256648013483 8.954417087088464 -0.05609889987609693 -0.8357226843982769 1.4654596392579216
Ni 6.733487010408086 2.0725527317914954 2.4507623878008866 0.38218420051250307 0.5569500528049054 0.9341257443592236
Ni 4.312475305781077 6.8142875035983925 10.61956537102467 0.030758364228779287 0.18289413782649147 -0.09046709294332161
Ni 8.538098296525353 7.134258186866921 0.35781967163427747 0.6707252243465481 1.4537469788066837 0.41172797560789093
Ni 8.053240569764991 4.11397007245419 7.960231461612864 -0.8789557840552991 0.08023667346456505 -0.044772676230000315
Ni 2.964215200984347 8.457462106190608 12.423118729310854 1.0017673547675972 -0.43227597496257164 -0.5378557551776156
Ni 0.1667235842995473 4.9236910564042295 10.06795778360539 -0.45017368117859885 -0.025707174958117016 0.7536258177965215
Ni 8.641052291407128 2.2795286901161913 6.0461004559468785 0.37041986088772333 0.49733619779701443 -0.07752158852624713
Ni 3.883005897217596 2.6483612170412623 10.795298228570813 -0.38854048174783407 -0.9705420782047285 1.3164680677161456
Ni 1.1077024683826604 3.477606856993794 12.486951301489924 -0.005531728451506603 -0.03317185876627835 -0.9215296528617678
Ni 3.3002419244157486 8.564478032779306 7.543290145785905 0.6234979159284683 -0.6757789847203717 1.2330396267871602
Ni 5.767614418120205 8.305929233681312 3.377628569384956 -0.45210509387335684 0.247549926133664 0.5718765922077506
Ni 3.115090862071399 8.585782636383708 3.2736641119414815 1.5501990856888463 0.9979546658897265 0.19095300357522596
Ni 3.736767227831931 4.25402912888348 9.004249230386458 -0.876178478420478 0.12680217992893 0.8403820375471591
Ni 7.0241935295139255 5.987488150606436 11.346610983643725 0.6775157649058203 0.41566767698192936 -0.9183857079161473
Ni 8.624202120775712 0.28026142146037336 2.3964420381651523 -2.2031235344085474 -1.6737166813292335 -1.3250352405598664
Ni 4.848431220620894 0.7349230217495584 1.5116985447787006 -0.34872334975089614 -0.367887838494489 0.6216022415676521
Ni 6.547706120450752 5.983864359847675 0.27942804086522255 -1.9282270979411305 -0.6095190851508728 1.1629271862407908
Ni 7.95259594279749 8.39229776808785 11.727682247720804 -0.5762788350405043 1.074575596978575 -0.31368358453794365
Ni 9.327107992738291 5.086350883409569 5.60305415475221 -0.41453176360527316 0.30605897811315036 0.5321746456324383
Ni 7.479412846718375 6.619460828648787 2.6755524268429576 -0.0573631113005012 -0.6351915502163126 -0.7776129247397382
P 8.663050618179454 1.8050859388111098 3.7380451389307385 -0.3084894419315139 1.1765591752019284 0.3250769139765498
P 2.0549175586279533 3.3660178342586486 1.2393711256546371 -2.300569115552231 -0.8636448647298416 -0.5176358285863151
P 4.991237785912619 1.0837690190892821 8.001352815185202 -0.03309344011985914 -0.25872342625198025 0.3492738229377275
P 8.51671154149317 1.5881879135978165 12.281680441688495 0.022966121877870126 0.18175256802288053 -1.364195969919728
P 6.772937951615554 8.104484804827168 1.3914087730479614 -1.0108387209412464 0.566874768117785 -1.1695266938351794
P 1.4663390903265325 3.3594457200362107 5.996883535563596 2.319186730653419 -0.6461760742522742 -0.5309014353469694
P 6.951042247043623 4.419883733635838 5.967585598036153 0.4811606164784165 -0.5125206188469368 -0.47222037656599314
P 2.65836543535764 8.360623828710267 10.13020118205373 -0.22595240246854634 1.2493198520044226 -0.060309081302702586
