# total energy = -340897.42862318084 ev
CRYSTAL
PRIMVEC
9.02614920071065 0.00000000000000 0.00000000000000

0.00000000000000 9.02614920071065 0.00000000000000

0.00000000000000 0.00000000000000 13.21068173238914

PRIMCOORD
 96 1
Ni 6.436510878532158 1.8310536496206855 11.263519452240141 0.2898571715423072 0.21631925025415646 0.3528396859121149
Ni 4.618843008151384 0.2356411636727731 6.093823195996511 -0.9433140957267109 0.665880494659737 -0.8154443937652149
Ni 2.7264386225268744 1.6129187022903306 4.861174353599357 -0.3101058944890143 -0.7823080162225623 0.006542686214524217
Ni 3.2844441912325415 4.180045791719147 4.948496931265297 0.8255727404484685 1.4152231116998724 -1.1033886645555255
Ni 5.165547838078651 4.513471742577066 2.894724855758609 -0.27784497757277954 -0.5658712665539352 -1.5917416850173234
Ni 7.281394546753722 6.248035857420514 2.6424927272706777 -0.7067592351519699 -0.4342616379340327 -0.30638293711147235
Ni 5.14460717197171 4.72752687047624 11.371595854724912 0.22318589546700274 -0.40324436361691196 -0.4587987038434486
Ni 5.500399920507645 7.9142449444933325 12.357192675650849 0.6930742814657095 -0.3487531745475671 -0.38080120412204743
Ni 1.8032892147306216 6.56442043861899 0.36527020517916153 0.9318058379767953 0.2115141155560293 0.71945997054809
Ni 2.9407013518572818 1.6065913717123286 0.5019026358374358 -1.1320603214586054 0.044647977726677945 -0.3586377806511307
Ni 0.3746510820261197 9.094567394840851 4.656976683224057 0.21375148952698028 -0.28136147536647027 1.0965950386724599
Ni 8.541092953025567 2.3492990311707183 1.3793273770972498 0.3642237593793405 0.31603203016546216 -0.1509378966348691
Ni 6.698919087610161 0.7189309772778291 4.657426185453422 0.17407448265233247 -0.44408608022362234 0.8969457928748166
Ni 0.7844969249505934 7.511787004675985 2.6085679455625166 -0.13698374844762215 -0.6086973605805258 0.07348187123923473
Ni 7.617320740935616 3.9403564001373383 3.80525751222543 -0.048548855442980904 -0.7894549116799887 -0.759065500754854
Ni 7.672813506119007 3.662197560733211 12.473367339183527 0.483373050748703 0.2461445611457051 0.4192651645252005
Ni 7.966930577280493 8.710504747060549 7.165791238464393 -0.6031306651260258 0.5375191977738033 -0.8075045700928479
Ni 6.865668167635857 0.6434371681175545 0.2983187436066492 -0.4954590353789596 0.8327350625248626 -0.084343496544087
Ni 1.9446567632508358 6.549852233835972 9.124340147924363 -0.5660139627793865 -0.35821971927710566 -0.0122433361437273
Ni 0.008849236660019027 4.938666552188975 1.3679661631193163 0.24274093478079486 -1.6206470551977636 0.7953288539622626
Ni 6.275195540315247 2.029276911851079 6.9465198989517685 0.7452656187572843 0.048557854304045404 -0.005438654517068053
Ni 3.423762803887982 4.440107202009303 0.6104375667007557 0.16750531407524702 0.04547073073828943 -0.682893741388282
Ni 5.885870647560656 5.491256431384227 4.828609812573228 0.7782117346660017 1.5411721995998877 0.31679899023847374
Ni 5.4194534146253 3.0194003465928043 9.17680012698192 0.2557214062008628 -0.35592552392629023 0.11654116432255412
P 0.2886336855321894 5.381335986621159 12.449522058269169 0.1790217993552788 -0.1556011064384933 -0.29696678600389503
P 4.002582672612013 6.198130278582034 12.486379435847219 -0.1288770601800877 0.4702830503339643 0.7945796345010638
P 2.422835068572978 8.493335597692885 1.4652626356336054 0.0633974904200392 0.1393252520966052 -0.16523785819730896
P 6.273977010175403 7.911961328749775 5.970541342596331 0.3339006829157669 -0.8960574767325924 -0.6088385141440805
P 4.725631379147595 1.0518081382653583 12.609714543527586 1.0798512435552177 0.1767214333568763 -0.31090370779996135
P 4.007510950066491 6.111388984923544 8.224561245595389 -0.2915193897360786 1.2346892465754413 -0.24912292704773867
P 4.543176799541694 1.0188626937436636 3.8408864308995354 0.8629948898506685 -0.6625591435959879 -1.0067285554276146
P 0.11076168186701905 5.613082366921025 3.6315763496264033 1.2526005796382231 0.12752208881409008 -0.12149182345961011
Ni 1.296633408732878 1.012111134154012 2.7530928410673026 0.8491150465447828 0.9364505358376581 -1.525982893453959
Ni 1.859440888804447 6.517619855099816 4.8390593854835755 0.07981732653895932 -1.206827744278483 -1.0398014267221833
Ni 6.01450229958221 5.620140815582933 9.152188526001837 -0.013503948023705773 0.2545276430030778 0.8393692800119286
Ni 8.79814865563744 2.1918107802078337 10.084268405800765 -0.008994747299442574 0.3061039724184728 0.7609832866028572
Ni 2.3987713548483645 5.2272144893039165 6.992334826980047 -1.0276740473310302 -0.4454284531841296 0.09286336108964006
Ni 0.5423000691254622 -0.058744886734396 8.962773882760134 0.36951123303052485 -0.3799177730758296 1.1077335717877825
Ni 1.4796476095881876 0.9444872244672898 11.519251921381638 -0.16295960368609355 0.9091868150256988 -0.6402106006974587
Ni 4.1863370177004136 6.698576093941168 1.58356476252896 -0.6647129567141972 1.0609585204157728 -0.04398103356664038
Ni 5.456370364787967 8.027180123083866 8.152826827570262 0.5696816414389608 -1.052203399930962 -0.07616764560151398
Ni 5.184791588138994 2.832098724875082 4.788938081679598 0.6410405527979218 0.14730981296397855 0.3742639172241619
Ni 0.6895228806213541 7.209609582293164 6.695833949819061 -0.3030762413357425 0.020701751323725637 1.4036001827489633
Ni 5.126645135095498 4.6688839792276235 7.090965364343735 0.25412655090991715 -0.45679504314985847 -0.47052036315575096
Ni 8.211205252647787 6.859322784759486 9.349239291453225 0.919470456339894 0.9956026207177819 -0.07671297658202272
Ni 4.508687883509531 0.3761882352321594 10.310474535731474 0.30033544536581175 -0.12491756131170745 0.18970396165947329
Ni 8.064846243628805 7.166663164475568 4.841133594566064 -0.6195438163767266 0.1938565503752661 -0.14880002435625986
Ni 7.281331363709435 6.308375664715727 7.1405848142530814 -0.6251447075032718 -0.4875901741538442 -0.793000462939402
Ni 2.3381427107792625 5.268518147970019 2.587312266849054 -1.0722034972019727 -0.2168051887516395 0.5323602792806832
Ni 2.427736267579904 5.294314882337964 11.3857849612422 0.022486611138290303 -1.0772192052490095 -0.4874585336719863
Ni 1.109467179252916 3.3448923123179637 3.8528424681086966 -0.7281631547490427 0.28678624592646734 -0.7779826493743311
Ni 3.603699087871539 2.700696045054032 2.613628004795081 0.055765684906394275 -0.17777430010142287 0.5724867149879238
Ni 1.1194139956537126 3.226550470366199 8.210927247252918 -0.4591152066426028 1.0152358215676776 -0.45212283448516977
Ni 3.771432018158293 2.7739071410856666 6.995452458908209 -0.8690554942224517 -0.6103359246252134 0.07378757540511163
Ni 4.185831553346108 6.748662195763328 5.9118993539626326 -0.329959953100464 0.9139904070619291 0.6572508440091971
Ni 0.9084728892230265 7.158494499464026 11.392693575827655 0.1822955850105441 0.707703344232794 -0.5797305410345307
P 0.1885246649321577 5.470848308079144 8.001696596092605 1.6201773146501968 0.2588033875602962 0.05487968275701516
P 8.356923405074701 1.717829634256264 7.982963726076077 0.5760034698919306 -0.13753319319318896 -0.33176358196810607
P 2.0330137376132655 3.1116385651043648 10.416900055530489 -1.1959710040696372 0.2171216915507938 -0.05721964374410146
P 3.972561700425943 6.120090192736946 3.7536694591790485 -0.65575703307249 0.4401031843164743 0.5513699876139666
P 7.059847715031807 3.918395779172603 10.352788220491272 -0.632095427789492 0.15998123778405995 0.22864409036809658
P 6.438884755767558 7.760475466994268 10.207193726308176 -0.874632731199913 -0.04125206467125154 0.1803600585507281
P 2.2383405792514877 8.47211512096124 5.89443465790646 0.9055196505867565 0.07946071453048896 -0.2862044052810684
P 6.861443929817732 3.988844873553926 1.6088632534619478 0.18337981921365837 -0.0628642436243885 -0.7776219236008027
Ni 5.3347520306824014 3.156778337173679 0.12471069281601274 0.45430415840720473 -0.9808360039315689 0.5958742406739286
Ni 1.2533620495446576 1.0544166953795417 6.92606935274552 0.32192422728018105 0.5833647953530082 -0.11011726307408132
Ni 6.853410657043948 0.7435813906994039 9.136124688299027 -0.4279336388334759 -0.3158955045875979 0.6491289862330112
Ni 2.6541120891152743 1.5520734306408117 9.020240666770073 0.15308039689916864 0.13929774129277947 0.9220767836144893
Ni 6.236157445094335 1.9619959958333497 2.5722918519919165 0.334844791996591 0.7391093693479013 -0.4503947960504695
Ni 4.183159813187636 6.961913996385125 10.273326516149698 0.12897887586527465 -0.046034830771875555 0.45762268125747635
Ni 8.21394920199973 6.937597550483359 0.4251848808478073 -0.0868858033499665 1.2998782816782646 0.1448569805481118
Ni 7.652748376482918 3.985162204686843 8.159525132879727 -0.17665021379930868 -0.8298047762519452 -0.5248554862632058
Ni 3.134790637761392 8.479841504662765 12.415108059275232 -0.14282940859512175 -0.8389638170433938 0.23542023274966553
Ni 0.13668478232354156 4.701612796168902 10.254183858960216 0.5060247267099479 -0.2327141466724121 0.02721718384474022
Ni 8.493516120676565 2.367152754256722 5.842146175683398 0.3105992891856651 0.4051171551595926 -0.5722332042162209
Ni 3.9588329275170393 2.617429818831393 11.304379926981307 -0.7016031448723272 0.28450516320177455 -0.0977361158009091
Ni 1.3103621816417812 3.3414894540755857 12.504517482632519 -0.8037186206878545 -0.28037417175253654 0.3443671296647295
Ni 3.1200870407406134 8.51747152061097 7.98647760595342 -0.6444449504937805 -0.956598985761075 -0.421953252880325
Ni 5.437271033114568 7.854618202983657 3.4638939657750796 0.4790479410107879 0.033257219391233044 0.7499740799765471
Ni 2.967256282756686 8.346850222585328 3.796789179060977 0.7318110359142751 0.2927622610042442 -0.702350564561313
Ni 3.410097214023367 4.229229278622904 9.143720192837383 -0.18927792986564823 0.18685852179087817 0.2698010242223805
Ni 7.407372510915172 6.09868919302162 11.537046974497946 -0.7702276880192606 -0.5728086171037168 -0.6354322054722089
Ni 0.47385297463315673 -0.011020928153695668 0.3742954517482691 0.49432415044356803 -0.20963335359354862 0.5194260877175183
Ni 4.6383033857921445 0.2934022001461103 1.5995365335100937 -0.4323867895088231 -0.3420554508124174 -0.025771452537149162
Ni 5.9447482186880585 5.6484287671256705 0.39118698733125523 0.704867931666528 -0.20306624189899222 -0.12480520410355923
Ni 8.152977564261635 8.568045034489067 11.398677912736662 -1.1837790899891354 0.6438129733367365 -0.44590076483485785
Ni -0.12398408780669866 4.8770179532620785 5.740358291335138 0.6195733840630814 -0.10957373186578548 0.6445819902922769
Ni 7.812032831133423 8.864833845809024 2.4468031051162407 0.15448756165934038 0.048966402596373734 0.5570091881776149
P 8.390211843265389 1.722992591589527 3.559327441097786 -0.46620708049237775 0.016345274127242817 0.37789020112283955
P 1.7921058158916134 3.21774094876259 1.541409035379885 -0.717396660261158 0.1891465464941065 0.32437834524762843
P 4.713608548434473 1.1426382775042114 8.179234632237966 -0.25405918800709154 -0.03602475483404118 0.2962702741575026
P 8.485753632378303 1.4798822894669723 12.313451956705059 0.4506521634769142 1.0537512040340562 0.07993122640900427
P 6.306859271652811 7.819073227496963 1.247542891165716 -0.11886441313909205 -1.3513401970029824 1.0142408046442597
P 1.7401874057850963 3.1807788678540034 5.97281322434595 -0.8029213215975397 0.00638867713516319 1.2807438748416589
P 6.82379586157116 3.9619469489855286 5.916694044409186 0.42233763280293724 -0.6434895285590465 0.6682919323147071
P 2.397200804890344 8.454911280616487 10.217629759994749 -0.15334753451762623 0.03752345086675473 -0.41339147935324294
