# total energy = -340861.6881269664 ev
CRYSTAL
PRIMVEC
9.42990814373847 0.00000000000000 0.00000000000000

0.00000000000000 9.42990814373847 0.00000000000000

0.00000000000000 0.00000000000000 13.80162375808561

PRIMCOORD
 96 1
Ni 6.589487844677718 7.662224773755708 7.871010485649537 0.14405942434748092 -0.3290927200041623 0.44329752288405594
Ni 2.022206097918043 2.0467615789201536 2.7792051820646724 -1.78711904291249 0.13765403504176937 -0.49437582961710996
Ni 6.39006414566365 0.7557665951424141 10.322082208429055 2.1076466469554607 0.8667178472282104 -1.1365371262830364
Ni 9.489882435208873 3.3783117689750735 0.19179678924659202 -1.2378177649020938 -0.06371836409456769 -1.17330287304816
Ni 1.4395037793453043 7.658547109550322 9.356355877819556 -1.908061164516217 -1.2694279356082074 0.8132494429964251
Ni 4.017112611542266 5.13396265126844 3.8953979571879875 1.4612787684073545 0.005844374595918967 0.5274368738371368
Ni 7.557090727022786 0.33752093291710433 8.237650975146716 0.7558598493333628 1.1555362930933584 -0.4316398840404695
Ni 5.958768433454154 2.256350718994235 7.781272650065671 0.28027826960462054 0.1513659853112232 1.0080272196343802
Ni 7.279134752361416 6.789788525156147 0.49350293074817575 -0.05839335233722847 0.03178217750760333 0.6152238488451339
Ni 0.21773846675688616 7.707799520177828 2.9361018809929806 0.3911941173205972 -1.2838957902070791 0.7984386032358378
Ni 6.470010907543792 0.47341911222348493 5.420601685417807 0.2968109771523211 -0.71418946617777 1.2564163538398876
Ni 6.62165326161251 4.181607930513393 3.9895527617816025 0.492474498829339 0.1670844244877445 0.3719666365495529
Ni 9.336825594907317 1.2655596923388024 10.26128664715075 0.9373632774599147 -0.49175047617912077 -0.015849822548063025
Ni 7.870814343558582 2.058558394102043 12.31387779533185 0.5809279037767415 -0.08773452450350695 1.7448117975038466
Ni 9.450748316100288 0.14300833010345868 4.603172920431769 0.139112878975483 0.6898550031974634 -0.09554682145907414
Ni 5.5405048544032285 2.631840234364065 5.54992250374148 -0.3485654840167932 1.0624518171318476 -1.2369129936996375
Ni 4.0706179107765115 1.9888336527312274 1.7737704509360535 -0.3091165339925515 -0.895131108263581 -0.5282580841868515
Ni 8.320752984316915 8.450546241042357 10.262804862373999 0.5249354475715218 -0.09923738293678393 -1.1124055233421553
Ni 5.163082207848516 0.03230875153972002 0.9070374108273048 -0.03521691422076516 -0.2641322559723774 -1.2050917354239825
Ni 1.4152500554061995 7.107661301308275 5.253436759429899 -0.06336766562336829 0.6775147364645557 1.2688036717606472
Ni 2.5261781127708827 9.053673740817311 2.9068154150374297 -0.8230049797212922 -1.4273458631053353 0.4926902143845708
Ni 0.4324942535441227 1.564440633337993 7.654449814429195 -0.704556056853064 0.7189712038371295 0.35830328012984747
Ni 4.2930128662119085 1.3671009440403101 12.61436653568237 0.9627920019456645 -3.429434327112307 -0.31266182814164867
Ni 3.5566501932115995 3.8464312727795162 9.406966195230588 1.2138573974317548 1.3233213431925532 -0.3994252469811379
P 4.002279365913879 7.40286457810208 4.5804138369453655 -0.6919949323586018 -0.8887452593418951 -1.0967305358090593
P 7.798515237243996 2.206221326902369 5.294316354549811 0.6958081354571048 -0.2507694615122262 -1.1395882544045344
P 6.264844394424394 8.152985487193817 2.1200536545701936 0.940910885601857 -1.076185364667856 -0.2641407406128096
P 0.35845438617232134 6.527561637403963 1.1531146377637387 -0.3314133977175389 -1.6810150147628595 -0.4061283700329264
P 2.3024535402766153 8.214977703825106 7.660949850164507 0.4226513073886141 0.2590170462329991 -3.4710013519208163
P 1.832184017398255 4.034699390370583 3.711560010478178 1.3205718054718742 1.1879743590174057 2.0130297935098236
P 4.088987371986999 5.682623001170819 0.4836816813381534 0.26974394573219995 -0.5899398774673645 0.010786549092542713
P 7.7127879416256455 7.790905301311315 5.842723982911922 0.20900677575314328 0.6071636975448188 1.8708912403341393
Ni 5.688639282614501 5.179122481728927 1.9735081658938118 -0.24448362850351446 -0.44094676326369225 -0.9088245465902735
Ni 2.3684911875338273 6.992729579935878 0.10168364331561351 -0.2754247981670611 -0.5060563512788316 0.4060530367103007
Ni 1.7488802081921706 0.24634315034820795 6.114740058386185 1.0056057546770811 0.47016709358139025 0.03981019001840241
Ni 5.9925275048779465 2.351724810720558 0.6205832028790288 1.1834530741082845 0.07266220355141681 -0.4695860242669397
Ni 2.6947848717254663 2.6490026673225295 7.392674619280697 0.05787450371928098 -0.4953947577999274 0.1779802454646419
Ni 2.304471540635468 2.3835884705923447 11.656382159720618 -0.43993683394193905 1.9029397841292515 -0.8957836542459153
Ni 3.934591484718353 8.168610845112596 8.93893910452669 0.051920343018375094 -0.19114480787105792 0.20495266028842765
Ni 4.974135136865687 9.370707255137955 3.4366876158043995 -2.4469016522046054 -0.7979734906739613 1.2096503013289424
Ni 2.269571450317184 6.420173842606713 3.282054094848636 -1.6666867710656457 -0.8367855784451526 -0.48531603340768675
Ni 8.088098288739316 3.2552043171768585 10.517140802928576 0.09398616184017362 1.8171641831243284 -0.5422088899399888
Ni 9.309205393734052 5.842403366032479 10.359996097414111 -2.1664004679559015 0.3281871774707574 -0.7210921068348742
Ni 1.9374123632133669 5.191560530669705 10.586177160999412 1.5858093786932883 -0.5933591875615587 0.9551650815280259
Ni 3.9732163887831167 0.8995792964169481 6.15349509518437 1.9371040887157864 0.04978144229850136 0.8984820270136848
Ni 0.35824032725575145 8.526739899451362 0.3003510636905226 -0.46722189491013727 -0.2759302770485699 -0.20154749126162066
Ni 4.680666963184167 7.863506164688906 6.545571819111309 -1.0484606450590783 0.6913930371085448 0.00888804651824921
Ni 9.608322082438717 8.694167919878579 7.2433265618816485 -2.43432612953244 -2.142677670417665 0.37600326851277177
Ni 0.7975740932310688 4.710390033890254 6.430121452786871 0.84961332633744 -0.3371587848417484 -0.647249252711795
Ni 7.972874240212131 5.845307777763911 2.4501061001779005 0.5018279150197809 -0.5050777894156462 0.34584140021741083
Ni 7.504443549436464 3.9810620724212717 6.543198311212603 -0.2771566932565033 -3.038133766120832 -1.2635899887701916
Ni 6.669104559770198 4.542528237684967 8.676418003638075 -0.27880528460351983 -0.09538767017339056 0.1141299837779002
Ni 0.5988680102324621 2.5868501422515195 4.876334729754632 0.009292223935203351 0.07190732766326326 0.7473320143680097
Ni 4.495784182643699 1.9355452413860175 10.322703639380682 -0.32364892328077166 -0.3359549943416343 -0.07332529105671243
Ni 8.183792997345083 5.8763698954370875 7.038552332944156 1.0893620112591305 3.429123737850423 2.2485639261295343
Ni 0.4002430244445382 4.3331842752245775 2.3039330928761665 -0.5724766876855947 0.9636610348141791 -0.5797768208914338
P 7.421714964631734 3.923134146232345 0.9188379979724819 0.30115074217825555 1.075760875535928 0.13699120464678988
P 0.4576739944703268 5.631060263029675 8.290525413521115 1.0843694431405455 0.7863564752603232 0.6819424332186063
P 1.9440698784159363 2.469560943824388 14.321393039235613 2.0226243791767944 -0.1321271916862692 0.003897535282193288
P 4.622984214608932 3.9975738417126294 7.2479783356060485 0.006203300597234478 0.363878974445412 -0.08139624099030499
P 2.8335554010753343 0.9540709640508941 4.421847101271483 0.46562652539855937 1.1655144873519927 1.025003956698035
P 5.403299689817703 2.6639396419413246 3.226916478501693 0.09720029790209712 -0.5175910913913085 0.13771214197321444
P 6.450528717163471 0.5235022977650783 12.382403052377217 -0.7680833879827482 -0.7453306676672647 1.8376993269632027
P 5.085210025776539 3.8810956153923266 11.139745778129745 -0.48117938553149386 0.6717482662944237 0.3271736486045784
Ni 5.959598265377421 5.833841009369684 6.12805886075461 -1.151528714595862 -0.7147209132012078 0.8318696292007738
Ni -0.032823624528473955 6.147102560402753 12.666274408464327 0.2786970411604297 0.24641504119827237 1.1991231765453736
Ni 3.9245014829240907 5.734355477659904 12.121138015263364 0.27320336503571013 -1.054305019654997 -0.7541338677811915
Ni 0.8199625813244676 1.172910844087752 12.913130545819644 -0.6955559102369828 -0.3356801434136929 -0.09349482402605189
Ni 2.243978679410991 7.391275220901007 11.46485695183073 0.25517247567592827 -0.49080122489197403 0.734802000221799
Ni 6.935009111727768 0.8792276684988394 3.0346595097340168 -0.12512453511619095 2.9742099708836776 -1.4281007389934888
Ni 2.6011081634785516 0.19451826075857706 10.653846182378498 -0.04015446073169859 -0.8321082275741412 0.3555503999750586
Ni 3.111586815002456 4.147745130099192 1.842792664144559 -0.16617553952022993 0.6919501951635953 -0.6323875051086141
Ni 5.259804776450148 7.435539210080695 13.070165864398772 -0.746162933760573 0.10908110850008311 0.6096728371199178
Ni 8.026643576876507 5.909487733101992 4.828594876405444 2.394477372966618 -0.3309847948205525 -0.5931108189961785
Ni 3.9463411503591477 7.328085405925914 2.1059757445901433 2.2163716576677053 0.020870929911738247 -0.8152736725153056
Ni 7.428042433046641 7.8559150885726625 12.332219909808503 0.5515705336605469 0.60589845767915 -0.17917323733147852
Ni 3.960212545349203 3.3222132449806208 13.286768027215276 -0.7301079371802394 3.375870020732606 1.1402261450988491
Ni 6.826574597118218 4.655790865302611 12.320447612387984 0.17322164773373394 0.4141466123517125 0.0918536888782031
Ni 5.302248793343581 6.155429169360073 9.63989624412818 -0.783218958072606 -1.2487932900769914 0.19385192238957583
Ni 1.2137329167675277 3.5888816195039244 8.947979557536184 -2.311945475709973 0.3489184964808378 0.18822609156236617
Ni 8.851562517960847 2.113365020670502 2.7657901946324133 0.16971337747015935 0.09538149952580346 -0.4008804913704257
Ni 6.153232000745061 6.682796786504094 3.957105390591064 -2.715877095201897 0.6119639471469396 -1.524256911901788
Ni 3.194560577420878 3.422179702009566 5.383185695586712 -0.21251118936197594 -0.15442302696999213 -0.9218425561164962
Ni 7.739003086474289 0.48468690955429206 0.6392525351708792 -0.15801691496883755 -0.23294811706008917 -0.1930700499182288
Ni 3.275469189939353 5.634398450539178 6.643508016900717 0.14692543304136632 0.3957380279375378 -0.4191710621494975
Ni 5.440991032968792 8.183859006702615 10.60139986183724 0.5055932955994841 -0.011956401030927795 1.7359098670285265
Ni 7.63215279644552 8.483786667514108 3.86324008417977 -0.0009230260349016361 -2.43452667557902 -0.3246331415709119
Ni 2.688523412668092 -0.027397655339297926 0.6607046333781377 -0.7947482988684442 1.9712467960357662 1.0174495413895446
P 7.230712173657177 6.512747251592013 10.58261548466512 -0.91951056554921 -0.07266811708868776 0.17879708493898241
P 0.45462153317985704 0.20723260601016905 2.273734754795844 -0.5474225729304444 1.8510996595295088 -0.6437211849538785
P 0.5383610041456564 8.696629125923723 11.760528895063016 -0.7788072021581555 0.4055491004906886 -0.31634364786861
P 2.447560967949609 1.8498745252169801 9.365105889655906 -0.4666102294680674 -0.08597820393403258 0.3141425264522332
P 3.4349760874626623 8.66373760605607 12.770366450339056 1.286453009411294 -0.3475249585674209 -2.0015369623788755
P 8.310059468396641 3.0104604792625818 8.43614582820122 0.23666593223130858 -1.334645767066437 -0.749214061882071
P 0.3763551809443284 4.0134443772451 11.857181682343827 -0.03228945616132503 0.16214250710143688 -0.6381244075923913
P 5.277891340414068 0.265839485590859 8.199434386107832 0.5881403623647806 -0.6721426735193651 -0.050358654958210056
