# total energy = -340876.6264611853 ev
CRYSTAL
PRIMVEC
9.13344867526225 0.00000000000000 0.00000000000000
0.00000000000000 9.13344867526225 0.00000000000000
0.00000000000000 0.00000000000000 13.36772535938375
PRIMCOORD
 96 1
Ni 8.506136191047252 0.5668501498829988 12.950277863391605 0.4741268495600867 -0.3624299007037113 0.8772981938472182
Ni 2.09603517865929 3.6750532177553468 9.517472936414139 0.9866078734183396 -0.5092280641385939 0.3604154413768438
Ni 2.1310071543405242 1.0898122513085762 7.798169689567778 -0.48566493210667333 -0.7673259409914333 -0.04426976845165279
Ni 8.543793400693042 6.673400076096143 10.838953291342294 0.9980120014902232 -0.4885512525155328 -1.4758114148058907
Ni 4.303461899603336 7.459616487330489 12.023841091893852 0.9562616570263145 1.505586074965162 0.7161519892207796
Ni 2.5638321623211993 8.739285740071766 11.09856792178074 -0.32640797408314753 0.530582361444654 0.4558966997053052
Ni 6.774388620130461 2.007367657135806 6.9798373321104155 -1.0294982450239625 0.4367640926409123 -1.1199159727865875
Ni 8.271059484313483 0.25586260964715507 4.406109077950456 0.69504271804599 1.3511149683660537 0.5039750432697707
Ni 6.6719935249718505 8.80114658919399 6.027561120445575 -0.09646599083923386 -0.24332354675714224 1.452052878933712
Ni 5.879383699536181 1.6661054739669283 12.701532037095406 1.5653128014018332 -0.20187247870120717 -1.6375705704259798
Ni 2.0876141388112623 7.985694008161882 8.94923815568411 0.19111009797838055 -0.7806370562780427 -1.97632112523488
Ni 4.027832679935464 0.5336171828645243 0.15671262886815968 0.41477910372938886 0.07270462675357801 -1.0889660613722922
Ni 5.71632423705588 5.559603388083747 4.350954006980532 0.04802255062586568 -0.21154651145586148 -0.1412525510263051
Ni 8.739185272134318 4.156559508154663 3.1282345479099773 -0.03963998298912527 0.001364741558010553 -0.896808495966004
Ni 6.419892069564846 7.821575065613933 3.5598119267765083 -0.779503971114864 1.6953394018053318 1.2255389475347411
Ni 6.440387528804513 6.373220145895191 8.730796199357297 -1.1413142359567054 -3.0112513399076914 1.3015204452673779
Ni 8.272064163687977 5.123417270922948 12.44106160249887 -2.450636950877321 -0.8440373749115594 -0.16149381777384444
Ni 3.9207338586144527 1.9960878477949011 3.417044247626319 -1.0136242541061833 1.2897476210021657 -0.8145460503206617
Ni 2.0333249187931752 7.957142847028548 0.20319731683620385 0.18150394234718417 -0.08737122762681726 -1.0625513188241895
Ni 5.529545207888672 0.7356664251791479 2.2005547140225103 0.788051603574559 -1.5623046107031289 -0.5613700362494719
Ni 7.196536626394926 6.384034149344284 2.0262127021666467 -0.8363978560884305 -1.0547230810290222 0.17678211139148264
Ni 3.504093322011983 6.249553248343895 3.7006405747339253 -0.11735774668657853 1.5686369806790597 -3.1415725887334736
Ni 3.4908680880641043 5.8676837515477605 13.303506691255587 0.20401163653139706 -1.1333800687112932 0.6851907649525747
Ni 8.963009569873758 7.634613367469545 3.0711011719171872 1.5688295563058399 -0.29140394720413687 -0.1021985224476369
P 4.429777497323751 1.718887674923275 7.14126647396938 0.6290178173054328 0.048361936243155414 1.1672301844915187
P 1.1029735511144414 0.4956320824046955 5.839370060084761 -0.24745710930954157 -0.42029591978256003 0.8842355443969996
P 0.7629224632642716 4.530555972034312 6.142764050939205 0.6655048564878733 -0.15405175967350243 -0.43504633861885716
P 5.798251273321398 6.059677980013476 0.0942042182218295 -0.4253016005272675 0.6497715049130164 0.07172349378723132
P 5.192420477052936 0.10685769827113263 10.996892542392223 0.40273811340445476 0.23918509910873645 0.6469026680056537
P 2.1918633240882555 7.140192380383557 6.564475478348211 0.39121417192525526 0.23450466291393163 0.7410515806759367
P 2.7646401689358804 3.9192177061038533 12.204399329043174 0.027209470535256366 0.036157166646847406 -0.8007477109849886
P 7.9057763306453515 6.127731307462125 4.419063048467221 -0.15873656674368145 0.026300585567741803 -0.40438336231736166
Ni 6.810173472760149 6.549367840590485 6.4238203659191155 2.073661291148951 0.7631566401050921 -1.4110129302732666
Ni 0.45013106687876914 3.1165154196789535 0.2319256668774036 -0.6383534928840618 -0.5486093941496939 1.1722736604526973
Ni 0.6120725952187247 3.6427664760386684 11.371763990672566 0.07847701046098099 -0.9994194233607111 -1.6779628582000974
Ni 4.419027428016671 7.714859849145002 1.3603532266170817 -0.41411550200346103 -1.3049698372685592 1.2349759245779248
Ni 4.936565174164868 3.5142588505920855 5.738123039447732 -0.1839107520164639 -0.4232637441616323 0.5968301768292947
Ni 7.421447804548594 2.024401539257901 1.3431887361763026 1.2209047911968394 -0.45376448385365076 0.6908639040779522
Ni 4.779378519300925 5.109735364532118 1.9307809484181635 0.20043446070309998 -0.30509944241335846 -0.1349829159675095
Ni 1.4262885072753209 1.2418750413626027 3.8583131290771697 -0.4311272060701091 -0.4858971027221373 -0.07210941637174033
Ni 0.18072355257366932 2.436493618328573 5.913200293936748 -1.3112986077000643 0.24057015238172122 -0.009359586838029042
Ni 3.0868225774382396 5.347579506270175 5.644148070792264 -0.026130635648780803 -1.0744370145181819 2.9517069046851554
Ni 7.040025846746552 4.398769438447337 0.9226253832888784 -0.5156023430960539 -1.3302391533583091 0.02888531557578251
Ni 8.592264613787925 7.180644425380211 0.3739206562541189 1.6747263535406707 0.47923588865187783 -0.8799865393126586
Ni 6.01405640296261 1.2913052665876847 4.639857781220122 -0.5760101547601499 0.7630121441074279 -0.2878121160878205
Ni 7.333474425138396 3.974776475513346 5.1586184961705435 0.8557942583371713 -0.19302814093669982 0.05608887257376791
Ni 1.1102894436505264 5.7307733531508696 4.266336256681143 -0.7691881910111527 0.5804645909870777 0.050358912068526177
Ni 1.8338412622630538 1.244551141878299 12.911926511632528 -1.1508311743082051 -0.36374990506671545 0.17760666417530704
Ni 5.035042019762953 3.982083234600572 12.721342487670649 -0.07227499541532713 0.2812455186138963 -0.29613220591774164
Ni 7.471471703949513 4.586096474546087 9.940801897616078 0.25531157235695384 -0.9125171649505123 0.3459522147636622
Ni 5.615655363731627 2.936075004019914 10.401707694113847 0.08587021760125856 0.5643602292260473 0.1312782134224126
Ni 2.7593793023930777 0.3653690080874071 2.0516119100987296 0.15793772499146996 -0.6254861500030906 0.4931992928105054
Ni 0.44170089358188247 0.7694163454030435 1.7478836350160447 -0.85653550737857 -0.3999788054917628 -0.5951707868490008
Ni 4.297762627515301 3.6660111033849048 8.320380108152257 1.0772983952263768 -0.0978880679977411 0.18097738041975284
Ni 2.0490435842795693 8.054487144968112 4.529239842053726 1.1339408263107698 0.6315660376485833 -0.8009300021991238
Ni 2.3613344676675974 3.2504391802989416 7.0781972695631055 -0.10531984168543797 0.9252405260544516 -1.0064069104221376
P 1.5311861674213052 2.6740546231519993 2.114279242755207 0.28096192593520647 -0.4825086458658787 0.48947582121233124
P 5.0085002173786055 5.150214809875348 9.920991447040837 -0.43579864340384944 -1.1714362521530663 -0.009493284202415908
P 8.024145827858408 2.79521895571592 8.658596286126647 -0.1849394503912944 0.1910620183492645 -0.4223790275638339
P 6.930232658012126 8.18757976174193 8.46104892075464 1.4733017610101593 4.598263994880461 -1.5709214058378624
P 5.354393059119013 2.6030420582730245 1.1906263464696873 -0.7199366530741924 1.1600940876673698 -0.15849642570841735
P 5.0231594027973525 5.705656368788531 6.919041443125154 -1.6215238013757622 -1.459256338660687 -0.3766889817258867
P 0.08086755619787074 5.083111361108039 1.165696597808959 -0.7262219718622719 1.300980770713824 -0.3462772022032488
P 1.0222886638937514 5.938367512267811 9.565730426805722 1.6430750451839768 1.0157592981713153 1.3325459471146148
Ni 0.22836636185703876 4.613834758730968 8.272670624692216 -1.0910319427623856 -2.5688372480698534 -1.5979586124613125
Ni 3.5685937378544677 1.8274113142662953 11.405650912629348 0.2349036981245632 1.3872903898453461 0.2236785188327051
Ni 6.756267857594141 1.1677662373204156 9.221498046067888 -1.0442849164148338 -1.793809824669104 0.401930787011811
Ni 4.617122800320219 7.485948220391079 5.480714136908743 -0.6102261385202266 0.059355202029865516 -1.3854350818041623
Ni 4.590571864487012 8.54437794142002 7.464899274150554 0.22504454594229628 1.0563570170880192 0.8186528734001836
Ni 8.8648615284346 6.877249521180881 8.020982914518525 -0.7390044683389209 0.09347914029676804 -0.16659462933551952
Ni 3.315259266851493 1.1131847469388396 5.488320473118545 -0.40472480481718043 -0.9213879850775809 0.20416924515518386
Ni 6.304427009088961 8.262492309283711 0.034043103932270564 0.2732668712837939 -0.10259087279004912 -0.41207121787992257
Ni 3.0354560610550427 5.871254930051642 10.747183137241397 -1.047031111701403 -1.1464006493406773 0.6389983255569124
Ni 4.069252870511175 0.8969165514404748 9.29808201475087 0.05862783694553774 0.5775913832043407 -0.6096921203936275
Ni 8.463099380023493 1.4709876059914244 10.79274078015025 1.9123646769875775 2.4133970926892565 -0.31542345004718575
Ni 5.9537025729021265 3.3130855060230435 3.131483315669135 0.2962003401515157 0.3086699333734361 0.2922668094250644
Ni 9.103783417138022 8.643667663966559 9.44385733861034 -0.19608955347084295 1.4744477016891446 1.5422410071840345
Ni 3.2934668578738426 5.978043214111447 8.272336340463976 -0.4649495539361928 -1.180523044945683 -1.3616258951997067
Ni 1.8207073628037655 3.4173438247488956 4.332479779973368 0.3077175967624958 0.8567730773106728 -0.07598843971117235
Ni 6.237579296889705 6.353062624263307 11.216256977053797 -0.4548104086196619 0.033128150012536495 1.2603740529360552
Ni 8.537719657201787 0.45711358853149914 7.373235981401306 0.691041567306397 -0.33128150012536495 -0.3081402861222113
Ni 4.23652285291549 7.484523402369071 9.629575061020129 2.3111664314521034 1.3118992173985407 0.8118389358021437
Ni 3.2509963206793424 2.900883825566063 0.7047515274810958 -0.208082464166661 -0.35605742151846426 0.3839811445119258
Ni 0.11128194089844783 7.5022879603998875 5.794508385978967 -1.035288112232862 0.10029230656385953 -0.22766578561522727
Ni 7.454282553196815 8.663414180399787 11.198718928554685 -2.649956838360004 -0.5533358530910857 -0.2694809218788004
Ni 2.2220493725673567 4.907055000901336 1.8635943852662369 -0.6289139447377169 0.2870587828615637 0.7421044474204832
Ni 6.780188360155946 4.405573857847316 7.3983273921068395 0.34312168729340264 -0.9882942599818269 1.0043927082055863
Ni 1.3126136027758069 5.490517980914028 12.594897194976435 0.67474771524238 1.6088158668907906 0.5666515963633855
P 2.045234936105353 7.32428617558621 2.1927483552826956 -0.06489232979801082 -0.8045187479916467 1.4604997241494846
P 7.597120559903217 8.722534994864303 1.7407988187360932 -0.31237977812485557 0.8994932418870186 -0.03487572883126252
P 1.7216094426832667 1.4063410549671946 9.941564540595808 -0.26549802597165245 0.06591228642209294 0.32672704798546315
P 4.2233432862119065 8.981769673830211 3.7348088069155647 0.33532224585364184 -1.2273199506945636 0.6280148299622151
P 3.8232342920442846 4.106718277730924 3.9183609886008766 1.0235546258460178 0.819069392112312 -0.9065087539729032
P 7.8150629165774435 2.288330810937353 3.79385381375455 0.05716410791581768 -0.48287657072825874 0.21702913183698752
P 0.664444704321301 8.037188392829107 11.828017208321544 -0.7745743950237305 1.136238878316327 0.84585437351564
P 7.467041981252882 3.1963691630534714 11.828645589603047 -0.2644310181597188 -0.45788493377992756 0.024018988622416696
