# total energy = -340869.36766249535 ev
CRYSTAL
PRIMVEC
9.21616363722455 0.00000000000000 0.00000000000000
0.00000000000000 9.21616363722455 0.00000000000000
0.00000000000000 0.00000000000000 13.48878706717870
PRIMCOORD
 96 1
Ni 8.030734461199382 6.320242165924418 9.948277085443278 -0.24951116362509285 0.26234585349591594 -0.8239331479625166
Ni 5.898823874175396 0.1226828035313703 1.2673026605132434 0.7353535018498949 -1.3315820405394485 0.1791228437095173
Ni 1.8400715539459875 2.5073494391208193 10.325572072867024 0.36405200968816653 0.9793967003818811 0.5131428258119679
Ni 5.488391249306594 7.771695753982706 8.208978749563611 0.8808550579605411 -0.18566398726214475 -0.5755679250164087
Ni 6.384635500229854 5.5367208106487595 11.916736248121019 0.112851888396425 -1.5542706846550587 0.755490381809086
Ni 0.9298924638256723 7.573032133789776 1.7539603303760936 -0.6148888341032185 -1.1002038390696407 0.4321433060394492
Ni 5.074769831870211 2.069554024849863 0.5897284774872548 -0.7109717305714207 0.7255347159872602 -0.7252680925894348
Ni 4.206607231101332 5.830550535040621 8.904784347205746 -0.6318426883487377 -0.1118715267610267 -0.31164932771673426
Ni 5.478603683680091 2.4574623461488243 6.982982933813065 1.4124661177800255 -0.063321128656149 -1.1936012182858797
Ni 4.978396410254073 3.509542705526447 9.026912337695011 -0.09361926541905813 0.14625771755038036 0.3530615721149339
Ni 0.6461111224870832 8.532913993612285 9.608224614683092 -1.3824317762014644 1.4800272526594511 0.7545994945637005
Ni 4.589925902982215 8.889496575208343 12.631750173709253 -0.13136743070210924 -0.42847871270366855 -1.025140225165583
Ni 7.6427063297750495 1.5790513715789367 6.155661761550633 1.2655255152300076 0.8103147858481334 -2.780682778823372
Ni 1.099211819466074 2.9175608760658593 0.4771862186440585 -1.0081197793481864 -1.32019153931432 0.25888257753766386
Ni 1.0192708173528122 0.5231186558624451 6.807143142503406 -0.7280808794478816 -2.101445403240755 2.5731685284553554
Ni 1.106953396797771 7.387704302167044 11.809163344631694 1.0428204160541652 -0.047067128691131846 0.19008139960355008
Ni 9.083671923781585 5.122316019315717 6.600926876330328 -0.477550530529655 0.40318317136167336 -0.5190507066559706
Ni 2.9878617711684603 9.191924980136482 5.334882222133485 -0.9577171585259183 -0.043711067734705365 -0.06246058042806662
Ni 8.162986407282538 4.255683301686197 0.07922214136103271 1.0140595418713891 -0.2236929170104083 -0.5200662924046785
Ni 2.8516560909480435 7.584847255384104 0.420083791275652 -0.4211968343302746 -0.6967702422600581 -0.38012911775568725
Ni 8.28991141086841 8.68418810113904 0.4877737472615032 -0.8050777058189102 0.9076382395916562 3.926171200762425
Ni 1.2791021146296382 0.3002856469166878 0.416097800566177 -0.015307576891347832 0.5562597116061001 -0.9503185520690022
Ni 8.316758095115116 8.916610528196262 11.899820901651262 0.7754416281200323 1.0313404404390236 -3.8809699216354385
Ni 6.8163021657798835 5.5225924320184125 7.425118239471517 -0.1419017545745298 -0.005111610194952487 0.7946644809053862
P 0.6548452806266658 1.5677984359575057 8.697745077633 0.4611126966886059 -0.9864461510294946 -0.2406128326941985
P 4.132426331169392 1.6589923736921985 10.874511653979724 0.7016085441889658 0.515404368152635 -0.230868351712925
P 9.227683694478129 5.36436012105662 11.44274066527724 0.4907456890636903 0.7115689978357874 0.6139655509580006
P 1.2960322069609804 1.8086260041177136 5.371558866358749 0.7959813999445968 0.9544819394180724 -3.0410252287360144
P 3.5136254659525683 0.3310335331687601 0.7885248104344418 -0.5929012740885338 1.9538807939534932 2.293011872030264
P 2.7276618273520294 3.793529567310866 8.731925984785141 1.227064640150648 1.1601642787836728 1.5090357240766592
P 7.201574664320671 8.421029768842281 9.654383769523335 -0.4473729785050101 -0.24848169391931396 1.5254637877256954
P 6.47123978854647 7.824181805058913 12.766003870502463 -0.7175187876613192 0.6174619941470334 -0.17193146816740068
Ni 4.217768005087862 1.1092297891798295 3.2586344977407515 1.3716575684040957 0.6428058722284608 -0.46109521318710905
Ni 3.8595818110445235 6.031785464847293 12.173090286913023 -1.6111583989810383 0.8067278398278235 -0.8401742924117271
Ni 2.794008988317371 1.9091927801218538 12.717538831556991 1.4543527307114825 0.6007225699051654 0.3121694618862624
Ni 8.943936452944454 2.2728349429513406 3.8910163014766095 -0.1724981393041481 -1.2669766458542373 0.3523293219345997
Ni 1.3695495431216316 3.8776639238121304 4.733134024222422 1.0980662239013477 -0.3506349649513123 0.9235109449578546
Ni 3.251093832773139 1.8974421716719565 6.640515828218469 0.7322288401779841 -1.790256302989891 -0.43811649290374866
Ni 3.8188002876007623 6.438089248472524 2.939327610996814 1.0963415279007571 -1.0169579464651066 -2.7669026943201445
Ni 0.9494583789151875 5.722057858434982 0.4619085844264941 -0.133122465720003 -0.22137326773829613 0.3417152938641792
Ni 8.852853109171644 3.292741675584971 11.49156974268057 -0.943474275453659 -1.121844814378184 -0.8505204115327417
Ni 7.949383386072132 7.492280109289384 2.7313040551633234 -1.0604561268580575 0.44364847846557137 -0.7011534589294183
Ni 7.598689932946257 4.156314626935772 3.9745654315962513 -0.5193774938677701 1.4380966738639362 0.46060927468962604
Ni 3.360987366229276 3.4418131200375885 1.4134765431645688 -0.20036426958679687 -0.2901767596652551 1.1553840837862102
Ni 6.974921555608261 6.651130083710034 4.5352943290455086 -0.5966031484201532 0.08150834108813704 1.5660597068701867
Ni 1.0494445366194505 7.369115300407481 6.235947448178425 -0.6230448875514495 -0.006106370008053999 0.1189528590878403
Ni 2.0176485920735328 1.6120544530370402 2.3666886654692805 -0.3009918480028881 0.5892971016770432 0.33839831367580436
Ni 2.009188153989607 5.48488910718035 10.376276639540592 1.896915689422359 0.7582085520711975 0.08955563687264576
Ni 5.215906159557839 4.171760916945205 3.2778962794350925 -0.2467405428584912 -0.30193518575276385 -0.1555409426245192
Ni 2.5216621410209683 0.13233304832187023 11.216722550229298 -0.5298197722470166 -1.4057701938170886 1.0497587950452114
Ni 3.6713969687398555 4.072106541126587 6.79849653791698 0.5104933040042627 1.4515795388417194 -0.0015272352778038214
Ni 4.559825913023498 7.594017338056768 4.797502474886436 1.2468713904639301 0.03065294899916656 0.34068171039334233
Ni 7.526711696088456 1.772581588707872 13.06495593856213 -0.5345287476869117 0.3772026881375116 -0.2777236215035669
Ni 5.403713139159413 1.001861484519984 9.05177201709325 -0.9335405612797149 0.446312912671612 -2.3399728141608347
Ni 8.316039234362886 1.4406430282843825 9.968618079882313 -1.5668588057327144 -0.2679097207369386 2.125805320142358
Ni 6.653894932757068 5.154563375367631 1.4802190775436364 -1.637031152982742 0.49228089476129405 1.4732680795587467
P 0.7182460341242172 1.364489869365558 11.888248165156723 -0.8782261049781261 -0.5470153101896966 0.8833086617073562
P 3.0613698911656217 5.356563246743982 0.7163733097030257 0.15023778524405093 1.062312720450822 -0.611746946040127
P 5.586561822803304 7.8389553151335685 2.8069355792286075 0.22454806592185197 -1.2198331553992154 0.06445472803995997
P 5.752978086944319 1.8617756189652095 4.664813682653847 -0.8203719129738194 2.1433808671322767 0.66366677483787
P 3.79863532188439 6.414975110439315 6.642633702588497 1.1487007582287636 -0.5117433743612798 1.1114480445248924
P 6.0067912294621 3.8558216163405565 13.28319100354267 0.0993422839457644 -0.5551297117667149 -0.39645819393301396
P 7.149401962803128 4.173364529392486 9.499599225323196 -0.4214853121049708 0.5421677522894083 0.5771969759793996
P 1.119404433672917 7.770497652728991 3.976993890675897 -0.5145309644087461 0.20682390916921153 0.8740010111531851
Ni 1.8351777711327362 5.473304389673275 7.529791737926852 3.2315611993784796 0.0611904554663914 -0.6095612512427179
Ni 9.195961659745153 0.19144552094747097 2.772012770915513 0.13454479998882635 1.344765629109258 -0.42813727020384973
Ni 7.669442420059875 0.31356521688959527 7.968717053841696 0.4058936283143009 -0.7649849515630825 -0.43689470468150565
Ni 6.094750293811762 0.5457166887402083 11.034232375345173 1.267551801631417 -0.9863839303329915 2.3220033741666075
Ni 6.121219115355373 9.197703514644784 5.8571142830681815 -0.8883061149219476 -1.8506869974721223 2.188780635423314
Ni 0.5175908010010738 4.4539414106855615 9.179375330311991 -2.9662212962512466 -1.0187029541806714 -0.21887826923058432
Ni 2.7243716569860585 8.622707074496478 2.9831265063672388 0.5771285846353094 -0.1773724366773139 -0.64357231808084
Ni 1.5925714834189364 4.265203598571486 12.333054314994609 2.1853438418276236 0.017668878034672795 -0.758665437102958
Ni 2.646743911908816 6.2386975513638765 4.838846184303093 -1.2655869645955624 -0.860264378293383 0.6684346285401584
Ni 2.811943642469136 0.7218329649545702 9.11276827353623 0.5863717005001321 1.5150351361932035 -1.83717816435241
Ni 5.432421488431123 4.993372675925511 5.5019546771149965 0.011382273695012655 -0.10869852834968376 0.06085724049668874
Ni 5.4373152712443735 7.161419839994238 10.720010967615082 -0.18411618315905065 1.8530778663018022 -1.146070519694768
Ni 8.649480029435265 8.774488071015192 5.053951440162389 -0.5118284778759186 -0.1521332024945509 0.20923251861070416
Ni 8.074907532807504 2.924463782519956 8.007470099701283 0.1021985224476369 0.07587685383397255 1.190476556613969
Ni 2.617851239367304 7.880953372158024 8.364544824427714 1.4106570895957447 -1.7127642821499987 -1.6997616992427438
Ni 3.904529040385817 4.007362992608526 11.3393758620375 0.1816479241242162 -2.1388721806286455 -0.7329860300589828
Ni 0.46043307665172656 3.9300485970899466 2.41651585337859 0.8408047269068745 -0.95479355712122 0.33637845503229813
Ni 6.2168460277288125 2.880714654432378 11.116541009859045 0.19382004071037587 1.0234862345019275 -0.006604135580078949
Ni 0.29815763476682017 5.761539902826637 4.104893964359022 -0.8366894191869203 1.4595224478378799 0.1489640607379499
Ni 6.733531801475157 2.6701253186832385 2.335300255854645 0.13379635185857602 -1.4407544232017573 -0.38694588356720455
Ni 6.669700653142617 0.30480986157398554 3.7040341685074014 1.3509069661203057 -0.5387718392339819 -2.0849425204897254
Ni 1.4268372153761895 2.913358305514367 7.2972854437818695 -2.221103001705104 1.7870941032118255 -0.5810867979521089
Ni 8.299450140080678 6.79287467818801 12.792981424270728 -0.1860977323654537 -2.289511057965857 0.18053052269032135
Ni 5.033813201320137 6.574599062088115 0.4774940385046284 1.2046806160284929 0.7413218036181878 1.7355774233897723
P 0.6773400924733396 6.864428971525267 8.452451356645481 -1.7069417619309508 -1.1599529341038153 -0.237022801350095
P 7.5442316228831645 7.54221328307883 6.649202983924251 -0.11790333477740339 -0.2596798766279786 -0.6051042439126288
P 3.181456501441826 4.386174960542743 3.700001175364127 -0.26232502756030945 -0.2931139879167081 -0.331817575134493
P 7.708887599797569 3.6820416375709386 6.111351369106507 -1.7452020909637298 0.9781646277469929 -1.8234266190942727
P 3.135421764808699 7.330794492615581 10.436490443703262 0.7784806720566722 0.45456255427491393 0.8003725870337571
P 4.356821479826724 9.29072225275052 7.181039208831995 -0.8481064027746104 0.9826329479309918 0.26869750674555665
P 8.601445385324784 5.606164602546779 2.1114811174154458 0.08170374492839477 0.7625040941227578 -1.0270945206784763
P 8.580626072000612 1.9230170253570271 1.4142718980737659 1.1238613305875806 -0.3564780539956506 1.2653733059228593
