# total energy = -340885.6530649794 ev
CRYSTAL
PRIMVEC
9.08797269058437 0.00000000000000 0.00000000000000

0.00000000000000 9.08797269058437 0.00000000000000

0.00000000000000 0.00000000000000 13.30116665902996

PRIMCOORD
 96 1
Ni 6.5882710839170135 1.9122457184588029 11.229882115384493 -0.4215472756911579 -0.5307931919038794 0.5647027001671306
Ni 4.451525182566839 0.3819193148992023 5.545109986351964 0.9064048814051874 0.7835711992057022 0.6153904563299853
Ni 2.53342680986434 1.8968870450553128 4.670159079255872 0.012921593157674521 -1.834270760897628 0.7252768343401832
Ni 3.953513381479351 4.554673669625782 5.334472596602417 -0.6373121961037411 -0.06871170354410101 -0.5499545953236786
Ni 3.521562051971726 3.224912455973664 3.1121934251506884 1.112077707689091 1.1863705048653954 -0.22183735185890824
Ni 5.23618980998148 4.818006758702427 2.1399048805661818 -0.9812167843097551 -0.7155200120637355 0.7369547848987438
Ni 5.418739912144738 4.882467747134945 11.467973361042088 -0.7741807591297376 -0.521744965658682 -1.1728804407987605
Ni 5.966481098358794 7.955974582456452 12.807147896535234 -0.7546802272029647 -0.9847404811922976 -1.600108826035096
Ni 1.8029628500108925 6.56627819064101 0.31012705910893545 0.0473931445719829 0.8959307213467409 0.5507020150126646
Ni 2.7044624509611945 1.4808305793244358 0.1682610831145555 -0.6697638888745433 0.6436635922430657 0.2845396159841358
Ni 8.097810568141819 8.751690184343662 6.754212916467918 1.3023439696099377 1.7562722327349622 -0.3169478571115122
Ni 8.56107905063668 2.2575159669472034 0.9987136420136953 0.6614800515991963 0.8714283653300025 0.9635054830729213
Ni 7.280910902524706 0.594611495214742 4.340742798668293 -2.3028124030604533 0.4966941933376414 0.9710437004314952
Ni 1.3349777098258482 7.716252045748012 2.6301464652276443 -0.8551648522832884 -2.223390769298016 0.6601693032075728
Ni 7.660833589881455 3.862161082632083 3.7504898950300674 1.7656477604125913 0.4983540975385675 -2.3128972981002813
Ni 7.788710449917259 3.841976695869272 12.175329333402605 0.1392200939773086 0.1877967173344314 0.5009956489264726
Ni 8.377801910679173 7.466623619092944 9.033646346519971 -0.18257454970354364 -0.0727442217422618 -0.012122751405462992
Ni 6.924162544859614 0.7876082216841019 0.1953768664482795 0.90532218986397 0.8213034236491532 -0.7532864321792316
Ni 1.8426409376319797 6.63125719350193 9.137635471028515 0.45764119320023766 1.0266394354189288 1.463119421160519
Ni 0.28823140713791245 4.778237791357059 1.3006369884117843 -0.4900900577575624 -0.27948457005873156 0.9673371981141856
Ni 6.480669490368301 2.001553223509748 6.531790244073611 0.11207464391076828 -0.5277536337466071 1.5091817627362203
Ni 3.39861996096438 3.9811862575229178 0.30365460514564213 -0.12418891067579901 1.1159947833553103 -0.3917777577382091
Ni 6.133054544993451 5.620165733041161 4.687717041986962 -1.0600342088292904 2.681194199107731 -1.4341703422263365
Ni 5.1604052079035485 2.995241216770704 9.406332281432224 0.7311564330494118 -2.061464234862127 -0.8375219423905447
P 0.19749981680748382 5.466033720660574 12.36757084936319 1.1983834701658715 0.40715346886333104 0.05880781416682776
P 4.134791167502675 6.121721843375609 12.902158104284812 1.3202342196267973 0.08867529115022148 0.926502937706643
P 2.5032910932927583 8.764486049522429 1.2662044784761963 1.656748428906011 -1.7684356075703738 -1.218970550288604
P 6.360417439199674 8.011583885744 5.649457176974172 -0.587327379545182 -0.2964782764032507 -1.235400670820169
P 4.686949108316788 1.4934901249167802 12.70218817657137 0.9598156929261598 -0.9644989573344421 -1.2195786161862479
P 4.208112929052591 6.370368769008444 7.896955471913881 -0.4941883961966521 -0.34395215361449794 0.833101701835662
P 4.553664904686263 1.4373537192284023 3.339789880248313 0.196515585264668 -1.1849648827671204 0.4486287052889822
P 0.3753205381191584 5.788593126051151 3.4162179107741544 -0.37002159700804016 -0.09653901016901438 -0.7564676581206907
Ni 0.41507132951967074 0.015376849348346336 4.706949918036552 1.3685455051376754 0.19822074088123282 0.1391884694084248
Ni 2.062815245647575 6.341369048990374 4.618111352362896 0.622811945605037 0.1334114577153315 0.33179546364730594
Ni 5.982830360756947 5.912135023238752 9.100272089984863 0.9544055776541822 0.43218650057255886 0.9992564154202855
Ni 8.890118180368493 2.667147236171413 10.072347976014553 0.01694074161939663 -0.39277585998542036 0.23168930495232357
Ni 2.2481826192635443 5.400000512997995 7.278850659175256 1.4778968365800094 -0.20731756097617843 -2.327132467863057
Ni 0.6495546501233103 0.4086706705385595 9.131650132387366 0.5671866429312491 -0.765997451987997 0.457913730135334
Ni 1.776834929280103 1.1861712492881278 11.28536146066632 -1.533370701277598 1.8907388711876856 1.2214858605112897
Ni 4.432513144247253 7.045232513546771 1.532094922994109 -0.9535522285149514 -0.3095489935442798 -0.3797293112141073
Ni 6.169460962540422 8.333816124127166 7.7494322330830085 -3.1512077978303923 0.6478742878903035 1.9879620519079182
Ni 5.862487429864038 2.776284697060474 4.470840759165525 -2.0999454216564613 -0.5041555347116929 -0.3184288125324129
Ni 0.9771660593866685 7.523041751926593 6.917697361274263 0.3920248407520087 0.43650981053826116 -0.4244443947332948
Ni 5.384514607980511 4.4661386422312255 7.393772614514803 -0.036487296292756516 -0.39247684068776273 -1.2076474119663008
Ni 0.9555639489250732 7.541317664479503 11.313027975129186 0.6628190821255939 -1.3603915085719733 0.06606346728797655
Ni 4.502363300329635 0.5636878514336439 10.075952265879538 1.2430293910100205 -0.7661432335372418 0.7679329784478128
Ni 7.949667529591351 7.298914175904773 4.3137542469485615 1.1356084438211798 0.03353952651834224 0.7103297261120476
Ni 7.1652301014874125 6.386536271958034 7.055391049126903 0.6698070834076529 -1.381529318991853 -0.9395803397158915
Ni 2.6295412062639327 5.289608911913856 2.2595489463793696 -0.23580975487860034 0.9244699664370144 0.7733963155552293
Ni 2.6494256899366166 5.639732137678862 11.64237791351804 -1.843770729968263 -1.4103225890744615 -2.3115801219507546
Ni 1.111540819708565 3.6329169781332435 3.697870534671365 -0.3376606641788314 0.3938073865737282 0.13302039292449994
Ni 1.4381807247193594 0.9618800897626033 2.557987055351282 1.1621607403884116 3.267259424111037 0.1265926350212852
Ni 1.033538752358177 3.5168726581988263 7.847262438677026 -0.02315895461496657 -0.8410500101484613 1.3336072984995937
Ni 3.41885887556176 2.920347235990726 7.11138840883713 1.8179164879093206 -0.5868805218157506 1.0871763164617212
Ni 4.130974219082873 7.008535280882101 5.782189740678311 0.5461323933641111 0.5593725462034689 0.21888366854722302
Ni 0.5838095311867015 8.846305065292619 0.10661918372923428 1.0565737610845158 1.8511904194711022 0.30046194364134704
P 0.12908465157149915 5.74553431268681 7.892499639032383 -0.36491975700510054 -0.20184908166243948 0.3083310619767786
P 8.771365644650501 1.7206167318398722 7.710486636039625 -1.528751971558664 0.07084983293302637 0.2707479615166821
P 1.8303267349919035 3.595392739977616 10.132336773215203 -0.2721219590460733 0.031874223000777364 0.0426707993956491
P 4.25812404132443 6.219435722922548 3.6529259670281933 -1.1064732170181202 -0.6680147673939205 -0.4986688005655089
P 6.825648923739003 3.960256657021002 10.221627011118535 1.876811719583632 -0.05003469595988803 -1.2680729642422097
P 6.436901815154569 8.294401587706494 10.146275905325425 -0.5362321035312636 -1.3376169338796189 0.4425416185546378
P 2.367798512362205 8.495345746064228 5.434443928500496 0.21279195382718838 0.107093388646093 0.8869904814343176
P 7.100632793468473 4.037477158742573 1.4633943954238822 0.7996791605111582 -0.24273862078794967 -1.0853816864551438
Ni 5.535883876742956 3.3416929016747576 -0.12961902435027145 1.4009792001863484 -0.6707154541545353 0.9816528434059095
Ni 1.480676083793158 1.0499061907011864 6.846483100530424 1.1098213075547467 -0.1453254355440981 -0.45876605083330024
Ni 7.3282955907648235 0.9423954768767554 9.186025289019177 -0.970327391090761 0.1294768985476157 -0.9783320065627924
Ni 2.80606598270736 1.8340073638252843 9.154195574386998 -0.5521837417645136 0.11280997941489604 -0.5304890303998993
Ni 6.167270761185249 2.0554994278429537 2.0638221929926086 0.9535645698101255 1.0685712997660242 0.6185336299446573
Ni 4.58793564871263 6.861373743353867 10.70649487768326 -0.23375390079083613 1.7864958075061943 -0.7744342699014405
Ni 8.334833977039114 7.064489927121916 0.09027810050626645 -0.6471952595454079 -0.3009892768997268 0.949114761568888
Ni 7.820027602904495 3.8337702567666962 7.905894401594161 -1.1819451221041901 0.5910675633139046 0.31797501282444596
Ni 3.479366595988055 8.185763965300978 12.328850634036023 -0.9451285232276302 1.345960677858624 0.7979428945463419
Ni 0.12109450621271302 5.100560909464506 10.15530753232447 0.5843582696145291 -0.6876446258097061 -0.6977012387147596
Ni 8.68132201383288 2.511197629305206 5.598274625056352 0.8349359268309232 0.39699632582467115 0.24723702287893548
Ni 3.4829563450971546 3.093600342360037 11.347065158264153 0.747832351043196 -0.5280374835356132 0.644743969791438
Ni 1.0597302888959632 3.470578526650081 12.70173559554445 1.0787004177802262 -0.7562290597473234 -0.8261766925810545
Ni 3.3206996853658453 8.451905237857906 8.110705492220053 0.13121187896085146 0.12908249132267446 -0.4619534474223464
Ni 5.816756752605835 7.901492187749989 3.302586447519398 -0.48013474631706343 0.3196860819782817 0.9855817461466702
Ni 3.4274560974787436 8.688283400712804 3.5112281185237326 -0.22054485829972983 -0.5545843807862061 -0.8013763457079232
Ni 3.646421705161401 4.568042077067518 9.340997030052122 -1.2370315215553727 1.9083624978067197 -0.4914679119416955
Ni 7.620655663776822 6.434757053661537 11.171143823189949 -1.8633568796303068 -0.4913082464353796 0.09777776767212193
Ni 8.488338919322162 9.043332307533841 2.336642216486948 -0.9092282097865954 -0.03441858668918588 -0.560416414086951
Ni 4.838836391507634 0.2520703648464999 1.2363659386030135 -1.2449525761746623 0.2493396710442351 0.7777196255209317
Ni 6.2821518206488705 5.673248579993698 0.0809120361218659 0.6965748384198003 -0.030005802333470905 1.0510500030528092
Ni 8.161580870669802 8.71390239498762 11.457890255633112 -1.5682690558166799 1.2668411487176376 -0.5354029227617488
Ni 8.875259345448548 5.341882929320291 5.60273045793785 0.8848742064222632 -0.6078368123524436 0.14794487544481616
Ni 7.400126924836531 6.09918367175392 2.3963910912154955 0.3291893934830266 -0.5345187203845827 -0.5664286817193018
P 8.712893630048102 1.8440586613307637 3.440080199978618 0.1498228091938194 0.546968001891529 -0.14400748806362296
P 2.0093779677703427 3.16947582416225 1.6391157951046653 -1.4754128938158912 -0.43738938492973706 -0.6663132113217816
P 4.791306295708667 1.2405900281875946 7.7090634595573855 -0.48085491231253963 -0.15791355662175383 1.1667876976374616
P 8.77338317452954 1.5333408840140017 12.188430554454955 -0.17221711772861953 1.1937405720772216 0.31298553002965457
P 6.900133945759716 8.066884197968992 1.4591912081758855 -1.5304468427625835 -0.4775150493060292 -0.5735426670562638
P 1.9021762450084674 3.5104111098024466 5.925497069099788 -1.0066884462182986 1.022933447322251 -2.39520113850652
P 6.9639769520671235 4.202332978588319 5.738482046082604 0.5468726139642454 -2.2976285448666687 3.791050987886103
P 2.4331410341202493 8.677096106653812 10.290207577452712 1.9309768927721263 -1.9013801529516159 -2.2494959510255
