# total energy = -340888.8386308029 ev
CRYSTAL
PRIMVEC
9.11415671451178 0.00000000000000 0.00000000000000

0.00000000000000 9.11415671451178 0.00000000000000

0.00000000000000 0.00000000000000 13.33948962477238

PRIMCOORD
 96 1
Ni 6.668163084111772 1.7991162935177287 11.372808717133434 -0.18915605957580325 0.892993750205604 0.01895700071847703
Ni 5.100819794090308 0.31557402818941405 5.813069261963873 -0.515742468218344 -0.9966189777974385 -0.997703983331501
Ni 2.8993134846716693 1.5996074045467004 4.420560104626949 -0.374168272186562 0.3341120275956246 0.9434927873964202
Ni 3.4420159421307783 4.377602350109491 4.2835232909671594 0.6982655958586619 0.20685270552461796 1.6274730769806616
Ni 3.930197514536224 2.804517141401333 2.573174326098737 0.5218979462967785 -0.49439151334639364 -0.7297616095844142
Ni 4.938514892546403 4.917543218104999 2.1965199543178593 1.4918522703188373 0.46156418240372765 1.657819807593319
Ni 5.545153158874026 3.0748247991949724 0.36369039536825143 0.17323064659479845 -0.1107060456980158 -0.017900277319188525
Ni 5.628356294891226 8.136326121516388 12.53949368101664 0.9003401632683461 0.8576678212108003 -0.06604701222774431
Ni 2.020289532835223 6.649269437385552 0.39205000518653615 0.7083296649628834 0.5214387472721729 -1.5492848014046932
Ni 0.5431062145985065 0.3132535639074577 0.11668399045461819 1.412833271311457 -0.6230981093868883 0.2783563699915593
Ni 8.026764844480267 8.970016258197884 6.72481030191084 0.8039757310039831 0.21666660629124623 0.09239927696902797
Ni 8.952918100330837 2.5193625224320972 1.2823089779199486 0.4468317612895595 0.7575107546732245 0.48788790789992104
Ni 7.167126703828899 1.0148886849516188 4.409088115657198 -0.587860883451149 -0.4833887344779868 1.2817987984687345
Ni 0.9475259531843794 7.7188977471503275 2.2133282820035776 -0.065952395631409 0.3998615631876081 0.23255139584230275
Ni 7.975497713349064 4.395356727255017 3.6362778111209653 0.3223751987746706 -1.2694058241210202 -0.940557101806864
Ni 7.8642776598034505 4.074456385921946 12.696619918754546 -0.0499832738966623 -0.2589226867469799 -0.20961869830552932
Ni 8.531215186498013 7.343285123474035 9.241585315271267 0.05319895262048257 1.233061224053715 0.3299825788082833
Ni 7.291616969450428 0.8972859875071295 0.3284259004753002 -1.4246786006858174 -0.8415032956357958 0.41504572712721427
Ni 2.251251376390035 6.831762195899344 9.407008169803614 -0.016316991992468673 -0.12013350965950277 0.6293003815428582
Ni 0.36448788407473687 5.229621055805182 1.511858127194701 -0.8534252438843625 -1.3245981530224478 -0.7616245197312819
Ni 6.631879626505848 2.1652775367525883 6.5121916100208574 0.3157193840210498 0.03869278858450756 1.317030367977519
Ni 3.644441361228382 4.560979181817901 0.3925549294646995 -0.6270123568396299 0.1538941510497156 -1.1806896524305344
Ni 6.305410535462347 5.842821514917597 4.488857948866021 -0.6731734287767245 1.0597210484642459 0.645669566929501
Ni 5.7047055851109745 2.8117264393079613 9.323809590864737 -2.2743006687740057 -0.843352947250025 -1.4459197694527808
P 0.3645854055508442 5.771439440069672 12.57773759371702 0.6209412109448854 -0.5446653219002813 -0.13476951440512275
P 4.237563333250658 6.300762315573118 12.462991272965247 -0.037643778494702906 0.19352230696429895 0.201198335452318
P 2.648838231738741 8.726194339616205 0.9305426336910667 -0.4063322585136164 0.7271395985805348 1.2941290378993133
P 6.715638726078427 7.850898077847788 5.525403692838789 -0.8261561237557642 -0.3719172713688563 -0.1355300467202311
P 4.769347031048402 1.5075088516434456 12.42660117972657 -0.08737816960535273 -1.032894415189705 0.2979798006494417
P 4.62375749279243 6.262646912481439 8.27008366161511 -0.9215746471670903 0.7420759081753929 -0.4187278039644917
P 5.014627214693368 1.466039438906206 3.9106048119952908 0.7212962524258802 -0.3295074389440777 -0.6828266355957724
P 0.43273104337393614 6.00066959386183 3.562870570666399 0.26358101145459767 -0.493336332609002 0.0841465500419325
Ni 0.7058285445167775 0.5284661447787641 4.737052839806234 0.08111290542193128 -1.3030178557485108 -0.20712190002560457
Ni 2.1835696491402015 6.676156199489917 4.866059170045632 0.09147625093412633 -0.17696028884055975 0.17647666433592188
Ni 6.50591286750774 5.816654771188231 9.34505924708383 0.014920625865574301 0.07072256332654273 -0.0433462281961189
Ni 8.803017565981522 2.6714322260630525 9.973415637282125 0.9399618914250263 -2.529192637095038 0.5848334094787347
Ni 2.707159720113598 5.732275908963755 7.201096988478183 -0.08872079967617623 -0.8999979494375789 -0.4673813033061369
Ni 0.8294365597750178 0.49108078563439395 8.911272784370338 0.134330112874859 -1.0255251193088273 1.7429665167649917
Ni 1.5951050111638 1.7525976379988557 11.36609887501098 -0.07297896346088721 -1.6824838859989022 -0.6466393870419379
Ni 4.254114641718972 7.196574543950661 1.530613238739908 0.57277519276262 0.4210911619903458 -0.8035718106973451
Ni 5.831219193507816 8.140081154054354 7.722977243664874 1.6275725786730033 -0.34989937233686835 1.4968530659675383
Ni 5.820710570895501 3.5020235494850613 4.485122967472676 -0.30184596847306727 -0.9580966533525239 -0.2727048281327368
Ni 1.0259168144927309 7.72261632306171 6.801605274390558 0.5099870537918056 0.8066561060496237 0.22379293292338232
Ni 5.100245602221638 4.311506486115983 7.265712713432453 0.4288147558868486 0.8158035768768467 0.514732538896591
Ni 0.9959494674421717 7.780263363844797 11.330416040327998 0.3438621650038529 -0.8065118671622755 0.4182431510185894
Ni 4.74474792226207 0.6178386534293355 10.063364160632695 0.24230538990527303 0.14789062516811305 0.7450262490529685
Ni 8.714582904049777 7.560293193204514 4.750512626340377 -0.5123100454980274 -0.5684554823413437 -0.12645199567836288
Ni 7.828231170270312 6.429919029397166 7.096275072897744 -0.4820851851752149 -0.27066208667109515 -0.4334357995986277
Ni 2.4683141310603873 5.787790237091783 2.5582608315796285 0.3644333042869852 -0.6056405760320731 0.3969826989779163
Ni 2.408443236055788 5.364000181387129 11.66199543900266 -0.2741338472697795 0.2738453694950832 -1.5153323557186482
Ni 1.281413967737356 3.473669408160764 3.785173965407941 -0.08031766321414555 0.27388856402819284 -0.49766247078818165
Ni 1.643956890783933 1.0505614940622905 2.321938041085905 -0.1975309139030598 0.675977730994739 0.21991108137047288
Ni 0.9125822766053513 3.4520870852241083 8.09238768374387 1.4158273209427745 0.4919854750080624 -1.5638724694108808
Ni 4.283881477323329 2.4109040583500856 6.230462091119018 -2.0221726363513564 1.4721740751636194 -0.566720759038424
Ni 4.667870010956878 7.049408256595011 6.100641866691173 -1.3492992553135537 -1.1151483761946148 -1.290229702844907
Ni 8.256368678694892 7.502199558745796 0.009242666254249429 0.028769873043840776 0.8111036002980159 1.8171379578720834
P 0.7033768363791252 6.082751688611628 8.095869291582469 -0.44594241670607065 -1.5968250130775015 -0.22157047135076682
P 8.613187911368065 1.6903388339531227 7.668539297436685 0.5025969319753215 1.6524181769617734 -0.1613413513563802
P 1.9354823052484063 3.546482405602041 10.07682394716684 0.609833531067498 -0.04296981869330664 0.2995114068026197
P 4.171102902991327 6.509576758479249 3.8494296811747133 0.24643638135451107 -0.7314994182111272 -0.6697165805763756
P 7.157675323387466 3.7857199033910094 10.268592182898807 -0.10324778964775766 3.2166958522308735 1.7940967597819037
P 6.57929094266104 8.073939719277618 10.152125109372351 0.8032946457765585 -0.37922794609765653 0.7625328904781641
P 2.656184241995052 8.709907341690613 5.590099622371542 0.19906971914508942 0.6131230004520473 0.728607698485629
P 7.0189305167723015 4.4347936830603 1.5460334803685092 0.5946169712280598 -0.8813075721169273 0.08846677468384118
Ni 2.818206604682945 1.9719753884571773 0.2983792602619247 0.8104045173484623 -1.2124977980800666 -0.2529363872565579
Ni 1.586628845483441 1.2106881121679098 6.862273658101642 1.125915642013448 0.659246020062355 -0.8596897367368355
Ni 7.1896386707434 0.6335195599379995 8.882539494129587 -0.6213608149808073 0.7587960491435513 0.9389859006650023
Ni 3.1989140419240973 2.4828603250666808 8.511074723142684 0.036629221187259496 0.24530303908101625 0.4755586969106068
Ni 6.7680086701637405 2.2224779838600424 2.3297288221865196 -0.4065744564314095 0.6204395887181186 0.6434653601893305
Ni 4.581841486379558 7.298261189645031 10.47679506589402 -0.5163824157951881 -0.920240244626383 -1.0041206854911222
Ni 7.822152027787731 6.4320061712689975 11.44832315060445 -1.3354734051740549 -0.46713216340980834 -1.702494010572242
Ni 7.707413909776937 3.9233527828954182 8.06996412414883 -0.2557412036952047 0.09174801653827425 -0.08616923689891612
Ni 3.235033444710401 8.484897042425342 12.16098548977406 0.0931613519460331 0.40683619473322835 1.0380273655408963
Ni 0.3040582912677651 4.988788580603242 10.0578819954104 -0.24901082694990662 1.1297823240577058 0.14799629750804189
Ni 8.893967735147438 2.621386391922353 5.60470688122736 0.08258666175398034 0.19828656112216173 0.5945038426889633
Ni 3.5754745378915262 3.137375256253363 11.477523997081118 0.38553100549754893 -0.23697369327971446 0.2591101201674376
Ni 1.2001794895555937 3.5261942929090524 12.8540122898665 -0.26259705027477354 1.3523560398620063 0.0439694636024146
Ni 3.5693862812523007 8.408802948591669 8.188005212527973 -1.1340061323310662 0.6051847194415771 -0.48225924885923394
Ni 5.743531892421006 8.104690883799694 3.4663461832960665 -0.08020633444726187 0.6450234487050698 0.5245616091718707
Ni 3.1888884696139956 8.58945464746306 3.378678933353877 0.27212221615638943 -0.8692601540340901 -0.11106908546438936
Ni 4.204314889807702 4.729044230361792 9.727595895563743 -1.3494262678097213 0.027248037082675654 -0.7429961059968172
Ni 5.514292624472203 4.578505705047288 11.645974574451115 0.7246551415957843 -0.625493091981626 -0.7037299614073429
Ni 8.10560229946425 8.870571695038318 2.6611879139934578 -0.18520324557564233 0.9030375075948511 -1.0205410358306748
Ni 4.806642160041981 0.6504791826240337 1.5658558596569099 -0.04776286920657581 -0.22651084607517763 -0.5030535598967659
Ni 6.2597030398849265 5.865297025205518 13.373238502638008 -0.13962709960774017 1.045321328099148 1.8779723155506365
Ni 8.330293603246925 0.10256525039500101 11.157335471382064 -0.2769512621139166 -0.33365694233607696 -0.232409985168432
Ni 0.09109508425657983 4.996234846582654 5.609308618917697 0.9336025248659018 0.7658858661107971 0.7826993381237101
Ni 7.4905334382394955 6.4836834394492495 2.4225710902720508 0.04294436477200991 -0.1995919101971466 -0.40659913902175776
P 8.868284041720287 1.9056516705475302 3.453806926583123 -0.7354933698618688 0.5011005499354532 -1.2813313719140127
P 2.1646577741006907 3.636083679584415 1.6791484724237198 -1.3687020853201979 0.05220496413832945 -0.27233047551245354
P 4.899150849994284 1.1840018615097474 7.90356787768674 0.8449783986685899 -0.0903580781692831 -0.017087037389273797
P 8.681197748257139 1.9022520901187412 12.379019813542826 0.5731639435606065 1.1581539332218633 -0.2267368460430547
P 6.4005349883719225 8.034530105942272 1.2959391991833646 0.45933914972795087 0.44435141806986694 -0.14234475564921936
P 2.115131446888787 3.7343434023800595 6.075844069289968 0.23748842813260387 -0.7276713027142887 -0.3101722289505755
P 6.995698531482802 4.403960491128414 6.096466671531847 0.35897793759936886 0.1779419360275387 -1.0124978538112241
P 2.649038743184943 9.04549058937966 10.19303764713855 -1.3622079929554216 -0.3571501403620107 -1.0436112873865768
