# total energy = -381162.9921612438 ev
CRYSTAL
PRIMVEC
9.30138504042437 0.00000000000000 0.00000000000000
0.00000000000000 9.30138504042437 0.00000000000000
0.00000000000000 0.00000000000000 13.61351720507776
PRIMCOORD
 96 1
Ni 5.812556300541211 8.706998438611016 6.947182008918216 1.8333333366850233 0.05238339869772268 -1.447507682765191
Ni 8.102250300882583 0.45938237499445467 5.7967169723080145 0.7462364673109858 -1.4952666953170248 0.4509910348735716
Ni 6.025427793843777 2.996013260453097 12.805976423605909 -0.0776740549437114 0.875604093974247 0.26900346802174957
Ni 2.701457005541551 2.2808948902887543 9.981852754878384 -1.0067362687370984 1.218328802939547 -0.8129275408806322
Ni 8.924939186647913 3.99326123539125 10.220702085882808 0.09278185711942731 0.14432064842866757 0.2794493459454219
Ni 7.020201600416183 5.745856069899216 1.8114149319189057 0.19631246811492645 0.21022882108570243 0.5722820551762854
Ni 9.234721808532118 1.4822128787790365 0.3936950651608425 -0.25713474160862165 -2.1796236515143943 0.7998678794831967
Ni 7.042710951713579 1.254719608517997 7.874317075118913 0.45979783453192424 0.5087115295134917 -0.7714371349463295
Ni 4.653268900416307 4.5297000029014685 5.59687113832647 -0.974430100405225 0.1588088147425136 0.37805500883547793
Ni 1.7056135397132768 6.996566781553916 9.657034444410606 0.2807086722738198 -0.8961734334851663 -0.1677220580717434
Ni 5.488756491712717 1.2993290501801098 11.338112791209719 -0.5883596774644384 -1.2978489099530617 -1.5151415798640808
Ni 8.7044219550121 0.5950728372244856 2.7619783262385624 1.992198972807401 1.4163088885648834 0.026856458071211814
Ni 6.09834134955464 3.6344510140489548 7.837274310018963 -0.24322635905764564 1.2989663113869565 0.7222239064464723
Ni 1.8055104128265145 8.028927484239041 7.334145661874957 0.469872702269423 -0.6025475389290461 0.2510018892380064
Ni 3.4273463793432426 3.725697599266912 8.058793300801359 2.9498053167870686 -4.0590093024727905 0.6474058328943173
Ni 8.743794717012875 6.637644943593617 13.491744273927717 0.670874862550535 -1.2748704467800174 0.7834596133285023
Ni 7.314525320706887 8.283050619278777 0.6512187864957552 -0.4162199499409735 0.5491657808737962 -0.6182482374937546
Ni 5.131350779480301 6.287931476618617 7.578985084712242 -0.47627603469260554 -1.8548326442093799 -0.36701700585376146
Ni 7.015085838757684 2.671246107601905 10.59658499908724 0.5870088198634986 0.9171703474518076 -1.112045826009891
Ni 0.5960876183098351 5.81416544011743 7.316326068810679 -1.2452785920555134 0.9144688893602443 -0.739282661700972
Ni 4.21894073560973 8.30622036889936 8.402139969857737 -1.7598990308542724 -0.0756084306639343 2.0153335019423357
Ni 4.206514085471994 2.4363582363981258 4.494857015314673 -0.2515551906383151 -0.4848038696579586 -0.5064240190308955
Ni 2.0663212435616334 1.8682110479900464 13.368365124663486 1.1940889565555757 -1.0859110765960522 1.8490157804172866
Ni 6.8282396202196285 4.093567369437167 3.7378498585520554 1.4956999261997015 0.245446506637416 1.2278596252481178
P 0.9693624232069159 0.71143409163174 11.655253738635816 -0.38045256253337706 0.08980014878328405 -0.5371852114731523
Ni 7.915831946046875 0.6826379343252901 12.158708865387482 0.23524976861007227 0.08480860910596362 -0.3421665224689849
P 2.2232263043202187 4.72219216203354 5.884742487958083 -0.5358047861858578 0.06565157656153854 -1.0393304006230357
Ni 4.955275564579595 1.2770894390428889 8.953256322635431 0.17761669147763604 0.3641353134305923 1.6275604944881452
P 3.8431926924853865 6.490543542449683 9.46000599989517 0.052944156297199146 -1.1587455440592755 0.8869645132923887
P 6.144783164028977 5.795162710902314 13.570198664583977 -1.0479320262491179 -0.10054993110062038 -1.7554427948551314
P 9.187507979116589 5.227015522494235 1.9555547721318103 0.3461314206540039 0.3694400134729573 -0.43160054616210186
Ni 1.2648581179866591 8.249630743571526 13.072270420700457 0.1479268777226872 -0.5300056630055775 -1.5833575747186859
Ni 0.5139275559358557 5.691098817383608 11.597885587397407 0.23554827368709758 -0.3576964997837839 -0.4631654654525765
Ni 5.305788950650287 9.274820078549919 4.603724143961467 -2.7852536860235064 -2.085277535231641 0.2566081796811903
Ni 2.816012861152597 5.999895492475449 4.044698823659734 -0.5965967206622499 0.34105374902078034 1.1114269614789698
Ni 2.7714127208753183 4.745538637965963 11.21378025000004 -1.045371207500477 -0.6718714221358494 -1.3367543287690073
Ni 2.7430434971327315 5.602893785006249 7.776204207616767 -0.11421123063779685 3.794732036282116 -0.09649350164305961
Ni 4.490662090754703 6.536148232288995 1.156717427495371 0.4025871896488873 -0.0988918266719071 -0.05777140248251341
Ni 4.461027878674743 2.1734917996147733 0.7851429157458788 -0.6871103505727908 0.40381617695998195 1.1051102752323225
Ni 0.9883744538068653 9.218304864300753 9.50916381874093 -0.17679985200329554 0.1275136041736578 0.08257149224532875
Ni 8.324795234412129 3.399172484682163 -0.19282328843214913 -0.7489770061706005 0.414991219740195 1.7672359308353176
Ni 5.18936351668768 0.13493239936608967 1.9665945857908513 0.4232015234651292 0.5772352854165026 0.6773375874567432
Ni 2.7700640200744413 0.8807109243575428 8.177652907174927 -0.8782605577604874 0.9688310090508928 -0.40669786938315117
Ni 9.034016526591948 7.791239896200338 10.985101053172713 0.09946441134592549 1.052719163225116 0.33433185691591455
Ni 5.0461035874800375 2.0914628867669482 6.809930774313101 -2.4270455367106263 -2.2644278897449843 -2.3394560224254164
Ni 0.6958059048342669 7.382937006158271 5.256070258299059 -0.6088863366628804 -0.26463387819914425 0.28328388920016373
Ni 5.790130661707318 6.75075908455545 4.209667254930597 -0.5520194482725073 1.1395417174373148 0.06685973793702679
Ni 0.5217137451800914 2.1251804067888744 4.699521896778522 -0.73091680623478 -0.32560399012461344 -1.2645050443852934
Ni 1.4131407950044648 2.1219435248667695 2.2785490810337112 0.7867017744148839 -1.689827470848167 -0.5717086991713187
Ni 8.183981569415732 4.46373458166133 8.140174837264762 0.22937299811432113 0.7670194654946081 -0.5452528189726351
Ni 0.5957044012546894 0.626127370768542 7.208548132327904 0.655685042183974 0.8874319398471104 -1.1292783878380939
Ni 8.065844680643737 6.512606427275066 3.7547848899186542 0.342856606557474 -0.3567703884250888 1.9145105196859868
Ni 6.650052990961686 5.6322396541563675 5.988082733736733 1.9046595950338356 -0.47550624640611655 0.5626206208271214
Ni 3.6048354047386613 2.4766611368822655 11.950312268328378 1.5663654110360636 0.616547452752564 0.4509948915283136
Ni 8.354978228197275 8.20058454134377 7.884826709842438 0.5851889930459405 -0.687838486988067 -0.27242894876353085
Ni 9.228564291772253 7.3939870513406305 2.0835892645052767 -1.5227541021040163 1.220034472776744 -0.8206393077025932
P 5.592606453380249 2.616581868934633 2.8738135267857703 -0.4914365444831279 -0.5855530612535785 -1.504680789542073
Ni 0.6583352760319692 2.9614121088719756 12.007475789100447 0.4217568205988026 -0.26198564194301976 -2.0173381910771906
P 5.185680168293562 8.61731448604511 10.566049482816899 -0.010786549092542713 0.23224800566927098 0.42798968888239186
Ni 1.2053571592058976 3.7987692785199467 8.506310829302029 -0.5235516798501177 -0.8677005228564542 0.03869355991545594
P 1.291246146759681 9.112538817357493 1.301799497991923 0.10167761694716038 1.5317035979878202 1.447053625946908
P 2.8001353972415823 3.517579113614334 1.437029541672689 -0.3192466804480179 -0.09470478517375303 1.045710850228083
P 8.251388705305084 6.473605720667635 9.464702269097673 1.0028037664519118 -0.6951337350978997 -0.3103480924068075
Ni 3.673014555569204 7.196341925010724 5.900125118195949 0.3350018863997456 0.38059011655250585 -0.41226919282334157
Ni 8.878655495715746 4.695766927721184 5.307978496640125 0.6085554356860229 -0.09661717170511748 -0.41242628722649616
Ni 3.9437499639218117 7.4712536551536335 12.618967430833266 1.1145662784388999 0.08240359920889678 -1.6299387649123351
Ni 6.501481971014039 5.1066276985925 9.618208603838047 -0.25780117154802695 -0.6759013692308489 1.1906807022049752
Ni 1.5076056593748597 8.524914529107782 3.3419001377075404 -0.4588910064469387 -1.4267182568236654 -1.6543056237924736
Ni 4.864047582131304 5.021687452291746 3.102003470770849 -1.785027450490784 -0.7922664129868549 -1.0149211185407359
Ni 3.702825493961004 4.432351709232647 13.421607181589694 1.0815247746028986 0.8722413481496011 -0.08559819488679452
Ni 7.049110304479119 7.156011120372083 12.131222343065607 -2.057884487930669 1.7980238627504517 -1.5410791256654492
Ni 2.2793322576367037 2.5499560493713074 6.152534008010846 0.4316090308025341 0.28190012147875965 0.810543871139804
Ni 3.2084382872836485 0.8048627817316679 2.953983092805352 0.3621023421609635 0.24844441292347536 0.05135572876415672
Ni 8.82643752125972 3.1804132147799065 2.4209867678220616 -1.676806118887835 0.7107213051235115 0.23583623724116157
Ni 8.917060913693824 2.796452048847463 6.724478021708015 -0.6555798840646774 -0.4878282583065793 0.09299423024054952
Ni 7.493381649672851 4.89323532773925 12.09345872064105 -0.6569492536083782 0.037576158481561095 -1.335493716889029
Ni 7.347917292259637 -0.11687004015765427 9.750054803716337 0.2196783965343765 2.2375601188198626 1.9036347533137477
Ni 1.240441982798368 4.59533987567243 0.10354580638347245 -0.4389101924496376 -0.1685892911680451 1.3193554165662698
Ni 6.9569893890868 1.8233411675525923 1.2294505363404615 -0.08543287295352384 -0.05984653984398725 0.6217552222057486
Ni 2.046341868938986 6.766859781702472 1.910983466147516 1.127653193529845 -1.4947583882220383 -1.572263007467421
Ni 3.9027215554206487 7.7298135507590136 3.058834813619466 0.4090637985121664 1.060490579640419 0.3370214879329357
Ni 5.6226406250080565 0.5054139983976298 13.331798590467017 0.9807735261247498 -1.1118949022543239 0.17828800651304777
Ni 8.975185267519207 1.6380389788969203 8.973962135413585 -0.3423202744380298 2.0789564781096197 1.3313442134970297
Ni 7.016081086934882 8.661579776468377 2.824518977582956 -0.5904615542987895 -2.1501187000767423 2.0474236976086613
Ni 6.762413719751995 1.4535553121066078 4.453934642600613 0.7537194059515923 2.0789914451126132 -3.1167452452771482
Ni 2.9917160206599576 9.30826785841167 10.685426246187218 0.8894661966683196 -0.26359515252198473 0.6783282335047865
Ni 6.3077899332384275 7.383541596172458 9.115705938893345 -0.2914533123848336 -0.6411701363972506 0.43844019479175456
Ni 2.150266241685187 3.8864627347314555 3.624693861358472 0.16806015813745248 -0.7641321166444841 0.3305513068275598
P 7.777008777404876 7.5495434112983375 5.841587782883952 0.054605603160022075 -0.379570674149056 -0.5650387433503108
Ni 4.87849263277794 5.63518819314863 11.439097926348493 1.4271440315071744 -0.023592442607959365 -0.368669710965836
P 6.717571743469041 3.0112768329650916 5.770946555487946 0.9791974398868815 2.043372924578055 1.3842449181508032
Ni 2.0149682978951358 0.2704852011005828 4.9967048627670865 1.232485296945587 1.682050912226542 3.595640462760156
P 3.6769304385841646 0.024594721777097085 6.498139983443313 0.5286224095048058 0.2299455827883395 -1.7010804180541672
P 4.749073164202744 3.6399295297159657 10.24090376360298 0.06542274838018411 -0.8422597141858462 -0.2938534371858939
P 2.3147891366225193 6.215455085994935 12.762195735332474 -0.47630560237896036 -0.09882626354129433 0.2612361653715049
Ni 3.5918506715109073 9.032267866243224 0.44225945565421637 -2.2016850021898082 0.9744689240629604 1.4186946151882407
