# total energy = -381169.531298968 ev
CRYSTAL
PRIMVEC
9.23054047264744 0.00000000000000 0.00000000000000
0.00000000000000 9.23054047264744 0.00000000000000
0.00000000000000 0.00000000000000 13.50982901904530
PRIMCOORD
 96 1
Ni 8.78587736458892 9.249555089275649 9.360379723796907 0.12211865841033163 -1.3822204315216065 1.547361359129735
Ni 7.3860936384414 4.518460182884759 8.183430468050561 -2.9355760605615635 -0.4155123823509876 -0.1321729573225401
Ni 4.1400357272682955 1.8414096903525623 5.460618649539289 0.574836703277339 0.9754292310937006 -1.3503891459436226
Ni 3.069542291377665 7.8578111636218715 12.340526079673086 0.08225498944617447 -1.0865268558031802 0.5013124088359431
Ni 0.25200666957502565 7.344094680638269 1.962315920854605 0.8188318221802091 1.3123715290492688 -1.2895643013467661
Ni 7.962947016232343 4.871916027323758 5.719251000853015 0.3823407806950254 -0.9543068472927886 -0.7314837344818435
Ni 1.978141681987235 7.875432264818833 6.193824455164099 1.0551573403529633 1.3478051872665304 -1.670944775011051
Ni 0.20879112657663162 3.239614994129899 3.8330353454296464 0.7429570252287656 0.9564195227604172 0.9676292754333079
Ni 7.200089023344506 5.710538293980406 12.181177418497924 -0.022930897764560507 1.4273959996169805 1.1503182392275284
Ni 2.63271620806441 1.7880294765117932 3.444412065972154 -0.29931008942509096 0.8985324206356461 0.2954115257016332
Ni 4.196554324769078 8.874629008386083 4.307676182684019 -1.6614093247167903 1.541097123387578 1.511537150342274
Ni 8.10202356507185 6.62245104963856 7.236417660317204 -1.3082976160902113 2.0931602804138274 1.2180467529227537
Ni 1.1808353131606553 7.595109990198338 8.284456884174451 -2.2388816658447634 -3.183733024151607 0.1992540672417536
Ni 4.217387653947466 8.489512411141648 10.3465835590117 -1.177214035177108 -0.31286520240170634 0.5572328741526468
Ni 7.654296213810134 1.1376086935140493 13.024663256773577 -0.4803201228549921 -1.7277484142636568 0.3324045579862146
Ni 0.010163747788357401 4.957178526934199 11.43088219079032 -0.7538659588317855 0.8840134010838646 0.7119914300851867
Ni 8.632798086301646 6.096494870380903 3.549599609607615 -0.4371831824562019 -1.800951320809892 0.8965812104465463
Ni 2.1638509197984805 3.39815875220167 5.20767415708233 0.3044620659396756 -0.4991256855972694 1.604831428321746
Ni 2.77218043959133 2.8506492616318586 12.035812102636159 0.31002413340848545 -0.8294124259095328 -0.014421831852284841
Ni 6.818184654081497 6.856260632309609 2.138741081356315 -0.35558768097089727 -0.07316511132976432 0.05633415581535459
Ni 1.1504299138192244 4.181711616165247 13.50331660984268 -0.15846402980858515 0.010492414890891607 -0.7608511319003671
Ni 0.6132863198676362 9.098211152541557 0.020822252530175847 -1.091476743609288 -0.39575011212239586 -0.9736945077907811
Ni 8.051514049225975 1.6802536894108386 8.164394325044542 -2.6873723028939844 1.51570747966988 -1.4606005113934073
Ni 7.727965154958876 3.89401413994372 2.546913721853642 -0.673600231901498 0.2702540525993991 -1.2031117288794764
P 8.157296039648804 2.6666476737532676 5.68411218050907 -1.026198234116452 -0.8079894801490666 -0.5955135149004003
Ni 5.602264057709919 0.5130085005520624 8.974457300395061 3.6906941466328953 -1.0985501055163016 2.075446665184148
P 7.0784489648984295 1.130482716497782 10.75666045994744 1.812396072311724 -0.5085359231675758 -0.8771670675859926
Ni 5.929468245886919 2.868658045516234 9.21431104077369 -0.8093817325109028 -0.8491800954547633 0.4509079882414621
P 4.812803648033374 5.926883694637494 2.3399696263663303 -0.7099011232150613 -0.5403319846322502 -3.046248939028799
P 2.568905483824182 3.515811217291492 1.628312516783588 1.16007017640797 -1.2555820308640506 -0.6866984598463529
P 7.292551344292627 8.698694912621765 7.483567219651349 -0.4810911966930618 0.5481784772598624 0.6134119924473758
Ni 4.961710722160867 6.974070016582432 0.18078474462707644 0.529398882659514 -2.227161806304674 -0.16117294409931598
Ni 3.8557720119924306 3.873356191028686 10.163268723322242 -0.15658429628736903 1.196900972083074 0.43655249085073855
Ni 5.235202397050743 1.4178478932729546 3.104855568930947 1.311659847694225 -0.7293890567363438 1.4724309283694317
Ni 7.612398791948945 7.9443936304775535 0.10571091526346878 -0.11434724199502888 -0.6552903778487166 0.3830303505628822
Ni 2.271100566109374 5.6874711740793025 9.126024616201425 -0.31348869491831816 -0.7292018804262023 -0.41897180165449777
Ni 3.419776677295061 1.8996728599467063 9.405258610135107 -0.09770423412170916 -1.5555937743418566 0.3375243957112832
Ni 0.2265691469565938 0.9208765332235642 4.5892215038779005 0.19516986987005097 0.3780786629845618 1.573486081241245
Ni 5.902865829098211 4.000645340062787 4.861309213606928 0.13867270611427085 -0.5495208502203698 -0.9326159925829163
Ni 1.3228933264771754 3.6808255840269983 10.238018560725653 1.382003173304478 -0.11322315569291468 -0.5958557287311673
Ni 3.2191878087192785 5.929117485360211 6.431691783296744 -0.8026510986552886 0.3597973481768707 -2.2059345214947816
Ni 8.717414448099731 8.493112321810488 11.630030172044549 -0.1192408226419043 -0.17364690819661063 -0.8228010912406024
Ni 3.82258822005787 1.4649144176329896 1.522625600924578 -1.2392717237398012 0.43470386767777386 -3.1681871059972084
Ni 6.248263411963114 7.931729329355379 11.114806341850125 0.8281597844493545 0.4551796190336226 1.0904840406787155
Ni 2.100990941196434 1.4074266134136726 6.591161364548219 0.22936708457705016 0.12613240755541505 -0.2349682328139115
Ni 1.5640596496689054 1.8504925418862501 0.36554877512424727 0.9452707052324494 0.7219855651834212 -0.19956697049648212
Ni 4.262220387584785 0.9754373331529094 7.524636662058704 -1.5566055034358224 -0.2822078825271656 -2.2644278897449843
Ni 7.952221128547236 8.65035457371737 3.341885687069582 0.39405215559468265 -0.2522133930476043 1.06259245647477
Ni 4.952978631153886 6.776296462760485 4.141653840961237 1.6234053346691912 -0.5761729055902592 2.250719796130272
Ni 2.59966164369232 6.876927811764819 3.512231613811041 -0.7051867484585275 0.7235305410730378 0.23780775914523564
Ni 1.2501012866452013 6.970710099958183 10.587517272590981 -1.7407165443885504 2.644807947169213 0.8050825909149165
Ni 3.738765684714964 4.640081780250482 3.989641613118367 -1.1543409872336765 0.41070904742507325 0.25948395856708856
Ni 0.16113846291538825 3.4240596479369625 7.323151508031782 0.19640888448347466 -0.8134196500257023 -1.732833284985732
Ni 3.6311375862568336 7.796031158220476 8.259314738841669 -1.2148652698709785 0.8436632794015921 -1.156617699082995
Ni 8.183723076174159 3.094981660104132 10.030872316408475 1.3260009469072453 0.5209474094580512 -2.414828168708828
Ni 5.2355993102783325 1.5452293477088206 11.644918110295245 -1.426665806319175 0.22247447122227493 -0.6712101344027667
P 4.211267805810439 5.918068528768926 10.746460713052395 0.7926055414938284 1.6921851724470662 -0.6563900386707986
Ni 4.357765708951861 5.600150264009498 8.210031038731236 -0.07562102906942461 -2.382566480461645 3.976023605508178
P 1.897106769777636 0.11877859099135686 8.607328256792595 2.617565309403176 1.3780040794474138 0.5545195889865417
Ni 0.15081225761992423 1.9302259479309611 11.608319941549395 0.5401121553119602 -0.10946651686395986 0.6417391215268432
P 6.888927513994285 0.08574064159158498 1.7648968197754364 -1.6646345165223073 0.4557907702550602 -1.1420184611125814
P 7.079575090799965 6.835621144474928 5.108930453544093 0.038544178821785235 0.13691098622815775 -0.6694615271427761
P 4.233190338729655 4.016854168612742 6.370492378872452 0.4614824213231987 -0.8766626171457483 -0.5905392016142603
Ni 5.804514423517475 5.652367429788027 6.669856334823072 1.3397319233400926 -0.24992125457931796 -2.0040975240172
Ni 6.043326958964195 4.8153420465819154 10.463105282929899 0.01552817754258616 1.0597261906705686 -0.9518907816521285
Ni 5.838990491076748 7.207325766842891 8.659435579143024 2.0909432181578502 1.1123044789879168 0.420877760427959
Ni 2.422693727428231 5.528558194400471 11.736717678458694 0.6670485468259093 -1.8663959235669467 1.1883106593109019
Ni 5.267647745771182 3.7334581241134694 2.571825103682013 -0.05688360056092139 -0.6086305118983325 -1.1456650567262334
Ni 6.6687606697041195 0.8186067633378992 5.653080027489653 0.3095201971888734 -0.6580993080524213 0.20973465505810332
Ni 0.9587762081343051 6.828855158525545 13.114976707968607 -1.4047965170499097 -0.6220915224992447 -0.7115011207123295
Ni 0.17123021249036888 0.2344437207811762 7.007886100519084 -0.7516954335430279 -1.2437220462016711 -0.711048606555943
Ni 6.291028504600894 4.7781337391303955 0.749478324901983 0.6802033390403124 0.8092416073886128 -0.19896121859168314
Ni 1.2680085345876346 5.070834168127592 2.1958199726458125 -0.07280310000465527 0.14739285959608808 1.5242659107628522
Ni 7.463427104040218 1.8049859788160458 3.6555302117272843 -0.4389101924496376 0.5757867258954342 -0.22249761115072647
Ni 5.747820445753338 2.524885037722396 0.23265853431103878 -0.09195113368801583 -0.061849172096312834 0.9332759947644186
Ni 1.1852936640659104 1.9963996904563759 8.741088937544449 -1.364408085930534 -0.14381671220905554 0.9055967836815952
Ni 1.8062597933604045 9.128155024874163 1.865072180095051 2.5580216455115883 -0.9657634258691625 0.8678046525344861
Ni 9.160221921447366 7.720257653911489 5.12298118180078 0.0931739503515234 0.03962661325268659 0.7670171515017629
Ni 2.6804473313171533 6.68014192574176 1.0610690543704113 1.172088798135401 -0.05996095393466448 0.21338793553997443
Ni 1.978317062250589 0.4261343486268016 11.160429209726555 -0.5466155036481167 0.09421396158026354 -0.8089850112931165
Ni 4.245273115820709 4.435699159662152 13.317731984323817 -1.4419206755957168 -0.0788261662702836 0.0853066317883047
Ni 5.365713004606446 9.153769773863983 0.10092211101989433 0.5942331055260798 1.6665006231967685 -0.6961413504268076
Ni 5.455747693488144 7.975722083836636 6.1967422289138945 -0.13377269770949218 0.5737766374439408 0.8202009346135938
Ni 0.1969972653931022 1.4307706495200714 2.2917935910770786 -1.1940524468906857 0.3803767149901191 -1.2224068296636625
Ni 7.193230731993358 3.3260682334231113 11.882420832090919 -1.0952709205443976 -0.07495177091654188 2.9662853167199623
Ni 6.0132630896092945 2.675998210952075 6.832865828232239 -0.01551557913709586 0.7115867384476003 0.720853508461507
Ni 7.968836100864958 6.75477084306886 10.005946165715821 0.8619898456249219 -0.9337791596530821 -0.7392075854886625
Ni 0.7876650696122133 5.680354427603212 6.659264289970525 2.2744215106225862 -0.28335279476488623 -0.6075920433314891
P 1.9380719070809964 9.079030090054767 3.9941811927771753 0.5280007167604067 -1.803756394358855 1.1517439159304617
Ni 4.610331749261583 8.323944211995553 2.1407265705482827 -0.003373030237290965 -0.3036531968851351 -0.046361875093991124
P 1.458397656268372 5.239023840683819 4.515160264771656 -0.7858147438242402 0.9431297476300466 -0.3322382076116794
Ni 8.571627296551899 5.476101034577353 0.9233023191819517 -0.656970593764617 -0.06823167858388894 -0.9861036800884114
P 3.45645884395652 0.6371712656283786 12.795482790001047 -0.35605973551130937 1.681373426543543 0.44511863525319467
P 8.294397252890537 2.886528371297961 0.4589018431994017 0.7110876873239947 1.7836046020013283 0.9079534568392299
P -0.0038952879544880787 4.976027289974637 8.728902778403418 2.662499193801389 1.882691318292861 2.2447255262200505
Ni 2.5251250317669856 3.739753352513851 7.729486347979965 0.9362857281250198 -0.16996483135933307 0.07201145734129534
