# total energy = -340863.80118112935 ev
CRYSTAL
PRIMVEC
9.30768560189964 0.00000000000000 0.00000000000000

0.00000000000000 9.30768560189964 0.00000000000000

0.00000000000000 0.00000000000000 13.62273871365998

PRIMCOORD
 96 1
Ni 6.6477632370329225 3.484164620916727 3.1128233288310443 -0.7556891280834533 0.008967750716249072 1.0850155613649766
Ni 8.715540087138224 7.827912635908504 11.785984591996177 -0.5780174149981658 1.6834940724309713 -1.6273164967981393
Ni 7.360043196481415 1.5829301918763157 2.064744406089043 -1.4049646671966576 -0.992224962494801 -1.2588025946838772
Ni 4.585422075403665 2.8914605002555063 6.909330614191134 0.7412714099962266 -0.8414513593519379 -0.04243065836038499
Ni 7.413581004896173 4.585180075574252 9.65051201268688 0.6180762306922645 -0.3788533363670572 1.4140049230220553
Ni 5.870645938673232 0.981588538842199 4.260947773358112 -0.9164946615410217 0.7322746058142551 -0.8579138757833354
Ni 5.8004101420289755 6.620342794823277 10.263711657362233 2.09258229642317 1.3035251344022323 -4.742634265600142
Ni 7.069075632355245 6.013677145542074 7.946634029144233 -1.7945199633622515 0.8742784331842879 1.1169738594391279
Ni 3.7620735019403417 6.8611047020319935 0.10698905535207116 -0.7545151623800103 1.242130790455151 0.21131639772292637
Ni 4.5947111457788266 2.9732099041683737 2.183984237420861 2.1157335377286532 -2.349605709264908 -1.5061031238108966
Ni 1.1960562338166154 5.343253848896287 2.9694440145152776 1.5834768739053697 2.355443656102924 0.7306427266377868
Ni 6.103971004970371 8.110987282521512 5.088487597713154 0.2177647244514314 -2.0560487202735107 -0.7024860616979127
Ni 8.2499975691478 9.162876771808195 0.048276173662173655 -0.15021644508781226 0.23237887482018044 1.295596366473459
Ni 8.265960250203312 7.028038045898244 5.379156385126858 -0.9854529338782898 0.8663920884576756 1.9807578208499954
Ni 6.215709772358959 2.4538503471907913 10.26399833408323 -1.1332710539372548 -0.33647615695242694 -0.3300849087141025
Ni 1.4590448945883425 1.4571740497532648 8.890580425289812 -2.3149570088427875 0.6347027835053521 0.7079542839013355
Ni 0.9169689997774746 5.566172922528665 9.784818194936808 0.48289842510512965 0.8557150683598037 -0.032278657528047636
Ni 4.819128756816417 0.02139278492011104 6.516737083240115 -2.081986008964563 0.9032704495412637 0.0835423407990303
Ni 7.012829287388211 3.1508470866432776 8.027307464584789 -0.10207845193000484 -1.4043609721743877 -1.6784282278722897
Ni 1.230727363222904 4.903865927853961 5.782457477760829 -2.3294282058757685 -0.1726655181199478 -1.2804366280138852
Ni 3.092860204441619 9.099156355186595 1.4021339808589972 -0.33651858015458813 0.3525918315673669 -0.23498880163920174
Ni 0.8277222549956764 8.304940838110301 8.983024360125585 -0.7106981651950599 0.11160798868699488 0.33402692408098605
Ni 0.37403121326646627 1.2106693004388631 3.046725729269751 2.718328384955867 2.4228500105720405 -2.3589619536688278
Ni 6.349265755137707 7.753423226878027 1.5226955035668404 -0.8541495236448968 -0.16352036128557 -0.662361168652569
P 7.1058223756830365 1.9713678411414541 13.357831191685376 -0.9983444451289775 -0.6924255921381172 0.694764524683939
P 3.3782059263768107 2.46756987598136 0.0875378536787123 0.7749916850668072 -0.10131072052604488 0.9248936842379942
P 4.999213860642691 3.882756955331466 4.737798198762149 0.5946136287939502 -0.23337183486106905 0.9531585926209585
P 8.675219192483716 2.52446775895066 9.580341369842849 -0.7566687183879034 -0.5147024569896039 0.03251339924667304
P 2.50632707943043 2.9364538531548345 7.660583715398021 -0.5038074073436549 -0.524644141583348 -0.6969731022994836
P 4.083402736972101 3.40196844808802 10.762644567200207 0.12077165746413393 1.4255769441303707 1.0278730507157137
P 5.5962832859190925 1.0949654589221993 8.259861854502104 0.7048867007196054 0.6850349561010008 0.6388779979289643
P 3.1779882982805225 8.800044566032103 4.857473629786909 -0.396860057357123 0.9578801664663439 0.9979199559970492
Ni 3.2407407155844683 3.9295466915798984 3.558627037658539 -0.33736241621212226 1.9018198115921958 0.9158850529814808
Ni 5.282353661055925 0.4277719292305009 0.15613735916870639 0.9280345438598212 0.31819149971062616 -0.16938247649330182
Ni 1.3291189092507902 3.4180428213724925 10.481035881092298 0.10357869062461517 -0.3091622996288224 -0.3209217541575957
Ni 3.8309410687798393 7.479460804610995 8.64937640300813 0.26702860368356596 1.1938251613712278 -0.706761549144815
Ni 5.356610377942736 -0.13469710505128737 10.240144597051703 -1.0112292715114457 0.284934023209077 0.553968087358446
Ni 2.781285424072355 4.665961480169468 12.239690526022581 0.6303938717173531 -0.9494374350156294 -1.0607754578706892
Ni 7.884996672592738 0.14800616490042887 9.322857274421693 0.3369955197910067 0.8996426229806893 -0.332201440836473
Ni 4.460894547799172 8.076828075831289 3.2444870590974966 -0.3288217257309627 -1.0336955709347617 0.1327303724879069
Ni 5.466208377609594 5.645548866576136 3.4759645497739244 0.14396994995746817 0.59511705079293 -1.0536079935879725
Ni 3.1659255375528583 1.693561344661053 3.3954949526512217 -0.7543395560340944 -2.849332004560654 0.13494332097882566
Ni 0.2536893519422444 3.962905437295909 8.236798339990468 0.5743481936766947 -0.0654857404076356 -0.5044779510481183
Ni 4.060543060778317 1.4704468096279946 11.904257354778915 0.10005165130796317 -0.060310109743967104 -0.36386611892960563
Ni 5.25259698972387 6.123591606524319 12.121172971104704 -1.6545251960024474 -1.2845159402895812 2.401554591528374
Ni 0.9620144757169844 7.432894452820481 1.3480302651508433 0.5339060265012482 0.4916969972333661 -0.23425860834139656
Ni 8.040230255475443 3.015113105399813 11.731971160839764 1.6066119172609366 -1.4157314187948586 -0.3937747335635799
Ni 6.113045998573359 5.577630683682797 5.8783620101572085 -1.1524931353916603 -0.3809829811155503 -0.5528612274475123
Ni 3.6684940294434756 1.789672507681009 9.481794385462994 0.891608182711987 -0.36798862573841146 -1.181299260990075
Ni 8.471594951404153 6.403976331956542 0.12374568200177352 -0.0560086541551358 -0.7705156515733247 1.3698305424976862
Ni 0.15347815335088713 2.5348365208724335 6.480827100860946 0.0020903068701254323 -0.45832639219272037 -1.2749010429076366
Ni 1.4489367478674755 8.634516682713596 3.3896366952422774 1.9282342970299824 -1.4794083881285296 -0.45159138746173194
Ni 8.199140374228078 8.478212715970024 2.548487172788477 1.2005473105864097 0.19404835467109807 1.0326460466243248
Ni 0.43321785616086855 0.21518531754548345 5.275977896319467 -0.8439689835674691 -0.20501976608093722 1.1454534549360595
Ni 1.7877272013599579 3.1321665613497416 1.750467604547525 1.617974136351291 -0.7215675038093959 -0.5286267803801799
Ni 2.487516246536441 -0.07139460351971447 7.643078750814287 0.8697874872924698 0.046851927356532215 -0.9473018767298652
P 8.74298845240511 8.737431764014357 7.052015575150201 0.27932181922862215 -0.7620945173891649 1.4371358526125637
P 2.4819781735171813 5.811272211295322 8.237520616404408 -0.7832788647762639 -0.35513799502798843 1.0864533222527675
P 1.395315170280998 3.121537184227062 4.161883281650743 -0.9102921322747356 -0.6763783088672674 0.7631882646739759
P 6.822487113869123 7.4207665382925905 12.828029342068621 -0.5080556410970475 0.7379868257076838 0.7260437944131948
P 8.074007847050053 6.570286060877769 10.107949397929117 0.6159622696730552 0.34264680453951313 -0.6889864845495811
P 4.675585627231508 7.112682140078321 6.609739479220688 0.5822221971081327 -0.24992382568247926 0.047511158207085916
P 7.495293178066054 5.798148374392539 2.2005351642155624 -0.10909447823652178 0.27059343821668885 -0.06885465687986853
P 0.9064494533466053 9.67115087506151 0.8970384522881629 0.4197832418121996 0.0702574507646661 0.560524400419725
Ni 3.4535609501817266 6.058475037040723 10.341334033415034 -1.6638390172042055 -0.8637052856541318 0.8310353062249365
Ni 3.163403154715515 6.111314769024481 4.303177674359259 -0.2580559678713104 1.8133206410085223 -0.14506652545575663
Ni 5.4710297588263614 3.618521064669687 13.036266472204227 0.16668821749059035 -2.2001410547414557 -2.3206419750427068
Ni 1.9408293242066803 8.453538041055644 12.755024508914735 -1.4371155408975893 -0.3723780130553587 3.1701393446275725
Ni 2.2101751343433724 7.106678682771729 6.502228262698229 -0.06870810399967522 0.8623066055343924 -0.6153719443872241
Ni 1.5015344800218209 5.222281857247016 0.5458371306210911 -0.3790081167773666 0.06148484677835862 -0.07636947719967492
Ni 7.877382985651974 5.058931972393227 4.217763834567934 0.5758137224786277 0.6263302431709407 0.9626194809235421
Ni 1.5892221874410544 2.2871124647252197 12.473674576470582 -0.1300034604750471 -1.4027118666067389 0.7275208931793535
Ni 4.793886313071489 4.602892601550136 9.065033448470786 0.5824870207337453 -0.6781333438851612 -0.6662484195221171
Ni 7.269861029282078 3.9514849068847635 0.9658082884273207 1.0913337902735205 -1.0288025045085185 -0.3686422001620103
Ni 9.053390464370295 2.565077191863314 0.728421348070342 1.1137455823098172 -1.475890090562626 -1.64809229589291
Ni 5.899685918202795 5.53641625119661 0.5409533879098214 -0.2637051957372878 2.5109401186427527 1.4396303368996433
Ni 6.1178022259899 8.130961576133833 8.293986622755064 0.18684720893696852 0.2561860045421072 -1.1703301635730812
Ni 0.9200554283710652 6.292405102911394 11.853853444155057 1.3787435287165997 -0.985445477679122 1.5743137193488628
Ni -0.03125334720011697 6.385388883520474 7.897673740579681 0.7831181708286836 1.0905897130186444 -1.5558642543944239
Ni 2.5118186140209566 1.598585719302189 5.762568814857377 -0.34732441252084056 0.017150286527041432 0.17666332642543123
Ni 7.079388548162538 0.6843001253254749 6.2677676587399995 1.6473819000894465 0.004400443060540809 1.2975573468545716
Ni 6.85574347504192 2.8995116484263623 5.481462743779787 0.341852847883308 1.0992512453483843 0.24026059156110235
Ni 7.185365858073947 0.6031678209776105 11.636189489895239 0.005428884325055167 -0.3557787139357808 0.3153987674568375
Ni 3.3555044808407204 4.929815755715633 6.425055447866992 2.105360936245077 -0.5072493431456684 0.9812579219603358
Ni 7.321453531375786 5.0514765161101565 11.935304071355457 0.22212968628834648 2.092859204233641 0.8034823363073323
Ni 3.8926789483373994 4.482516301788651 0.7492687026056991 -1.3889454089502662 0.47067360090416355 -0.024154485759016468
Ni 2.4967122400541357 8.976778902989581 10.77851510216683 1.1337963303131053 1.399348349451145 -4.357798486397405
Ni 9.11453265204007 3.7802793352607984 2.7258693246739227 -2.2713917226573273 -1.7966989732914411 -0.19733088207711177
P 0.8013163505324171 6.939624338990772 4.595318006889508 1.9304040509877918 -0.8188855582362802 -0.9417850606766942
P 7.986310831945072 0.9938374532847966 3.969584632587708 -2.316472159935733 -0.77748462669199 3.3132515745704354
P 3.35088786871038 6.08658424799562 1.9545227914771586 -1.150623429172773 0.6712733835405342 3.4723432106606906
P 0.5932076664601152 0.46163422074540517 11.393963483718576 -0.5507076714396193 -0.24148777909998412 -0.2023437619106709
P 5.099718251335067 0.5460996073591468 2.3089315416525276 -0.22343169292922163 0.8239272344252455 -1.0629652664331564
P 3.821409998575265 7.68683604304646 11.733455736716355 0.3439128157361303 0.8244861922525091 -0.45757691562120545
P 0.48261932902981275 4.171937443794279 12.524595994421954 -0.2398934380296707 0.8106099484910492 -0.09286670352374973
P 8.104443979441614 4.81149645450416 6.603540560513416 0.9904426737833976 -1.7693974572630107 -1.093074684224027
