# total energy = -381165.77242792665 ev
CRYSTAL
PRIMVEC
9.34225987426086 0.00000000000000 0.00000000000000
0.00000000000000 9.34225987426086 0.00000000000000
0.00000000000000 0.00000000000000 13.67334165607618
PRIMCOORD
 96 1
Ni 3.302741175321316 0.43470376903251695 10.418922843751634 -1.4243649261001405 0.411248207757995 -0.40492817907723816
Ni 6.692468134142667 3.0884390716044976 9.880110796965097 -2.6421221728069333 1.382049196051065 -0.1686340283630515
Ni 4.691337342898501 8.883237462522178 11.837736551521157 -0.1505602015804762 -1.687719680476545 1.2320703208953556
Ni 6.823670834548046 2.4934959236469516 6.265425952592523 -0.00016506482295455444 0.15415511802058612 0.06868624962280429
Ni 3.042895553769392 9.386075268462022 1.883693911050075 0.33971548982533106 0.12211891552064774 1.5514548124728185
Ni 9.231479548844517 4.442721117949201 1.8415939502763068 0.7112033869662526 0.9983999809572611 1.279269090068345
Ni 6.486172347304758 0.9587774663346109 3.73971417932453 0.8083111251545434 0.5588794086171344 -0.14822358302749955
Ni 5.993405497719018 1.447125426907838 8.408996314652748 -0.3797881894765008 -0.6798089318153712 -2.2270903296367903
Ni 3.0813296116921864 3.0059469151975264 5.050645336272261 -0.7751775758253682 -1.1200165029201936 0.42464725477272025
Ni 8.60876186170261 2.248074751641161 2.0207009576361625 -0.7206917860726619 0.17566085330284584 0.011587190616967141
Ni 6.324205584493019 5.986221299726156 2.7248513888932475 -0.4953906440348694 -0.14219254634207124 -0.9262792517316112
Ni 2.28284664361701 5.277097049208475 11.111531846919798 -1.732702158724506 1.0429962795103973 0.7355301366370752
Ni 3.1415498200952823 -0.02518673314532205 13.363873208734352 -0.1575317478023029 0.8734759918876505 -0.8895273889235583
Ni 4.679743598153194 7.464484479443104 1.304087017221372 0.5415355180220479 0.952591921484211 0.9437311286594715
Ni 3.5049543945091854 2.6371238299437545 2.7390030444453743 -0.7440574573817961 1.1203762002524575 -1.3536385061188558
Ni 3.7749830795360357 5.109188608993017 8.594338346382482 0.11411147183513895 -0.22887497543198 -0.5993094916077227
Ni 6.043844359830143 9.422416660129418 5.768331768142942 -1.1491630425771628 -0.5127728440670588 0.8684412576772205
Ni 6.138864486989293 5.48549484456185 7.242755278971637 0.9170968139013947 0.44205079496114835 1.0305976487357282
Ni 0.7136047984466493 5.587568378072898 8.79024927692798 1.1831473699424075 1.057179512989315 1.9388627232781064
Ni 0.009985007561468919 2.5931404695401286 5.901906468379774 0.9696650749164138 -1.4313092186284577 -0.2589892783188572
Ni 6.117564134032568 4.951491259032692 4.9205160615487795 0.20216018514495504 -0.08392980604543611 -0.1516140967662873
Ni 2.055726959085881 3.782466229851096 9.392970790618758 -0.762824453576654 -1.0815515140757759 -0.1839950842001541
Ni 9.252770559541176 3.699086558737595 7.893675380809057 -0.45251672748947874 -1.1752990775425822 1.5717809256246802
Ni 2.856153117255355 7.915136420638966 3.83091519056758 -0.1513670137524877 -0.6103294968673102 -0.2909892282642214
P 8.35733361647262 7.517623254714095 12.951580587380734 0.33095059914850744 0.37134828623926364 0.5239288606838783
Ni 1.401189534149845 1.52263891504346 12.070101915080881 0.1637029096100213 -1.2971701387184822 1.8285888800215024
P 0.2158062075878855 0.928564597272307 7.643808227236554 -0.12026617858262512 -0.7570646682747413 -1.435765197517282
Ni 1.4851203986074017 6.181381112562128 4.9602645754632455 -0.8085106427598591 0.48028181341788906 1.5752357169425002
P 7.252872946626082 4.474045715959685 1.207527285602893 -0.19151093296122498 1.5060357609080708 -2.0299337683540135
P 1.0387658970431597 3.6178836342201097 11.733463849989926 -0.37269503007514526 0.36930734454983494 0.30879488898707463
P 5.13985924879869 2.86745725193853 12.125068036421318 0.9965480153501869 0.2474272845128707 0.5596440546973007
Ni 3.8131275273966994 2.120468821362247 0.2945978947816287 0.782481308575633 0.46836115072090306 -0.20115796913268583
Ni 3.047305100521837 3.0567501254513325 11.55342728775323 1.457203055676084 -1.4200801826818577 -0.367352020595677
Ni 7.93400778597782 2.145590158687088 11.46251308389429 0.8827677016022217 -1.8388604371508397 1.5756884882092024
Ni 5.150163761654509 7.126089135233217 5.554781716361657 0.8769572655680317 -0.8696270504552057 -0.9692292729305759
Ni 7.148192922555855 0.1665491413754558 1.7411908128655484 0.987682337429441 -0.7786009996846203 -0.2872251332360989
Ni 5.037580185566128 4.372392584151729 0.4171122933230802 2.004198054150806 0.12324891536003289 -0.33147716107593883
Ni 4.585386771458923 4.700063013802703 10.9111768032596 1.3277685803306294 0.5079301712627768 0.1619170213541921
Ni 1.7224792001738698 1.1628030839758157 4.030066951130923 -1.5395068960823228 -0.07389761862041466 -0.19324642759509297
Ni 2.954377639618084 4.70422966179336 13.394966118695132 -1.0782880128331558 0.5033857464252041 -0.20367585045853312
Ni 1.1222576752774858 8.624484885398298 5.77601577704948 0.42640357534219464 0.07621983899568809 -0.21247622235898245
Ni 3.916013837533729 0.7136197460627594 3.9488472105453147 1.7646303748916707 -0.010964726541619826 0.896252623462534
Ni 7.759840031516307 8.577371867871644 7.350241717966513 -1.5663384144528703 0.6911307845860936 0.5052845061098137
Ni 1.9958524143053287 2.1025877355906792 7.713365090352348 -0.015580885157392518 0.8429806515122708 -0.9694071932693369
Ni 3.5735172411536653 5.321995951098837 4.755533617186852 0.6585088847860142 0.03989349376082806 0.01989031116602381
Ni 1.9122485289501778 4.447401590243639 6.721938293529505 0.09081007810503715 0.15251706819653088 -0.11515379705672427
Ni 8.967682151283517 0.7865930736856914 13.30018235071572 -2.088932615485725 0.2244850738944005 -0.2729341705347235
Ni 4.527688973274388 3.9129122071909075 6.6651111939833765 0.06681731473486559 -0.7128730613591916 0.11137684651279528
Ni 0.6627259158862864 8.538321220784312 0.7854308965331402 -0.10551601685664407 -0.9426211834247443 1.062632565684086
Ni 3.5578502710183892 6.822643185940485 10.189223761215526 1.4381357546319877 2.4253198122687714 -0.07074621747562655
Ni 1.6192472264142967 8.134259130551253 12.266956413893324 -1.0125647024934175 -0.6229638978018691 -1.7799477219750313
Ni 6.0926576686893075 3.3196319815255975 2.387706973306565 -0.6378593268564627 -0.44300184602050807 0.147082784554837
Ni 6.135305085903104 0.551959409381275 10.496395403823671 1.635693922228557 0.24257484151657574 0.41472022546699544
Ni 7.384131700591874 8.02369348263772 3.826170256678667 -1.73704860861866 0.2850906033915993 0.5602474926092544
Ni 4.1477579407988845 2.585162179441425 9.296396111384169 -0.1549614159719654 0.310101266503324 0.25683855052444154
Ni 6.456678832267747 7.192568657882368 9.089832201682286 0.14026987539806166 -0.1464682908992897 -0.2308542106455379
P 2.062696285097161 4.396140609246465 1.679195575049392 1.1365337838489267 -1.5517132083405276 0.10255359179421049
Ni 1.612352638483567 6.211182922181407 2.583987857350784 -0.21025890299268948 0.09102913609437871 -0.2114729779054487
P 4.449279384517456 6.47170118645828 12.825800134719252 -0.3464363534889324 -0.155254521732352 0.09524471683762306
Ni 9.14903410373789 6.790440415483539 7.246775253479216 0.27167253021348053 0.3897802676922061 -2.584389336871839
P 1.4889413829755163 7.5521989592285 10.08999681434742 -0.4551860467915258 -0.3001672952190637 1.197800343968892
P 4.6391514781545204 1.6899494506145183 6.203280304389261 -0.20506938837195007 -0.1741305327012485 0.48797841073119835
P 5.142138760255462 0.3074780687384 0.9931532464835453 -0.5495169935656278 0.4850830914612743 -0.6095728212069437
Ni 9.028257365569225 3.387101783742035 13.354957889950756 -0.3258153348044711 -0.23315123420983072 0.09780296448310252
Ni 8.29529166735612 0.21248877103747604 5.484869847363251 1.2762881530631502 1.5276546247294271 -1.481568886114958
Ni 2.5637030080635297 7.234085661627847 0.6034688944962778 0.4004981683303425 -1.5471183898809937 -0.28634581595493913
Ni 8.758565001904849 4.188163215596183 10.495247240061223 0.5025586225382184 -0.7645180392289931 -1.0720569443217796
Ni 6.719411212180912 -0.22161242222060717 13.014492300909634 0.2515099392226765 0.08828499769033828 -0.30994314365890496
Ni 8.314209743995317 5.723236678791136 3.9157578596078455 0.4544460833017076 -0.5025156851154249 0.2925285477268833
Ni 3.616949408213236 8.750502631465526 5.888985188478701 -0.7038011809649105 0.4492514264746456 -0.008523978310611127
Ni 6.9563029007439425 4.287051038423792 12.070634423904803 -0.9707459666854185 0.3397987935677567 0.9852968679163999
Ni 6.054541247608849 7.062430975124825 11.415544871398701 0.5945028142476988 -0.7877597833657529 0.2727048281327368
Ni 5.324238093515335 2.8050135856390748 4.304367851687208 -1.093717974234981 0.4263835207375366 2.17552762706815
Ni 9.254667038335128 6.304951186491346 11.321226347970713 -0.019595919854056575 0.9182499536692315 -0.3042296382138954
Ni 1.2384473637524005 1.5629227404598656 9.940861645740098 -0.359508099071226 0.053016147185715144 -1.9312820827173705
Ni 0.5938715907276615 5.872077566206296 13.645489098924461 -0.10780429867018854 0.4423616413333478 -0.05082145352724151
Ni 1.0161015741163975 3.970012100731044 4.120912956491361 0.08265325332585766 -0.0070761901204910395 -0.3134452432748924
Ni 8.340741762590538 1.781204646965967 9.100785067386878 -0.38068113360441536 -1.015227079816929 -0.005893996886931784
Ni 8.354465542631516 7.163019089284944 1.8690228258381263 -0.6694011062184858 -0.9833240604607453 -2.0545374258353064
Ni 6.479614080736503 6.671438706727934 0.17992352088986346 1.0756927413021538 -1.2549572527958581 -0.28763959506569814
Ni 8.754585199115565 7.894022912883614 9.228289167031043 0.7891929162678538 -0.8252418394716111 0.20520977060455625
Ni 7.868892233298705 3.296005405811755 4.171011760335984 -0.0648668758767141 -0.11704201521837262 -0.2441046478975409
Ni 3.568341629075584 0.5092998472293891 7.914403987449576 1.616940295770138 0.7112023585249881 -0.152265357197041
Ni 4.455734886224955 7.280227084107352 7.78255199996942 -1.4635837623914472 -0.23478337049661502 -0.6196255774572554
Ni 6.850165484102992 2.2003171181697643 0.47149078650519305 -0.8410685220912225 -0.010364631063775697 -1.9313414752003963
Ni 3.988603198267836 5.4522924522775496 2.3937644947351355 -0.7820455065897951 -0.49092052407865777 0.02482785767695724
Ni 8.486032591179576 4.802678398397739 6.144143798154138 -0.7482216160618146 0.33099713611572673 -1.1763216052698258
Ni 1.402020995295963 1.4312529270510492 0.856301281414599 0.533377664801604 1.4785858922272341 1.0777172279313505
P 0.08398972069598991 0.5048959058329854 2.665139399437891 0.6782241038267545 -1.952723283310282 0.2583668142435099
Ni 0.2193478583799447 7.639745278332659 3.660777687099721 2.105386133056058 3.020269484245902 0.9261015885031664
P 4.785871672534077 8.711844359301082 9.2497838389972 0.9683460989946744 0.5572416159033953 1.278444794394837
Ni 1.667817636511674 8.5143863504882 8.131768484016929 -0.4626615292329645 0.0361993327386925 0.34814716553245206
P 2.2196462542519866 6.608630692285797 7.133218213891672 0.19973743463607535 -0.38964271367307735 -0.6127054532986544
P 7.378610424891249 6.9067515533393475 5.711901714649734 -0.14281423908647017 -0.4773731244115263 0.44542253964685874
P 7.181769005242905 5.1159991165831284 9.349626440803835 -0.33283650331731063 0.7585060287069582 -0.5393338823850388
Ni 8.72164439011319 8.857256637271014 11.179201573501706 -0.3523966848374253 1.1802857321238964 1.6247651911311953
