# total energy = -340886.2863175562 ev
CRYSTAL
PRIMVEC
9.15143336431722 0.00000000000000 0.00000000000000

0.00000000000000 9.15143336431722 0.00000000000000

0.00000000000000 0.00000000000000 13.39404776974176

PRIMCOORD
 96 1
Ni 6.533693384230223 2.5167082658340267 11.553839422215258 1.5083073305510668 -1.0211868969447897 0.7914426315339789
Ni 4.683904984366592 0.8197863258907544 6.271133266954163 -0.039085653147552045 -0.47718594810138465 -1.3525280466634966
Ni 2.703827626110341 2.028488441342361 4.536041613127363 1.5774404379033025 -1.9485046172432443 2.248936221867288
Ni 3.6902057318482124 4.4261640119588 4.770624883125059 -1.4266948597848976 1.5592511685887855 0.21415695249551506
Ni 3.8771329120215383 3.1677870004580977 2.6071381557235167 0.22681577891010615 0.11281357895932184 -0.7970707763540337
Ni 5.533551522544997 4.8960169094648665 2.9667812550258548 -1.0177213069936926 0.8555687725899265 -0.40961375747836554
Ni 5.635544248630952 3.1337162136283077 0.4311240310371773 -0.792518638206977 0.47709390260821055 0.10412222183291099
Ni 5.826790905404778 8.363870262155569 12.564125647908227 0.427809968771418 0.032059342428389946 0.6929040744364324
Ni 1.9966414528471506 5.4975772375522745 11.31684566464008 1.3834615030175594 1.041562118167032 1.2617045988220206
Ni 0.507938418201617 0.5797204320978049 0.40757922299106286 1.1667884689684098 -0.5701164149835342 0.5651495578965622
Ni 8.107739942039489 0.17371067994781345 6.9577525086242105 0.0317999181194162 -0.7271131162179735 -0.24321967418942628
Ni 8.593186882188038 2.6723466949541557 1.5097769556532263 0.9463135446746671 1.0449058378282843 -0.1331250368231643
Ni 0.4901910432623175 0.20555583815632905 4.492162319898387 1.4871294109218711 -0.1581092175723277 0.39103290915238464
Ni 1.7039969131632862 6.918401344678978 0.36386099499125807 1.7028251686594158 0.9250865169750907 -1.4321432844939788
Ni 7.769933078153365 4.401876107514465 3.8693660904307667 0.8773480732485471 -0.1549796708044105 0.0587507356766472
Ni 7.968409367372941 4.320730346886006 12.941436504678625 -0.42350105698341906 -1.7282286963341849 0.08574654753920072
Ni 8.326431747806746 7.763023745879259 9.096460814747124 -0.016114646173675473 -0.0021296447484931065 -0.6985214206232099
Ni 7.21776303653396 1.0186643630399124 0.4772994189251901 -1.8493651933369053 -0.1924298452310686 -0.9866999189115135
Ni 2.0187696189912363 6.649367503362253 9.23456692761463 1.4002621195146658 1.2394239330469494 -0.6537826829549386
Ni 0.4169292425731194 5.265204038738944 1.2947036266822367 -0.9534493843885 -1.1868546435906657 1.6794836657199976
Ni 6.588711802285742 2.423848670356756 7.039991865553006 0.39306485198074886 0.22974220852828175 0.21270376498875626
Ni 3.6108628036144546 4.720236175264864 0.25300419044080275 -0.3843992058859509 -0.5489719196954352 0.9040950023250881
Ni 6.069862129951126 6.088650022876605 5.017959760527705 0.11647277297846392 -0.9255174338649221 0.8079213459152925
Ni 5.558461724465676 3.62051756593125 9.783052602116744 -0.07302935708284843 -0.3437847747986983 -1.060770829884999
P 0.1645162347348427 5.900780245055288 12.60330384976077 0.8580943672252577 1.2276115137930537 -0.858060942884161
P 3.8996088326376985 6.553881446477475 12.65673266382157 0.4071400991268923 -0.128943651751965 0.10727490852927977
P 2.4161797691041733 9.02444818472735 1.421751147337786 -0.6975415732084438 2.0933423145176464 -0.9639294579842173
P 6.4749594841835965 8.195401523302598 5.902221595827701 -1.6851154100844783 0.6385010742055197 0.5489225545147385
P 5.084133775990025 1.351758238686085 12.743566040355136 -0.025650353578252596 -0.325757227873026 -0.06221992517217026
P 4.108051032912242 6.65356801132757 8.292014121648227 0.4873173801084317 -1.1045351194551427 -0.1602236928121692
P 4.743059850353099 1.60278205892276 3.845591581404414 0.5997326951880703 -1.3074823192777676 0.049915139662888235
P 0.21602233262241308 6.114100159372346 3.6709062737914455 1.0237376883911014 -1.2809192240772587 0.7016360549927916
Ni 0.9739962162453367 7.781500490066566 2.4525841714702508 -0.573395085734806 0.003584889137780923 0.8104711089203396
Ni 2.009673094116455 6.840760583071689 4.882237596080602 -0.4599114772916531 -0.15267673370284676 -1.3316625160683968
Ni 6.661767695721739 5.8687410764570895 9.30018362077828 -2.438182270053736 3.300450051930393 2.2643049910138746
Ni 8.916461269714853 2.611654388143743 10.037780922624357 0.3267275622060954 0.2579495242004332 2.2016528634002923
Ni 2.6781304009107574 5.410592862366361 6.8930326559411705 -0.3282835938393056 -0.13548170998079892 0.5397663419367672
Ni 0.7586712228537671 0.29151982850970887 9.165011457483065 -0.05425439046819043 0.23102801721924082 -0.5221748541072492
Ni 1.4396760600865128 1.0390812111240548 11.37666309441022 0.13656722973549384 1.3387456481674234 0.8022363797153731
Ni 3.7474113425044084 7.493102215515398 1.6487808241446933 1.4423942727980255 -2.3625771818239114 -0.09564503759983528
Ni 5.8144181673457185 8.15646217386377 8.200827408210303 -0.25971510074128823 0.36613768857260165 0.117454677275759
Ni 6.882362999651926 1.3374362452967157 4.694761329898737 0.3194156019257144 -1.6340183342983472 1.2681920063185772
Ni 1.1296071910650387 7.6951475637904725 6.9559707245265034 -0.6543966623898536 0.7423427886835343 0.4720666245969483
Ni 5.419314178468642 4.660806766274089 7.5539748055652804 0.1044533799200846 1.2583459667624328 -0.7489047581717683
Ni 0.7656766451793658 7.7932692335162335 11.100022581588549 -0.38836667517413115 -1.0610526227914758 1.0171078417794097
Ni 4.582232558452285 0.5710375520161222 10.793740575739292 0.5785223796590423 1.085196567027531 -2.2792994075401776
Ni 8.086920430882419 7.709130954141243 4.667731655985102 0.3550834876409691 -0.2781195713904049 -0.04915486445809599
Ni 7.491491563223685 6.58081411519627 7.097425346902745 0.7156732498121482 -0.6870134199836104 -0.644134104121581
Ni 2.604644390101406 5.5433618592308775 2.503494511038557 -0.7695849122289391 -0.6234310672462747 0.4266776549391878
Ni 3.4596262139961063 4.664302613861781 9.289683266008337 0.2777655304850958 -0.04480970011552283 0.36224709526894383
Ni 1.1786680259279194 3.580690527445285 3.8309117669661474 -1.5847678248026513 2.6972754209403096 0.19413525795794953
Ni 1.660234758282798 1.7953922792844554 2.628260579328631 -0.6309520582136682 -3.1795812067667626 -2.733742919738724
Ni 1.1142144799590203 4.067693211284691 8.55562207805725 1.0258012557883496 -1.040888232028459 -0.6160165199497585
Ni 5.611238041319664 3.372367295805924 4.7520740123266 1.2029379223057735 -0.2940627249832226 1.5787637847004166
Ni 4.12298617234448 7.372916439679879 6.030991416263365 0.5205640579767035 0.4871073209801547 0.16031085320933683
Ni 8.341861064646666 7.498620529901205 0.3846567124212916 0.16208799971441762 0.8612699367397618 0.24683721633735553
P 0.36447597132082077 5.996897750849886 8.025151000351922 -0.8323270284531664 0.016544020401610217 -1.526802818252093
P 8.697284437973389 1.9098584091977013 8.083883985255202 0.1302294604429241 0.4281542394847142 -1.0898224958353164
P 1.8823583516034175 3.5063442818892243 10.62656951015317 0.772414154147618 -1.240334874896993 -0.7124416302487279
P 3.9886248260552026 6.531661765998632 3.838305210071113 -0.6933643019023027 -1.016486663255643 0.45439671812101096
P 7.3998674112656255 4.4108902694879655 10.806397923379443 -1.0435722066185253 0.39912519924221584 -0.785690302431234
P 6.802168988104935 8.378979278823842 10.38794130655924 -1.565330027793014 -0.690741776677791 0.653207784288075
P 2.397025818839669 9.031073822563709 5.719030945942476 0.3790222578447537 0.004601760438069494 0.10119733487663216
P 7.061822610109134 4.3158709357104446 1.5980434466690763 0.7243337537006235 0.40756433114850454 0.40263218395420985
Ni 3.048379096468009 1.7324212655386093 -0.02981903083700994 -1.606489275640143 0.3389228187207066 1.6614604896696998
Ni 1.7882175554395574 1.4675330235863466 7.3016176214712045 -0.09800479608126346 -0.1522069931552798 -1.5407433395925851
Ni 6.9414538056041035 1.2723970075853757 9.389294789103934 -0.6809129635128274 -0.725416445241841 -0.20876817737977593
Ni 2.7973369733643825 1.8802901276379238 9.251764301402044 0.7725157127224889 0.296706847474289 2.4527969346431178
Ni 6.405600769871756 2.358791129778465 2.6268274648463463 0.14555503505640094 -0.08331171284546297 -0.6046848969870231
Ni 4.718350979968883 7.268580946624161 10.656183548880323 -0.21012160608387684 -0.8557734324015649 -0.8878281468442646
Ni 7.150271214651149 6.419492645887772 11.98483350289708 0.6841240142509573 0.2416672421006419 -1.639554690735544
Ni 7.828566312431759 4.32265214791589 8.538437516276701 1.4885365756820428 -2.8450022668370485 -2.2790011595734687
Ni 3.381884786620585 8.649834255402219 12.442989953277937 -1.3518449045535428 -0.6035937208053734 0.7270308409168124
Ni 9.175776288680455 5.7313506056873775 10.122216623587304 -1.6024680702958918 -1.0204790722444876 1.0521838595469364
Ni 9.23782300764526 2.182250826599985 5.8848622416677685 -1.2085902354955445 0.8526531416050284 -0.6225571492817537
Ni 3.98959487800362 3.0084239379133852 11.635664219207609 -1.0781409457323303 0.11614058645002578 -1.1392442408015542
Ni 1.436930630043822 3.7800270514115724 12.84876268330091 -0.8826455742020605 -1.0343447744829863 -0.2137687159181609
Ni 3.253636597893032 8.774989259615007 8.096902814517641 0.15915488522802268 -0.19492972883478688 0.34577275176300454
Ni 5.565352753872829 7.837424900036175 3.572339844398768 1.195901327173966 1.672399762290023 -0.6943965998215589
Ni 3.3453797184862757 8.969878186912135 3.597975754994065 -0.3473382964779115 0.07600823720551426 0.4633295018342665
Ni 3.7796060854716935 3.0382667624774315 7.410243306540301 -0.00526947592905544 0.028002655860513065 -0.95614904270785
Ni 5.371177638386801 4.823921916543811 12.089682391370783 0.39552719747831233 0.6641385722679659 -1.2165380295877113
Ni 8.143091929555869 0.1913528134021431 2.4700094159512074 -0.3171689719833828 -1.105709085158586 0.23483530678047299
Ni 4.64966947173424 0.4069770586683661 1.2615919100806932 1.1492332336934659 1.1083058993514847 0.935608499552337
Ni 5.860724420732433 6.042371223790317 0.7667473628960151 -0.06218033018348646 0.6154673323145078 -0.5108049217074107
Ni 8.260440761013939 0.0006140611862151263 11.831672366818806 -1.1250671779702237 0.1883271359166047 -0.5285097951863413
Ni 0.2999446381673787 4.6982452806229125 5.909387168239123 -0.325097225691524 1.4476390661367324 0.4816984912597575
Ni 7.58813985215987 6.63413036662532 2.5641968844257934 -0.4101477756049646 -0.760872986277238 -0.2555488851787405
P 8.687108043948482 1.9194948686475453 3.566433509233593 -0.02288667479018639 1.216833192230627 0.7907306930686188
P 2.0231623070595415 3.524043154231103 1.509549084959683 -0.07466483580374238 0.9342658694815136 -0.17359060103737844
P 4.905598460313857 1.3210368765083773 8.350277638014207 -0.049000598268418835 0.4811392763221778 0.9059803922732591
P 8.683081413219202 2.019263796398921 12.476997595216746 0.35179247559452315 0.8438293726658113 0.09141814400268126
P 6.409453523364999 8.153698440954129 1.4288371022779705 0.04986243204808186 0.12377367751525135 0.02725986415721757
P 2.051797142404804 3.382433872629123 5.985960872703154 0.021125726235021684 0.9922830694262458 1.2888330796076963
P 7.243487716033971 4.486902075936591 6.203064904762387 -0.8767767741261094 -0.5523197531217455 -0.4935152813890275
P 2.4894003883427316 8.594321659939016 10.277587830849944 1.7862222421298333 0.907095993934941 -0.045890848994843546
