# total energy = -381175.1309179492 ev
CRYSTAL
PRIMVEC
9.20575909369408 0.00000000000000 0.00000000000000
0.00000000000000 9.20575909369408 0.00000000000000
0.00000000000000 0.00000000000000 13.47355896601899
PRIMCOORD
 96 1
Ni 3.9925191834446903 2.205709016118431 5.107044752520492 -0.2689034521087756 0.10312591935791271 -1.592369291298993
Ni 6.962720439760596 6.367089433375419 2.2669125829765067 0.6793762151533268 0.5108689421761267 -0.47144030386685903
Ni 2.750643908748806 2.6361610922144476 2.6410870937525255 -0.01735134679425399 0.8617579321197739 1.4089583617370833
Ni 0.6141612782894875 5.291994891001259 12.709553461939853 0.3980311948470887 0.5822273393144555 1.3486739630247289
Ni 5.158520594046318 8.551238562365878 9.034236189161192 0.43594931004910076 0.5770771625720835 -0.23011270449382304
Ni 3.0097860191896384 1.1056300443397806 10.718795231681076 -0.7358134722054488 -0.5960058811557865 -1.0698591653395122
Ni 0.1329348394888026 2.2483224736399445 10.952480657290575 -0.4887338008399841 -1.0120229710573345 1.3862344377770062
Ni 8.332546556126715 3.596284912837433 3.963031296831402 -0.03847887280148857 -1.3903520594898056 -0.29274863415748936
Ni 8.969861238393813 3.6837304157531507 1.1616038196191196 -1.2991018085235562 0.2518246422496179 -0.3404647092865298
Ni 1.716478170034325 2.11212327207788 6.62641750014417 -1.2792356657272486 -0.38221273975759334 -0.5911778636395237
Ni 8.279383299011412 5.639503080238595 8.665250044049273 -0.5001476991038806 -0.5635433897517069 0.2781367977815855
Ni 3.0926010254250107 0.8299718820217941 8.102917187847952 0.34385110926025947 -1.5068991373496308 0.9887220915478648
Ni 8.278186550366392 2.514571429880433 6.711786183872838 0.4355842134001982 0.4798506394177413 -0.5648968184558077
Ni 6.843745212928009 2.770629611120637 10.674184124498261 -0.7663152403387318 0.4673627913633757 1.3380820464414955
Ni 3.7297960328276063 7.6547357408639085 7.379818642129953 -1.0118463362701542 -1.0371439344946785 0.6020896254560211
Ni 0.2812396138831829 7.645281426568252 4.449804205313813 -0.18546961186315153 0.2566665437229515 0.002005203355486869
Ni 5.78761453369801 0.998042341152498 2.193724038726498 -0.7777322239264218 0.6147008864621284 -1.4141473621371905
Ni 8.25640572502703 6.724677928507344 6.4685203250720145 -0.04257078348267507 -0.7724686615346374 -0.36216687685031174
Ni 0.02368641741258477 5.674273231255825 3.0631996729445157 -0.14369741302237188 -1.191051969501465 1.091457203225262
Ni 8.454403185466157 3.1109296912114295 8.965750867086111 0.3475411565173369 1.8792388409678862 -0.600987650641094
Ni 8.632967289061924 1.1369204185276454 4.542299987511515 -1.0826244354249808 0.6038901689998696 -0.9366335983827418
Ni 0.4752012696609505 4.512589321535077 10.623119780391145 -0.8969257382701585 -0.08722904562199815 -1.2744307881394374
Ni 5.974887285125997 3.99798740417655 8.71650310621195 1.0630858511714207 -0.014587153785555524 -0.7491166170722582
Ni 8.268934762764507 9.120246514278767 11.3499908460686 -0.999247159448905 1.0327170090715763 0.40907434003512777
P 7.354416271275586 4.619366917947269 6.808013980691241 -0.035131810706126594 -0.08628210832769657 0.26525299984038186
Ni 2.352826247626599 7.530955107933626 2.2261283097301114 -0.2659875640135613 0.43215924687904933 1.4985731339824384
P 6.70649655486185 7.424186717280241 10.785677831147712 0.9730938980923047 0.3559743748863547 -0.5567631336050799
Ni 7.611652789643195 8.537798154506424 2.727048628348419 1.1131879100341344 0.14482869841333768 0.5987189092115753
P 4.816130806706145 0.4208799280876197 13.25629728617597 0.6523546922591603 -0.055965459622026204 0.3928419373366654
P 1.6030632215216765 1.2441767143978455 12.430947615651595 -0.5767161796882391 -0.5320944272138062 -0.3264300855703346
P 5.083594923109269 1.6753192224044506 7.395447258858031 0.18887272400742955 -0.6269259677734106 -0.1647838013790259
Ni 3.5544907678498174 3.0715198377550457 7.802349162771819 0.23062923911892538 2.3767753277011647 0.057639504890339435
Ni 4.17123978494019 0.17336192929345318 5.777003976096088 -1.5322928948323868 -1.9176084418850199 0.5776919133379471
Ni 2.8956714330075934 7.9549999758993835 9.80557106988054 -0.6897457313131089 0.11138558826354367 -1.6291039277158652
Ni 2.6343475577293023 5.641694050834862 3.9093663258610705 -0.9744568398781024 0.07390096105452433 0.6924430756396139
Ni 4.625507159072101 4.114062816984665 3.633428308475325 0.3597438692311159 -0.2375704463234489 0.1482788617454672
Ni 4.078362884327843 4.193545338531599 10.251639795218182 0.12021707051224456 0.4304826305075747 -0.2333767199570755
Ni 4.940334904541587 4.53389144741643 12.531797623967416 -0.6486263355649797 0.18090178998681103 0.4115348857604783
Ni 8.010869726104193 1.7053484076356404 2.2920001168796453 -1.6927634135480396 1.8169255847509613 -1.3762950671761072
Ni 5.8992895937959755 0.2534925362604578 11.140948316211821 -0.5179286772363855 0.3799056888909715 0.9313240132443703
Ni 4.55272642993728 2.169208182445326 12.063995022660329 0.796405631966209 0.7800672998175017 0.43102564749523836
Ni 3.508277858634436 5.441146595205962 1.8502562570299261 1.4482350478495187 -0.7000483987906976 0.7366683640065764
Ni 3.5551719940015976 0.5201391812814451 3.0871963244289247 0.20342928166536578 -0.900617842409765 -0.27070348143199185
Ni 6.793352889213867 8.621478502069733 0.6109622771037614 -0.015273381219302728 0.7287858759347061 -1.1243948344935475
Ni 1.0206148617493336 4.415818384947012 7.626640685558247 -0.7540551920244561 -0.155354537645326 0.19829813108638752
Ni 0.3293249744400797 6.916967818485607 1.2581271212952536 -0.8961394949234374 1.489626723422428 -1.7510989160641393
Ni 0.3833185909998512 4.873270951626437 5.359687597242985 -0.7760062423742506 -1.0058834338185 -0.3519493128873616
Ni 6.729161133046764 5.179297991675623 11.10947474742368 0.43704614265770536 0.5722401461947564 -1.262156855868091
Ni 5.642568597921607 6.324724531341717 8.155761005132625 0.4082068498285099 -0.47513883576436877 -0.24060871892914049
Ni 7.744261745270199 8.084377710184835 8.564346642332367 -0.3943123512346048 -0.8632576565937521 0.5635027663217586
Ni 6.378375693673838 1.2316384709015606 5.721223521751714 -0.6577501522431188 1.0262915651612068 -0.019776668406294974
Ni 2.8611406317193677 6.539246328840925 13.439955856695997 0.12421205060425058 0.6440657127774908 -0.4331190396891573
Ni 0.13236132071507387 6.971070062999311 10.585231638865698 -0.27138585221099715 -0.7485139504912528 -1.061896715959326
Ni 5.248276742422804 3.8797118150133594 6.017978521529638 2.0454472906085805 -0.18006283902528344 1.2500801272092148
Ni 4.669989385631608 2.9310583698649495 1.118092800613841 0.5845873549061996 -0.04282892224006817 -0.03827986941680504
Ni 6.72495410127158 5.301209855567913 4.503375277544305 0.505569127229768 0.14568821820015554 0.927374284568003
P 1.0476337638503581 2.6238990214823983 4.528584327463707 0.8708858625629711 0.9320932873102269 0.07330137979731247
Ni 1.6786332955752747 8.792659587101609 6.60269057739283 -0.12764241644203822 0.6572243616466359 -0.5784568165284295
P 7.945195842769028 3.8203899052556074 12.33423467534402 1.5527239089932292 -0.6425531327877063 -0.9904005076915523
Ni 0.4995238050071574 0.4918369964026069 2.4336077017413187 2.7529207782187557 -2.360129748724684 0.7571428298108444
P 0.16543761211166036 0.6601210291376529 8.124556244501674 0.22922824500634068 0.12604807537172483 -1.0039610199848064
P 2.944351485583477 7.741453988833807 4.437098417007226 0.020132509083816943 0.46509482126480545 0.43869293423250905
P 5.485039653201766 5.4968690532698465 0.9422959481157129 -0.384291476663493 -0.34196211976766266 0.4089529839659151
Ni 4.551373183392527 8.116763569670832 1.3020118941081307 0.043762489797931084 -0.636372200787975 0.9875573818158025
Ni 1.1042860035538353 7.95638083972056 12.427673127243645 0.947549216853981 0.7906270776112191 0.024253216120409843
Ni 7.553951093435622 1.1015058643938662 9.3232979363034 -0.44279487221602454 -1.1399065569759015 -0.5599158203014486
Ni 5.663907546838192 8.872933803906015 3.986152480653185 -0.24932578708716413 0.45984694260230485 0.9208038304393368
Ni 2.161530579599584 5.703740865199736 9.454260902255564 -0.12088658577544341 0.35030457819508704 0.17989674576106437
Ni 5.42428164506999 7.027096311103855 12.77345891900803 0.2706186350276694 -0.05540444491223361 -0.25549977710835997
Ni 1.6121032766709802 0.4941715768362763 4.435185460326956 1.7854131159649769 0.1852515823150745 0.4824960474603883
Ni 1.3692369478024178 2.04531708040935 0.9912659820940434 -0.4274785535739283 -0.015002129835787066 -0.8522931871624483
Ni 5.9443794004368 7.906154219664958 6.337153226308189 0.9390324376322216 0.6676771815488437 1.0768042291987778
Ni 3.4739311725223674 8.391463412496924 11.871983146598064 0.9625060952741296 -0.2199167377974277 1.7570003691502387
Ni 2.547693750071059 0.04550038348365389 0.6475846267931298 0.17664635714456675 0.1539715412548703 -0.7050653923893148
Ni 0.8400669171304768 -0.016203056077687697 10.064586140849821 1.3022982039736668 0.6190452794737532 -1.0522121416817105
Ni 2.3837760087385735 3.210628059100389 11.51004308927767 -0.787847715093869 0.31922585451241153 0.35207246872878717
Ni 4.750889594034948 6.53756167497909 10.454241976212993 -0.6486101376150636 -0.04388770252188571 -0.004358019858379591
Ni 8.995453247879622 0.2637146108406887 0.3076610622375784 -0.0795051946151792 0.25049692457712985 -0.852714590970583
Ni 5.00315500264632 6.741616524713779 3.5030176880516337 -1.5157504170926734 -0.4062741515821713 -1.087775897718933
Ni 4.670854726959544 6.1219676935989344 5.659123313985755 -1.6646448009349526 -0.46327910821230534 0.8658195037836572
Ni 2.8967116837528804 4.062363275519809 5.747766486122373 -1.4743461431142737 0.9767633765240918 -1.2019156516888463
Ni 0.836776778932553 7.326817406369667 8.078826637623704 -0.32915288381813634 -0.23446661058714457 1.5921949705046579
Ni 6.721161328642747 4.011538281141697 2.271048730408871 -0.4411208269477113 -0.7074578038808913 -0.6022346356743177
Ni 7.010618002837813 2.1168918551403437 13.123892698394501 -0.2855654861454888 -1.0221184076201235 0.8724717189928521
Ni 2.7181107571218828 3.8473719843214007 0.2492569666329684 -0.19469781532963887 0.011576391983689741 -0.4887780238143582
Ni 1.678854233786663 2.7077634842218647 9.207277758048132 -0.02878504255249236 -0.6119464636454429 0.04329120658846738
Ni 8.12078648626986 7.282482471951086 12.625020661110938 -0.45384444516196676 1.030531314274167 -0.34953350435701735
Ni 7.51381398503342 5.496758584164152 0.008565037994818836 -1.2648775972333637 -1.7608289988677093 2.1898011062680283
P 1.3717409141981514 5.02771596714565 1.425368141557371 0.3808174020719635 0.7119055552395998 0.6713595154964374
Ni 1.7648544325695494 6.359798472399605 6.156324506045693 1.2794616656951254 1.695595483680196 -0.42102714152162973
P 3.0072176124822496 5.2474021953360594 7.532904887649127 1.722846863196981 0.9965295034074259 0.07949105354779214
Ni 4.800711160703004 2.1007817772266155 9.529511536478529 0.7287730204188998 -1.670240292744859 0.28367084022593725
P 6.415171111628792 2.279806168762774 3.8455694967468244 -0.273321121560497 0.9790940815397977 -0.4469821708244947
P 7.176349278655443 7.4710992641650185 4.649927275461672 0.9639772805030171 -0.5042897462967121 -0.7026467556454931
P 2.551127498106385 5.605018307744407 11.597068809591752 0.4075087953202208 -0.930259833645914 -1.003372237360872
Ni 8.141904496975057 9.184742060486528 6.34980562121369 1.195496892646696 -1.442251062351942 1.8986756095362594
