# total energy = -381169.93284402613 ev
CRYSTAL
PRIMVEC
9.25610090885873 0.00000000000000 0.00000000000000
0.00000000000000 9.25610090885873 0.00000000000000
0.00000000000000 0.00000000000000 13.54723930112999
PRIMCOORD
 96 1
Ni 2.161345869423982 2.7867528472590184 6.204323789011241 -0.7088850232457211 -1.3988798944551586 -0.7758666314725928
Ni 5.728795301384384 5.424593541256681 8.424419057239621 -0.5780904343279463 -1.9705379428942 0.5674062151412227
Ni 5.2246247347513135 1.2336716565750934 8.790275706282905 -1.1068755946628617 0.8997490666515665 -1.9674299933928376
Ni 2.8710666714794124 7.171275340942006 12.607698179306345 -0.5683778350258727 -1.3022064155908089 1.014507685152401
Ni 0.34170933269394244 3.1989640502265253 3.9350665914183005 -1.230975802279596 -0.5269370513825828 0.7156999892850255
Ni 6.1437185419516895 7.498839500052283 7.756363668330055 0.22394334245831757 1.0237220046618178 -0.02789801196184873
Ni 2.22018690362851 4.262119813752096 3.6224639940019348 0.3461080236152362 1.1722826593137619 -1.1289420875445977
Ni 0.40758315245590293 4.906844274422567 2.264136722506902 -0.6027447425415167 -0.2593073237799082 0.25493824817793515
Ni 8.65774037256191 5.293730784990578 12.569345524716686 -1.1602259852595438 2.5993014780969816 -2.177373679137953
Ni 8.316384622927055 2.8410861602652444 10.29610542685346 0.6549797885868333 0.43115265999140584 -0.40123427516541865
Ni 9.186106387269643 1.5800904934696436 5.730658554520355 -0.043516692335712155 -0.756586185976426 -0.20176346392716865
Ni 0.6990725834383328 4.874873701488409 9.934177067084425 0.23116505701773735 -0.43138740171003126 1.5667369354428693
Ni 8.181754633544505 4.948691107148486 8.464328588021383 -0.6172740465059434 -0.4628487055431061 -0.1469362316746437
Ni 7.576535212041084 8.018763950626852 5.725795399042762 3.939233433263022 -2.2316170138625506 1.5503358683770267
Ni 8.300103141227233 8.550749100834658 3.00676944297055 0.04986731714408831 -1.1097883974342824 0.6138935600694847
Ni 6.327081903221423 0.11058078770405101 4.835443636739649 -1.6509145958330533 2.7310643444652962 -2.043568071307997
Ni 2.508246023571739 1.997068588464102 3.7234045524903157 0.5866342101328994 -0.4823641498682144 0.5271221708101953
Ni 8.124774075645643 5.377156023512744 4.415695190708944 0.9975116648150371 -0.2763781632192659 -2.369484964687339
Ni 7.648880897638471 7.460306351492672 11.847941671949764 0.04568696051415358 -0.49961265253601694 -0.6709759069047736
Ni 5.990789240846261 9.08081823813066 10.248243054072558 0.808474390205285 -2.613748506760247 1.4784961607269054
Ni 3.8904595893672607 1.0126174519388604 1.9286937702056708 -0.2121430073892798 0.6116703271659207 0.9703194206709612
Ni 5.395575664548926 6.777835510849564 1.8671619874336967 0.19362026599474397 -0.12731382945802588 -0.9768695630846531
Ni 1.200229363578246 6.922230686811595 3.4376122516876704 -0.08334925095161776 -0.2241009510821044 0.5847187382777413
Ni 3.491364281549638 3.6290302720677983 7.869144631247321 0.9908589353852097 0.8673050871902482 -0.15860929713719782
P 7.502134672016545 1.0111272196741243 9.466173789589435 0.677603182413304 0.6270570940346362 -1.7454499453084777
Ni 7.091709896546518 4.928235123887198 10.761141198360411 0.6413917654897534 0.5046070204268148 0.4497977858964189
P 1.0749017557240212 3.075376589364663 11.315764920450778 -1.2506871646655944 0.2534837751195957 -0.3351589808029002
Ni 4.962251295147484 6.674398581915224 10.668505213710052 0.7947061327765991 -0.39918484883555766 0.28241125678722334
P 4.322265958200896 2.6860927486316406 13.130932611606813 2.575527515605835 1.3667966407673686 1.7329548981652605
P 4.967666114246061 7.360025753007246 13.262991256125114 0.6190625058649338 0.24679659290740721 -0.0030516423421302285
P 4.572088124817257 1.1110283180175988 4.141702567490683 -1.8974697621536158 0.5110383778744555 0.6274445592810419
Ni 1.4411564171113045 2.5801659285220584 1.635097650630359 -0.15853807757963018 -0.7430069046300946 0.17012706796881025
Ni 7.943141605267249 1.5726300760449385 3.326687137025556 1.084932771843183 -0.5426482914702525 -0.2620175236222197
Ni 0.9603389933597867 8.118109682908933 9.948415727288424 -1.0801572048314108 0.7547265070598679 0.8060470117107151
Ni 6.735201909536672 1.7541514732110537 0.9644709168565463 0.5149729370421712 0.16539418126951516 -0.8618183530440642
Ni 1.1918988726573596 0.09878018450956422 3.2151659294575468 0.4616060913852566 0.3015762597514484 0.48805400116414016
Ni 7.003601070906608 5.743253331182633 6.251522499348778 -0.4949640980204121 -0.694958642972616 1.2088375756196599
Ni 6.3128367637467075 9.230683769797407 12.790490439142948 -0.8590772999638172 -0.6321188248282598 0.02934271482817527
Ni 4.068917217094694 8.695125764594643 6.938638977095435 0.928650323066949 0.3844938224822862 0.8993883408780382
Ni 5.1177815606404335 4.482229896083963 11.967766527745692 0.2310850957094214 -1.5535032103614148 -1.1654327262714639
Ni 7.519924898183149 3.7141864014813035 2.34029962416626 1.188139166730044 1.133789902555202 -1.069357028892113
Ni 7.915308509490466 8.202960360988673 0.7014560294518087 -0.03557198356733874 0.899520238470212 -1.0921855967508545
Ni 5.028922990817645 2.187957159865703 6.344362118221648 -1.3579456181346419 -2.703037520235067 -0.6074514039885668
Ni 2.700208302692032 6.982247245846071 5.450907710855557 -1.3128304709635583 2.529731283207327 -0.13077402009248446
Ni 5.814312418737795 4.831860600033566 3.5104559155201054 0.3705589575687489 0.8803225824958388 0.08901801920162088
Ni 6.547488180786032 7.25607973851663 3.8227058554874866 -0.31738597309019534 -1.3495108571037275 0.45563264741064113
Ni 6.753991794613782 0.4162986971793548 7.01527579112718 -0.1053712637486637 1.5804211177981813 1.7850485335367066
Ni 2.93065744986682 3.0396665516171306 10.067278874188041 -0.5070115161032493 -1.3518765291224266 -0.12712896714072944
Ni 4.175556756983064 3.5177719377688486 4.562656157874609 -0.42717490629058047 -0.36789786579681805 -0.3041807872538309
Ni 3.6708678486926947 6.124299242005001 3.432396438761093 -0.1570013292201296 -1.4711574609736469 -0.04816010464499448
Ni 0.6752825525884858 6.930450104520203 1.029871749856221 0.8393286565819802 0.07751773187150521 -1.100000721919899
Ni 6.0767599071498095 9.248224081236385 2.2431522158771893 0.08508757379896313 -0.9383922329450612 0.20530618697310446
Ni 4.187191675969235 5.2523745256188885 0.23248734062009824 -0.9118448214738362 1.4153508955269882 0.8086960192977879
Ni 1.693653596923372 9.134799819298005 12.148500230714733 -0.8041523657911634 0.03294585879840133 -0.6655663058534279
Ni 4.569551953136899 1.6784550790432657 11.232300806304314 -0.5546766833896964 -0.538986012127317 -0.03713212896560702
Ni 9.054225459890988 4.085059857279167 6.3404199447958645 -0.5306962613146989 -0.6321766746493886 -0.5936669486099647
P 7.674298151048198 3.3461268003944955 -0.17702848572945037 1.14014438401832 1.9498055954428548 1.1162457230238516
Ni 2.5124205251332055 6.503169969086915 10.121996315386731 1.3853540920545817 -0.8759126263536012 0.19844288419436792
P 2.3747637907160692 5.255216148633013 1.4799542901601794 -0.04765385443253728 0.4834293579079351 0.17139513604795642
Ni 0.740327025698767 4.181165954203127 -0.004386466274897862 2.6065393906063172 -2.595475419482672 1.825138973799689
P 0.6662300857877892 8.586199967753542 5.560275023715465 -1.1055782160076768 -0.3896936215156708 -0.1077302508991435
P 3.1371980880986636 8.439564815343894 9.084196715004131 0.6435358084159497 0.5694003627531161 -0.02254986027605794
P 7.1170993816531745 6.758092247367062 9.726958882257682 -0.3586930593690984 0.892415766214947 -0.36865531278813285
Ni 5.834342621352014 2.377318474598474 3.0344599947915762 -1.5789077664774485 0.0490461067943736 0.3716457628750245
Ni 6.745115193732526 2.2001289327112197 11.9522144268065 -1.0784595054140138 0.09937853650033852 0.2810447154569999
Ni 2.541743853174726 0.2570937595801921 5.440381672771966 0.17928662298089124 0.9610819612330931 -0.3781056595677553
Ni 4.783145740348426 6.44733716771493 5.551794583958002 1.9708451897219736 -0.5613607802780912 0.2833653931703765
Ni 6.6508418048111615 3.179794665007463 7.54685552411017 1.3993918010945705 0.41518328114634295 0.40998888142959716
Ni 8.250083171297822 0.5270599788533583 11.476950663668907 0.20504959087760816 -1.5076848664757196 -1.3945933512646627
Ni 2.4496549040948383 1.2933920203768259 8.286467053199845 1.053484580636231 -0.6773345021329495 -1.3639229187639992
Ni 1.5928731689826925 7.780002824733224 7.638841730468701 0.574676523550391 0.43927246088506283 -0.9169482041386723
Ni 1.853589766503368 0.15550990207069845 0.914156602914597 -0.9340534963603913 0.5017854918176197 -0.05900321800708549
Ni 3.90151137398897 8.689442518566393 11.293615996312345 -0.20012489988248114 -0.0686368844421076 -2.708055285164633
Ni 9.072034198259638 0.3670405043641534 7.918103851999474 0.0242357326189131 0.02333456096088239 0.4940297591316008
Ni 3.116742104837376 7.608690906995706 1.7590544299230466 -0.5849385675980313 -0.10471408978063902 -1.1384893649134005
Ni 4.4233055569702255 8.265855567441365 3.627598353239508 -0.6299079332198699 0.652204025613909 0.8978333376860924
Ni 0.21246269166649193 1.6452719568750682 12.9072543023305 -0.6497959303930487 1.3827076555706703 1.7674354484406338
Ni 0.23432745350351183 2.7363904015917484 8.168551731045003 0.6244780204535504 -0.10896643729908975 0.21463234947003682
Ni 1.8926320006192556 4.993027831049648 5.737011942262684 2.141255079038525 -2.2232061640910357 0.5583942414505997
Ni 7.774014127371208 6.331284173085958 2.011006425384847 -0.07863384775381942 -0.9670348363824183 0.8011017518902978
Ni 4.022081345917266 0.3582518364426182 13.293676156627146 -0.13168290505999902 -0.1330659014504547 1.0573870010144306
Ni 5.80552837886677 3.179461445370628 9.94081554273827 0.17096293360654427 0.006549628193059688 -1.2143351083991214
Ni 8.715757613775372 7.244509612237621 8.36734408711032 -0.8690418673756969 0.18108665230410748 -0.6556043095447096
Ni 0.33505327044815414 6.37074293174789 5.988259548436619 -1.9707369462788833 2.828087236249265 0.48212015217820836
Ni 2.5093567556945238 4.491606326420471 11.927612635896917 1.0109253671177816 1.7131494334035593 0.12065030139492125
Ni 2.4835970265469385 2.1205264639116383 12.674404122550293 -1.5736411187618706 -0.9086062599318804 -0.08991996219059999
Ni 1.189723688916906 1.2517580779744402 10.098803303052879 -1.2461381118423311 0.21407493430467006 1.0919300290966225
Ni 7.257718068397738 3.142372248570637 4.9243401565766325 -0.7093185112387139 0.4001816655311882 0.75559836814186
P 8.946512212283926 0.8201127652986079 1.4880561553857927 0.5057668450628708 0.019423655942250418 0.11944393979164593
Ni 6.657422892638662 5.705303316987484 13.442018134065474 -1.068499051767192 0.26714584598772056 0.42172339625770594
P 4.205574292601324 4.668943965924097 9.928920527313345 -0.028300646716906096 1.7330636558289831 -0.3846881978812794
Ni 4.0361413633715175 3.796232480951012 2.0146505523576836 -0.066328290913589 -0.9528071228188106 0.07615170476191402
P 0.6541471715120947 7.214538357124477 12.078881392478783 -0.4673247390365887 -0.3624957209446402 -0.07325767104357062
P 1.2015900104286574 5.117355779993367 7.906832697783514 0.15345269263692282 0.12881329682168785 -0.9870855843857065
P 5.255660441482127 4.270052292328985 6.161176474091561 0.9814114168190649 1.8015431887576199 1.2376339310260622
Ni 3.6615376988613018 6.5080849587302385 7.740377456252874 -0.14784305975962925 -0.6849166853555817 0.4228161151012525
