# total energy = -340889.5660993949 ev
CRYSTAL
PRIMVEC
9.10123110851088 0.00000000000000 0.00000000000000

0.00000000000000 9.10123110851088 0.00000000000000

0.00000000000000 0.00000000000000 13.32057169384343

PRIMCOORD
 96 1
Ni 6.483234572840032 1.8261710939681437 11.168592868652965 -0.6413786528636309 0.31157090907031504 1.897565921411848
Ni 4.78489026774801 0.4878396314662447 6.2739754300450645 -0.41816936035786045 -0.1634979926880668 -1.9805806718421826
Ni 2.1713625819349307 1.5212980591676948 4.820634442232316 1.0133990254692546 0.4371656989547052 1.430396991226833
Ni 3.877488439500366 4.442456452763029 5.049029833250206 -2.249145252554301 0.14825777869954468 -1.2432669609421234
Ni 5.28421110207415 4.183308002320973 2.7956951944003183 -1.4786424564967824 0.9822714508265147 1.681441046556685
Ni 7.157271737963957 5.796237254824715 2.342502128964235 1.0161992139222111 0.2034439369533851 2.1282946622231154
Ni 5.167624333437403 4.823443082107516 11.44749918139272 -0.7267691026149936 -1.444022295319752 -0.5958379881193544
Ni 5.5874095103773955 7.787322653843433 12.674790165406758 0.20402346360593895 -0.008784688171165516 -0.6966699692367678
Ni 1.846011777467606 6.733709550174296 0.24854733661628814 -0.027959204217087336 0.22962368067254646 0.2922333850839677
Ni 2.7411542476080126 1.6276277405090778 0.5451600941946675 -0.9117692310408944 0.9927520386428644 -1.728548284457133
Ni 0.532727812699133 8.860248569616177 4.715562551010027 -0.1721782940708841 0.5488554487222289 -0.22189931544509525
Ni 8.633063642316372 2.6539280500580844 1.4195199034309363 -0.771378256683936 -1.765388593213934 0.28854668026099983
Ni 7.1219862655201895 0.7005035447644921 5.001928232647102 -0.5741358205555724 0.19594839990728832 -1.236682108635754
Ni 0.8245724353759674 7.392820696518809 2.477146649954782 -0.3726366660333841 -0.670975135573825 0.7105989206130343
Ni 7.643068143078996 3.6931703100365567 3.8377633865928193 0.12796380433719895 0.09817063223516641 -1.0140888524474279
Ni 7.686981582475742 3.9076408176809707 12.667503719897736 -0.754084759710811 -1.7326440517930612 0.630777737419333
Ni 8.093397051131006 9.028284596887078 6.976196377092285 0.39635046471055607 -0.22011394140989834 0.34989834389560387
Ni 7.002041142658075 0.3765861841738485 0.4682483216951704 -1.1586015622822432 1.1400250848316367 0.041209384358774186
Ni 2.28929633275421 6.346716108394193 9.510860986487389 -1.157961100484767 -0.4028448141856481 -1.694127897995734
Ni 0.10034289161388471 4.836066489453273 1.3588583788159756 0.6847968719482658 1.5804450290575813 0.28014662912276267
Ni 6.416522549880832 2.172409223495682 7.093710561164167 0.22387829354833702 -1.0981441283271347 -0.14627108728681906
Ni 3.5916642811055937 4.680908703995096 0.9017290309883708 0.11917114574623347 0.06066363642864391 -1.577339136438748
Ni 5.95677386778206 5.718439932552513 4.7741326127496775 0.7343654269050126 0.7464215867385984 0.16823242204925867
Ni 5.3487752345260695 3.0287804497334707 9.400793429589477 0.21121895291311366 -0.2673759597206557 -0.7388072647264503
P 0.1250081376468627 5.615113657428939 12.584556921146637 1.6830333307444691 0.2916631144027945 0.3314751041934098
P 4.008191217360813 6.230047428678779 12.521324298784613 -0.2989357368048078 1.0589574308253438 1.6993235832640605
P 2.180008751349834 8.668003267983545 1.3407023331677752 1.1468310520098763 -0.19017447353798858 -0.6143111072228775
P 6.3516853805000215 7.958316581177329 6.01936667360738 0.34358731407591153 -0.6384511948041908 -0.8904668700186922
P 4.865763806085725 0.9898498795419675 12.615154349521333 0.27127760876790696 0.6420204002126878 -1.0302500355883224
P 4.297746880450439 6.0497702457625655 8.18053587686369 -0.2988771156527304 0.177264707454856 1.1035339318841384
P 4.7751064444627245 1.0797700414569604 3.6782097065794854 -1.3167976831414225 1.0634398920767298 0.675117954097605
P 9.19506465428508 5.409680672130839 3.536744723105225 0.3266491435596761 1.4974590749826533 0.17334608912674018
Ni 1.3317831268239804 1.3010573710927034 2.4263417584728106 -0.4676535831309172 -0.11643137821756722 0.8852195055768238
Ni 2.1108940034163868 6.544303832602138 4.722808951102813 -0.12161060842566153 0.3336168331267609 0.7245641245438748
Ni 6.212937114468233 5.661657352574006 9.240346918818668 -0.3635254477607352 0.9943003569665908 0.15488659686997197
Ni 8.613286667433652 2.2335057869506767 10.268148931476578 0.8320812309909476 1.1951945309149286 0.07877140177294821
Ni 2.458670240976682 5.495869329350978 7.13640261536567 -1.0007026609485088 -0.2534668058387312 -0.25099134771504517
Ni 0.38622620800991736 0.09683072658524142 9.257730269958106 1.2636033585066302 1.2909930633734927 0.7161774431420762
Ni 1.649133949274779 1.1351692343290822 11.331197281285117 -1.2054061813406078 0.46028171614687824 1.3091327103969972
Ni 4.001165067057334 6.963997997232502 1.6693605249670749 0.5223661441824488 0.5206846427149677 -0.41643643682715376
Ni 5.706480915067058 7.982271021072092 8.099866206099545 0.5609992831736145 -1.5933002877536946 0.02559070398491077
Ni 5.527960269726714 2.7384420807810224 4.940000726805181 -0.4511311599958618 -0.4050796170534378 -0.6125313896146355
Ni 0.5212711831628382 7.184784759165276 6.65082828028613 0.7841013606775593 0.8020052375411736 0.6925479766485944
Ni 5.057581349863092 4.368235914259308 6.929787380165471 1.3498150186077076 0.6384193131249909 1.6057971346691249
Ni 8.23928068223783 7.489002505336385 8.925834770305245 -0.8190220838141442 -2.260188911962972 -0.07974405009886266
Ni 4.667793830177331 0.1659700478422887 10.282455156427407 -0.1512772822521588 0.5020731982613676 0.9981693530036939
Ni 7.965579363485848 7.203360371560874 4.652462806620064 -0.12079788271637906 -0.4157157566110453 -0.18079946008099185
Ni 7.274004126296114 6.164609578054406 7.065524048871583 -0.022946067273212092 -0.541595681836022 -0.7878253464963658
Ni 2.3517125746988476 5.302686600929153 2.7054209946008623 -0.504575652968247 -0.09185214621630633 0.5980401379769958
Ni 2.330260973318925 5.196020174042138 11.782804912287435 0.13583909332021768 -0.9817652006140576 -0.9019162495062144
Ni 1.050391267908216 3.3113008612886543 3.854707148276741 -0.0701746612428727 1.5864392989678033 -0.809719832576612
Ni 3.455864813905835 2.71204851098816 2.9006879049132284 -0.01825843198955565 -0.23396755946353898 0.42904564095073205
Ni 1.0253173766049966 3.2793009332225496 8.339450650463416 -0.04724273503704767 0.7085152986111282 -0.2578857608420333
Ni 3.4417123997582837 2.5996301061324925 7.0217926340940995 -0.12451364100506945 0.1354148612986055 -0.573796949158915
Ni 4.190434266165045 7.172780235525005 6.262107424869239 0.3443154504911876 -0.8892512524440362 -1.6623374929580146
Ni 0.840564208301153 7.323378304270692 11.005203019788702 -0.7972872632402139 0.5898280344798487 1.3751918068095994
P 0.308405222537211 5.586654108207463 8.334481378357589 0.13328547366042853 0.5833398556523438 -0.8741089974859592
P 8.579348177172417 1.714316965432186 8.077408008575109 -0.49503043248197326 0.4285108514931846 -0.3248658264070083
P 1.8773655181353335 3.2084842550990107 10.641657989461818 -0.6989032294426609 0.5917111104351745 -0.7552453556778155
P 4.165779031486127 6.284117841830294 3.7904351653387356 -1.335225550829307 -0.11682527122187622 -0.5530358053521638
P 6.982455293625578 4.054416369422174 10.49288016690874 0.7946642237950702 -1.1299059941197638 -0.4601004533740076
P 6.711038383845323 7.8454158110806205 10.426304662413987 -1.0647904925673533 -0.6272319290496036 0.5402592224127857
P 2.437928535611877 8.493751099964875 5.821768938045376 -0.5501021766451365 0.21674116828292353 0.6735938041435947
P 6.715661809174556 3.7480416315128213 1.487001890529611 2.18687621931175 -0.726054335936156 -0.973098268967679
Ni 4.95330854671936 2.8225374548796593 0.6591311690526322 0.2925825408932703 -0.8235644517691881 -0.6817647699901613
Ni 1.6337255652543252 0.935770365159489 7.241888612596778 -0.7783071225932854 -0.4689530186686311 -0.8311522914187751
Ni 6.799966511585343 0.5171346736901292 9.166937299993753 1.5111723108036879 1.7768806530139334 0.05735822620449477
Ni 2.8342234354362232 1.5996050503738284 9.251509578594856 -0.23397835809681639 -0.024300781528893634 -0.058124157836241835
Ni 6.502847725565418 1.578071537915238 2.5205449596790177 0.10514526378078666 1.340426378303956 0.19178449833758582
Ni 4.259876658413163 6.8849629075493235 10.393855133538308 1.484988196209152 0.5000032031062163 0.5361655119593862
Ni 8.241783520752671 7.177585685473499 0.45791296381352403 1.2935014316176432 -0.030981793093495028 -0.5656354963940452
Ni 7.451032169758515 3.85462614732117 8.18373313930101 2.0497495175283604 0.6023503353165754 0.5131327985096389
Ni 3.1955787095933976 8.628294597291731 12.40149203118644 -0.13414447922661413 -0.6325854800520332 -0.03620524627596346
Ni 0.25952160091154103 4.943943380058376 10.478454715832298 -0.24738177598691588 -1.3962424568323117 -0.8420288291219628
Ni 8.99129719425322 2.4562402123095457 5.904050436813076 -0.31176425602804375 -0.08121137867300852 0.27238781111295024
Ni 3.828842360002832 2.7239984272426527 11.374075910721363 0.5249665579197733 -0.4222430162066018 0.861868232445393
Ni 0.9143005613176399 3.3900174078881253 12.81085993916612 1.2147788808047595 -0.40187165163910143 -0.7861127346806333
Ni 3.4401105831087855 8.381896971428917 8.207163348292301 -1.6916208153031642 0.10549621936230219 0.10686456046473855
Ni 5.4421811678999115 8.244422877731957 3.459312360194641 0.8175082182727792 -1.7003749073467103 0.14959989454973588
Ni 2.8124259872797044 8.795648032240404 3.5178032412249127 1.3768149442353192 -1.0063305486582474 -0.38344224128932025
Ni 3.2753783026774723 4.056327627924416 9.05377896506079 0.17548858939103967 0.7756935962298382 0.5490266841927706
Ni 7.363451024201028 5.881015221245582 11.672950324194062 -0.9777959315536644 3.0775001837335965 -1.5492788878674222
Ni 0.317318968142428 0.2791848104072235 0.36778802420186224 1.2530080994892874 -0.08814821500215787 0.5965491552537662
Ni 4.454497381327152 0.369228749063314 1.2940949294059656 0.9363026974058842 -1.1422087227465167 1.667741180472089
Ni 5.946170933710099 5.405630624352279 0.3633174995528092 -0.7860661977134139 0.8896250908436871 -0.41366735872244886
Ni 8.095217297323618 8.936607897396216 11.843586573151109 -0.21058337621164377 -1.308412801511837 -2.4486808555922153
Ni 0.037368744211211516 5.099692745529153 5.746347947177628 0.1907545144111747 -1.0412674697447486 -0.1455493786294461
Ni 7.942125491294052 8.7650769974355 2.638871883675901 0.4940474997434136 -0.08664771919723141 0.3550004410088596
P 8.62305228825701 1.6819256844346697 3.6157488686031285 -0.45348474782970294 -1.1335207080542156 0.34876345896021227
P 1.9019024368117325 3.4502038482468143 1.5430281582150875 -0.6435090689430724 -0.7230183773233096 -0.335102673643668
P 4.720972322694468 1.1747777914803017 8.243888635474425 0.8907890292448013 0.45323637926432264 0.9946384570322999
P 8.427585150863457 1.8226125126615889 12.493150528215375 0.10531392814816702 -0.1875108106628964 0.23525516792671097
P 6.461719262843369 7.588406149914882 1.4209051107835133 -2.284634703710162 0.389152147189904 0.6792139785438496
P 1.8642688467794961 3.7767105090464472 5.931344118348185 0.3393840746278413 -1.1989989922626834 -0.28704952689018304
P 7.075014812519858 4.151945160422282 5.836088814842649 -0.5683410682506664 -0.18384544599616726 2.0086866860497796
P 2.372199445596687 8.622060254082038 10.114643019438196 0.6142216328328648 -0.8275653453984652 0.43421715784934256
