# total energy = -340891.2383752625 ev
CRYSTAL
PRIMVEC
9.09142231742101 0.00000000000000 0.00000000000000

0.00000000000000 9.09142231742101 0.00000000000000

0.00000000000000 0.00000000000000 13.30621553659571

PRIMCOORD
 96 1
Ni 6.651484444756878 1.9648381516696554 11.517833606035536 -1.4489968657162078 0.2334667085677205 -0.7893011597109438
Ni 4.7150388044127105 0.20017675083792713 5.9757544940590535 -0.5149071168012422 1.0240480205426685 0.3144351179919875
Ni 2.5807729098478314 1.6856587607688975 4.917324765185801 -0.030778675943753442 -1.040984391286691 -1.1950842305893097
Ni 3.2857126907210197 4.449269261160078 5.030547518162218 -0.4218810048814927 -0.7595581241205563 0.0033095239892072035
Ni 5.149426953990613 4.576821913704615 2.6391416582346054 0.6758489187263585 0.09666576555486577 -0.10114205615866452
Ni 7.45893910161668 6.192003970088248 2.5598226366815005 -0.018526083828645516 -0.615629826034301 0.02172042239622711
Ni 5.24385046427768 4.502754097576294 11.836224300601623 0.3037614403282253 1.1399366388828884 -0.643338090582847
Ni 5.438852377636751 8.073182855277873 12.61576920065127 0.24971222389230543 0.2780406385233534 0.3117012640005922
Ni 1.9435187667646703 6.361377164450666 0.6443645443344145 -0.4238085609215088 -0.09260316544971793 -1.1652488923954318
Ni 2.5053322889772285 1.4536002107903303 0.4048937578897346 0.7816986647733377 1.117683998132275 -0.5651040493706074
Ni 0.4149688718989901 0.04451614848070733 4.945840010710101 0.6638315825505082 0.07146149837509629 -0.6236295564103259
Ni 8.758794272693493 2.341750330514374 1.1158429687937095 0.748218530738021 0.04615772950298502 0.37253330768630033
Ni 6.827867125584858 0.8284885711097694 4.706847433069687 0.8319958703659929 0.17211093116805842 0.28838212965867754
Ni 0.9844555543929159 7.474549073421312 2.8382956240824213 -0.2669339870872306 -0.2988560326068079 -0.6124313737016613
Ni 7.393708147802921 3.903965761543448 3.7793241823663215 0.9570874953617194 -0.20265049451781228 0.074288169190614
Ni 7.656895727169407 3.922284977144107 12.612282640262759 -0.0704176304916142 0.5881079664649483 0.07317770973525461
Ni 8.136068222180977 8.848317506450162 7.002196054152694 0.12780799548562505 0.48238806112761434 0.06032476503198643
Ni 6.853286741872423 0.9678273433092409 0.4193827573452034 0.20841593624667976 -2.238004919666765 -0.22338001375567984
Ni 1.9209902227158209 6.318574749042278 9.281391036387438 -1.07076650764513 2.1135997792151016 0.9034167453111409
Ni 0.05848420944787954 4.81171698738909 1.2219653210832224 0.29257765579726386 0.30809914847163067 -0.011047001842780974
Ni 6.442927220995534 2.189850849494123 6.890344287634132 0.33705825470814205 -0.4333522387458859 0.6049749174236162
Ni 3.867690987227504 4.583867765858714 0.4107813628639214 -1.6098821033717758 -0.9736420572862908 1.595124742556943
Ni 5.993583682006672 5.8191647483597055 4.738210112006456 0.15675244643411715 -0.8326913537711208 -0.30340148588564525
Ni 5.180665080444143 3.0690913755265314 9.19872000749341 0.8777543075480304 -0.47849515383111135 -0.2351574660065821
P 0.17150058714184888 5.891168811663536 12.345533041704046 0.5392518641941938 -1.6082463675405658 0.22342603650226683
P 4.04438277640805 6.358513366478355 12.674502515065631 0.21678899080172342 -0.3398455876452921 0.07134914116694809
P 2.436301120711322 8.312860017005002 1.3993080560885867 -0.02541329786678204 0.9590628739205352 1.9158539210877588
P 6.549560511208996 7.943939198216353 5.744905103224351 -0.3580356282907576 0.024818601705576614 -0.382735959250915
P 4.445969074925318 1.0400496007442943 12.648581961418467 0.5245443827806902 -1.879244497394841 0.6156789341046817
P 3.9857703779080773 6.111963089617678 7.969930664956165 0.6956464130682601 1.1765216370957738 -0.27998979182992423
P 4.783315384641468 1.1851032408974007 3.7245429091537514 -0.46377970199780777 0.2999137844473609 0.4197454465957287
P 0.4119905220077863 5.5187659781974405 3.7546682455380402 -0.5933617586647201 -0.07053590123703336 -1.1083555216424976
Ni 1.5099397537567234 1.001465605206232 2.524561555933533 -0.8102924172506303 0.5922584982982123 0.49727140599735
Ni 1.8572502621320897 6.714224348905835 4.96038446784059 0.4700511368288162 -0.14139036215575004 0.27180417069533835
Ni 5.777762411960004 5.620044420773787 9.142367736536029 1.0234371264315472 0.3536624389237264 0.795405729946785
Ni 8.695599797437822 2.0744716111874433 10.222858710360429 0.1967086751120806 1.2844238947964075 0.21427805145441162
Ni 2.2173705842947156 5.137935396412829 7.20125728749474 0.22079939751269714 -0.626044850720038 -0.6130263269731829
Ni 0.33281787235104376 9.008990209830031 9.395838403925351 0.4461581322613026 0.22266164753241652 -0.7751390092779489
Ni 1.6498203747154003 1.0954618186529865 11.273291624324331 0.5160281177795629 0.04061134576345909 0.13840222606170358
Ni 4.22518388839331 6.766154552137081 1.7948621960197324 0.07797950199927216 0.8433197800192445 0.2128418332285173
Ni 5.968254979940451 7.802258475675079 7.819929472877561 -1.619289769838921 0.8745630543042422 0.9303760475088042
Ni 5.244441406716411 3.0689822784609193 4.900492906246317 0.6394102162833505 -0.4105918051209187 -1.2605884829397065
Ni 0.9736185792088041 7.318567543862749 7.331831019614512 -0.3948479120231006 0.8166299294328839 -1.002672125970054
Ni 5.302290125757102 4.578694746664285 6.972310731312751 -1.384488658730493 -0.27663064554970423 0.43099350870572223
Ni 7.97729562602718 7.115101516496625 9.076049448635004 0.32524377857171727 0.13164151029910232 0.2780082426235212
Ni 4.393402472144669 0.30847558958639676 10.556804828198342 1.0761213441991404 0.04139398956575452 -0.7711854239468396
Ni 8.189362138732372 7.038569924969903 4.610962931245634 0.5907055519887955 1.0164892343588043 0.7119793459003286
Ni 7.270673932059142 6.159538501646584 6.821218568578029 1.0677639733733806 -0.33178337946244796 0.9486951575329662
Ni 2.341786696202911 4.96268914335164 2.601697727032187 -0.41895920324900754 1.580904485192503 0.6248634288174271
Ni 2.3957624694143806 5.212257772360911 11.5750104689805 -0.5263544394062354 -0.1148825456732086 0.1908748420391229
Ni 0.8425611834314862 3.401082837605565 4.016188458085091 0.9484920403832245 -0.0905146583518054 -0.37104592450749646
Ni 3.4577496717687937 2.9242832037710516 2.7924557645389565 0.27300487587165884 -1.6362197128250402 -0.05304854308554735
Ni 0.9794734550633074 3.2362280800439054 8.395809243416341 0.20402269227499056 0.32054200222067375 -0.5812006978221539
Ni 3.795550552591659 2.5946827857133443 6.674171179550866 1.463753455200092 -0.3187262891681737 1.9238572510082093
Ni 4.189690976380918 6.8723605455102295 5.967837683664485 -0.2277562884465045 0.469450784240656 0.3706759427625874
Ni 0.6861605393125326 7.693897815256096 11.250059404202284 0.5843551842907355 -0.7734377103161261 0.7491096750937227
P 0.10768516775440296 5.504401531225213 8.167660914097747 0.3260588182738449 0.062333825042215234 -0.16290458207844202
P 8.51984442473711 1.6535387663683383 8.062714991832415 -0.5680086246119121 -0.5860546834803455 -0.2504599006916074
P 2.1031641394433636 3.194816652222069 10.398674086447226 -0.728283739487307 0.4978766436815168 0.4015636334803794
P 3.8838009872495225 6.114426865016079 3.9422588315732123 0.760915152369083 0.8992803545452641 -1.6348053489760168
P 6.8228668434109805 3.98043371311523 10.461173067909622 0.5115281730266804 -0.0809781796162799 -0.18793015758850215
P 6.096671317587748 7.687815653848236 10.274767094178552 0.30267077836720774 0.7218786072919116 -0.558469060552593
P 2.471212181707118 8.667007274825378 5.846684483160298 -0.6202130745296093 -0.14414427075180336 0.9791334194181653
P 7.120010884449159 3.951032053932833 1.55441862740668 -1.2824194627718688 0.5855558894670561 -0.5880943396181936
Ni 5.258769488000102 2.685933389675533 0.279585777470162 0.4506747891847335 1.2330218861753475 1.3004984317607666
Ni 1.6202823442009884 0.7832896568267744 7.52033983928525 -1.640386956828852 0.2891732581014052 -2.2700773747212777
Ni 6.86457828816325 0.5420596801991032 9.391979095229331 -0.7147569086454658 0.29730797139339765 -0.7606068771000449
Ni 2.94582078280726 1.8422766898768614 8.915217645367782 1.4659766881036558 -0.32680495241125007 1.642871670923919
Ni 6.479447463709104 1.8829062553951461 2.520596786740755 0.11093873053411218 1.1117725177438467 -0.0749160325826
Ni 4.053819672583477 6.921190573793672 10.53389171699321 -0.05390163511446201 -0.015261039924128559 -0.13100953314205824
Ni 8.270794006789494 7.245408869947862 0.41471522122144255 0.5400234522528958 -0.12280822827818849 -0.35818500938442827
Ni 7.639522019470718 3.8950561678518127 8.4037660560683 -0.1954228664211215 -0.09807935807294076 -0.43941952798588835
Ni 2.917219168772683 8.284912985364096 12.63568850654757 0.6346557323175005 0.14987037460230315 -1.4019055686553599
Ni 0.06252534658658564 4.812298838405686 10.260063537160713 -0.18916325866465486 -0.21371755096525127 0.9162118401932802
Ni 8.678198815472728 2.2579274184359255 5.804303909738944 0.42457372122230747 0.49927198136714657 0.42972492640594373
Ni 4.076411856587266 2.6046288015282926 11.360872930313109 -1.5993526645953617 0.7053983502487013 -0.8741030839486881
Ni 0.9571358308792783 3.22845491411906 12.322473558602551 0.14096047370718304 0.3226616196668379 0.5364961558259277
Ni 3.3917277642293477 8.211245191809686 8.01294945621135 -0.15316884284791688 0.5574910129100399 0.5092424623162971
Ni 5.352320221762275 8.029398566278978 3.901421981630265 0.7100512756396804 -0.35290704881494056 -1.3769951785669254
Ni 3.0901016520789493 8.768603917176426 3.7387400739587084 -0.04715917418430588 -0.9220767836144893 -0.6671547333864704
Ni 3.476277990078542 4.744649566304196 9.376410943966519 0.5290846938532049 -3.1298043924539516 1.4480008203515256
Ni 7.189032961292932 6.1891765378044745 11.344306540899947 0.5326729254250955 -0.8353118221131032 0.7143807562529697
Ni 0.6967593192367253 8.987416265105287 0.1700695972979066 -0.6781122608392386 0.24342433400106467 0.10925337241188927
Ni 4.45312402414503 0.34767052869188547 1.6163057561594363 0.4601343919357366 -0.35517810423730445 -0.07092336648343914
Ni 6.186312739832162 5.869303941430491 0.45834677432848037 -0.35403961975748705 -0.41861236143255 -0.1275367441021094
Ni 7.598337877202239 8.691963228584092 11.602407469582278 0.4980031419570519 -0.08441677298418364 -0.03010658957739331
Ni 0.18790696752544622 5.0092917732121744 5.941797123245148 -0.4407637007186086 -1.055118259584912 -0.022241585007019758
Ni 8.124913047222165 8.895092873331247 2.5566424572189144 0.5227842055564739 0.1812244634335524 0.3252890299873559
P 8.650497252229451 1.779345865863085 3.329494252293274 -0.7565926137343293 -0.6498609793030292 1.504900104641731
P 1.8405402282492058 3.383627307107667 1.2595547150397899 0.11695614037278568 -0.6330907018232258 -0.5232539461040407
P 4.912613590235795 1.0965073321984335 8.166503576060048 0.21375483196108994 -0.34554675179512745 -0.1601838407131693
P 8.600785355998978 1.4171163337652966 12.379610419290124 0.422633309666485 0.3409228798698709 -0.15424793484470856
P 6.59193562977707 7.930465710613288 1.520993104787632 -2.803090199984295 -0.09069900644846961 -0.5071133317884362
P 1.850086221490244 3.103056928620358 6.22451398649837 -2.3425439173221205 1.3409552542242325 0.6280773077690345
P 7.077726680102428 4.193909396251243 5.960944567402243 0.6419098427767526 -1.1690746938994252 -0.6750215377290567
P 2.511496273184299 8.495015750888276 10.179480807930938 -1.7628928233752734 -0.545950359260292 -0.92960394522947
