# total energy = -381171.8527142347 ev
CRYSTAL
PRIMVEC
9.20771390478816 0.00000000000000 0.00000000000000
0.00000000000000 9.20771390478816 0.00000000000000
0.00000000000000 0.00000000000000 13.47642002963911
PRIMCOORD
 96 1
Ni 7.2808157842333365 5.830610018420775 3.9199669835276705 -0.23800136321328041 -0.7978379935373615 -0.5270679205334923
Ni 3.811036042430464 3.628041932056691 9.892824215037471 -0.29344231779040436 0.20141893610355632 0.061302812674539575
Ni 4.709009154038183 0.12482805952129414 4.749333417244931 -0.16336943753000252 -1.145224369644389 -0.6679623168894302
Ni 2.5742466744363246 1.2280604550106264 10.250084443572916 1.2702398899865412 -0.15703423934059407 0.43559912579853366
Ni 5.69377417891868 2.94730641962621 3.3732018699658775 -1.4681281872290202 1.7436637999423326 -0.1679388020682398
Ni 4.961005874009474 7.336494831502643 10.6713705122253 0.704566084155393 -1.1135180396800435 -0.10950919717643721
Ni 4.431028264826942 5.218665338163105 11.703732052922648 0.5937101431430742 -0.5886862075659216 -0.5969121950201398
Ni 3.4435377565676273 7.992489216099054 2.8832529563669187 0.4490945891818072 -0.7306159871649095 -0.7074328641802268
Ni 0.5957400241820536 6.294623563664607 11.740118176801285 -0.7049540636224312 -0.579109362510764 -0.528280967004987
Ni 8.219183137675097 8.974832612166614 10.778144085904746 0.772927603448927 -2.1300849213543187 -0.7199916746818439
Ni 2.8217408222040934 1.5136837469395001 6.010995583385023 -0.5962095125261603 -0.6409217678318704 0.965906122094614
Ni 4.86172830039319 7.245688354874579 13.093608875836498 -0.42033782876408904 0.08683669527958593 -0.1467274580979473
Ni 1.3457074182915814 7.983152593983776 10.40079170439322 0.04050335943068508 0.9414281915579076 -2.1366849431693393
Ni 5.743090695732705 7.281966748498039 2.604843908449208 0.27164064853428055 0.49191039879575277 -0.09753248443053525
Ni 3.3620494866266046 3.4630028642122963 4.982016956854492 -0.1769006392472179 -0.9390139256894602 -1.1079230620907694
Ni 7.093641371650159 6.855170783717668 11.440779994694202 1.2233234279406608 -0.4715318351394008 0.44777098527437725
Ni 4.469765118119811 3.9728984489042767 7.273898028616761 0.5787298676841581 -0.2151288294904811 -0.0024559177396602863
Ni 0.06809933284257753 2.1235106529501153 7.287347736628383 1.411373656046795 -0.5989302538914331 -0.4768658457578045
Ni 7.943854070129734 4.476928719703327 11.091404331757683 0.4041193100226976 0.3364129078146593 -0.6076545211383083
Ni 4.32075668055421 1.8135053340377583 8.47170930120815 1.1203268350717608 -0.6217009719290455 -0.17178491528720738
Ni 3.359554196100727 5.602691470867087 0.29289646531038915 0.7169114930946234 -0.4960210785300167 1.2253864811172768
Ni 6.8852708011682 6.928445772665765 0.3976922219973681 -0.661505505520493 -1.2952754927989305 1.461317334954774
Ni 3.804691927403417 8.404994808568864 9.090425334427925 -0.9873396093780415 0.4493948940310454 0.2517163988065278
Ni 5.153723330491463 1.9971808152562358 5.810924846408694 -2.1761138385889227 2.1988701584488326 0.9791786708338038
P 6.523950891478292 2.570213695652803 7.3251886793376055 0.23992609103981907 0.43242149940150043 1.425863622132854
Ni 5.395794134643948 5.175398289524363 1.4272472514316628 1.2113351452305332 -0.5854314480740498 -0.9244401416403434
P 2.2587719733380958 2.168407466987678 8.245318313426578 -1.338594724411856 0.9297255584089988 -0.32543301176438794
Ni 5.40017700656394 9.051440793625293 7.677786121443882 1.090971007617463 -0.10878903118096103 -1.3925909761226534
P 4.155993844133343 1.4432171107972798 3.075291804318439 -0.7786853318683106 -1.657856060147893 0.04304052403024201
P 2.154826088664174 4.80812098880035 2.3304098307160785 1.362470759698505 -1.3095240322981447 0.6705966691884838
P 7.634364383207964 8.257919990967965 6.741403951165882 -0.5617528735101874 1.2733408975093683 1.7906481391116709
Ni 6.380890637232679 1.4146639893185102 1.135871900493506 0.929581833742283 1.3007007775795598 -1.8817302399311722
Ni 0.3628207670910809 0.0555354069290718 5.872053939664227 -0.10512623761739315 -0.37670517967580286 -0.47265129345582474
Ni 1.277183609828181 3.3271154192643175 10.377692311986323 -0.4025270258349132 1.3336782609468452 -2.9282255337337633
Ni 4.353094172535325 5.07437125022573 3.397607837006067 -2.068425496671309 1.191461546235058 0.015323003510315547
Ni 1.0940605914567614 3.395777343439482 0.8585852729267347 -0.26865636909497603 0.7612604515236437 -0.22908914832531516
Ni 1.378882812257401 7.117424897215997 4.483362149557315 -0.5962822747456247 -0.18094447029928837 -1.5684282071023634
Ni 6.969677916484511 7.048284171906716 8.958140868014175 -0.1616776516498764 1.2484855290285852 -0.6010151614449198
Ni 1.0311534886051155 6.637758237972195 6.648322248379352 1.4399892629009587 0.0144439433394719 1.067183418279562
Ni 3.8519090853986224 3.146331160278776 1.8648806957284851 0.6770668502938597 1.7547285423969265 -0.9158272031603518
Ni 6.13351618974844 2.865523502833423 10.226460211461314 -1.64152209887456 1.2309950855533058 -0.9219603126412832
Ni 3.794047809883437 8.964096417505457 11.660944726189435 0.7912852800205082 2.4784323758230347 0.20165959135945266
Ni 0.4683439331933526 2.5704899270763315 4.811095080460344 0.5630620792399141 -0.5288412103838311 0.2235165393335441
Ni 2.7643307246806725 1.814462936305992 0.301443065554373 1.093384502154962 -1.2803337838874336 -0.5276518180614203
Ni 2.979036202475562 8.036179819587208 5.705579389188894 0.8811124253869858 0.45579179869632475 1.474700698240215
Ni 2.7581615562218604 7.114183781846592 11.91595881407707 0.3029525712736847 -2.735439847825173 1.402109714246366
Ni 7.793446060018253 3.574121558183852 5.800521050227185 -0.6236627236411065 0.662259095857066 0.011495402234109236
Ni 0.4271716395163713 1.1780533596377796 9.61750159289199 0.12808104664135364 -0.8767279231660449 -0.3749645428356123
Ni 8.78441708421403 0.7177790670971177 0.10215958813510158 -0.4243490068060111 1.298573189713596 -0.42172622447118335
Ni 5.362554286679305 6.787484877238972 6.685652162955046 1.3118267122893923 0.5879943237052195 -2.4351277994981286
Ni 3.0765643104094957 5.553310500054239 5.621095849845406 0.08211203611040697 0.8503738586525483 0.5174013439780056
Ni 7.225330098960499 8.078572135384773 4.660213793843217 0.01077600756958144 -0.051687915292594845 -0.8480920045969071
Ni 8.65219430948487 5.204761689845484 13.421247888055527 -0.8577076733098002 -1.0675796252767162 -0.5624596697692248
Ni 0.06921070393657544 7.898331131532172 8.270573231708411 -1.122964529804924 1.6179527961950522 0.3348843869852749
Ni 1.5356533528241645 8.944870710427848 12.501697419184556 -0.4002569988538139 1.0630467704033693 1.2216460402382379
Ni 1.8605659608929639 2.5449569358281443 2.8779971931485755 2.3768488612515775 0.7855635470453826 1.1733242132043988
P 8.450480916309955 3.079151678076549 12.66710755790789 0.9366120011161869 -0.6184606106148768 0.5890389629196501
Ni 2.394926441995486 5.580740280410658 10.182176631183985 -0.13885011223239957 0.4312254222108702 -0.5368239714789915
P 4.757938946859268 7.0376584698149705 4.54682263602743 -0.1941619974308269 -0.7056258928784751 0.4549669888021842
Ni 7.3696610177543445 1.582483786826429 11.567944051287139 0.6132186454896471 2.2352044741034924 0.6122094874988425
P 2.4719397628753406 6.825291751405959 8.307997064968106 -0.6850002462083234 0.5545596981958578 0.1811200766452042
P 6.035601357821566 5.35833715361343 10.107355667035538 -0.03263244132304057 -0.5492529412709638 0.2812457757242124
P 4.253411459497865 3.5379444494156846 13.117826084737276 -0.5882997707607804 -0.16425749656191066 0.46552419549274016
Ni 7.9892941393002355 3.154130094136408 1.436410768521528 -1.6916017891397706 1.691127163496197 -0.36536404363137076
Ni 1.2695596225387837 6.073150415993259 0.9368793868403519 0.07448460147213624 1.0578551989001006 -0.9927476677674903
Ni 5.7231928255245075 0.4329678955534193 10.180276158990106 0.061776152766532325 -0.4342402977777941 -0.24277230223936258
Ni 5.5153839256037225 4.563665386691398 5.219511527090515 0.9793974717128294 0.577377981641954 1.2477609921577348
Ni 7.544626001417545 0.8172398742243421 8.414757747847787 -0.7714350780638005 -1.2707024314452569 -0.46826781967614844
Ni 0.1085718402466189 4.4755936011562705 3.2076305962454836 -0.16546154417234082 -0.07678548169117098 0.034111082751096096
Ni 8.189239651364565 2.849759896264041 9.217009305031453 0.29046575166058364 1.7169068435634625 0.18255140977509204
Ni 0.008150668536925814 5.9049438944923995 9.41765920722578 -0.23431877215537064 -0.49770052311496865 0.35954203763295495
Ni 7.9717810670485045 6.262691211104667 6.195649844614206 -0.5761968168496593 -1.4509118233507334 0.3593355780491037
Ni 7.026793367156167 4.746125449646349 8.185766501599396 -0.8246245176025863 -0.6646036848298424 -0.4489634629205816
Ni 2.0095743984585654 9.203229960854419 7.768940649665593 -0.12037622179792817 -0.051555760590104756 0.061398714822455555
Ni 7.81369382336292 8.53242957195686 1.9421674857176336 -0.006557855723175803 0.7002425170793748 -0.16156298044888304
Ni 7.057141992887875 1.091961232637942 5.514335166965724 2.9506728069936856 -0.5454950168904283 0.8451560618970347
Ni 2.0135981695279694 4.376905321243515 12.286452369342372 0.6591750576151035 0.7617543604409268 0.09129987325726212
Ni 4.925639044083657 1.7520714654449332 12.09245964445509 0.12476483778392705 0.5135621727375737 0.4441508720232867
Ni 0.1252018927144699 6.929329713221057 2.619924302631062 -2.0548487864281384 -0.9214260374043679 0.562893929093166
Ni 8.841596988884513 7.638784085984426 13.345631377407317 1.1053105641685868 0.7829924438840967 -0.6510161759533949
Ni 4.746852859061642 0.050050371629199786 0.7475761507531793 -1.8567044073107961 -0.5412961483177323 0.5527038759340417
Ni 4.558932621634937 6.107126881087313 8.53246087818486 -0.7873502066321602 -1.2742634093236378 1.647700716881446
Ni 6.470822381019568 3.8678660539644745 13.114996554188927 -0.8450010243764093 -0.10445466547166526 -0.5085156114526017
Ni 1.1837068961060042 2.2346753854922587 12.21417825891886 -1.0961481809430282 -2.043687884715313 0.22829236345563264
Ni 0.16851682146662356 4.534458517510277 7.513306882617839 -2.103405355180603 -0.5154107959105383 -0.9004548344693395
Ni 6.473041440121918 0.7609853448226833 3.1881304992871673 -0.18320138465426514 -0.8971193423382035 1.1271631412673038
Ni 6.600595903793442 8.978801136951311 12.575104078444536 -0.8549753619803017 -0.8455345282823761 0.8003599886282667
Ni 2.209427833381718 0.32910580107796794 3.9196843067042595 -0.4809461864747653 1.553877305871382 1.213940186953548
P 9.17475050108859 0.0475486357034398 3.6814485154817675 -0.17744237068330085 -1.506033961135858 0.8874249978685749
Ni 1.2341743771847327 8.77560530180346 1.8512827435195696 -0.09514444381433292 0.6033582077557995 -1.2465147784554595
P 2.7699382225783085 7.848931745291089 0.7151723632304168 1.155873878938435 -0.14395323778691982 -1.045027193897497
Ni 0.0280338064025354 1.6393966677874985 2.286759741170043 -0.9737932381521746 -1.8511497960411538 0.7531985004511158
P 7.620902705167989 5.275467726554763 1.8048970421091863 -0.7191331833362906 1.090037182949284 0.7240259926522176
P 0.6742072431210822 4.920694501602491 5.298429924021308 0.22376002280291787 -0.11906547340630463 0.575118496183816
P 7.630874659557382 2.5967319123115766 3.750676714075166 2.542691442912421 -0.4620413791504623 0.39719764320219986
Ni 2.238109862858135 4.527212046499702 7.984199511078951 1.7276525121157407 -0.4557228931316022 0.5911668078959302
