# total energy = -340875.0600958333 ev
CRYSTAL
PRIMVEC
9.25721544370651 0.00000000000000 0.00000000000000

0.00000000000000 9.25721544370651 0.00000000000000

0.00000000000000 0.00000000000000 13.54887053553911

PRIMCOORD
 96 1
Ni 0.8897285675702996 0.8916661027682559 10.132184333632209 0.4433869972740687 -0.07502530446695466 -0.26334832661850127
Ni 6.99023448829067 3.1250970845776602 5.740629817865168 -0.47316911363250763 -0.6083384345792103 -1.3207111592632157
Ni 6.68362625469529 0.60234942195005 5.584383757990982 1.0116830712194125 -1.7157336491909678 -1.873241742844187
Ni 5.9791799290436565 7.003444534766942 6.065545120774828 0.3045114311203723 -0.6337278211865924 -0.9747946828334955
Ni 2.22189834277637 0.7264349895584918 3.593987082533933 0.3687188190362166 -0.6101878290831234 -0.11977381232723887
Ni 7.664576349232536 1.335232987805228 7.7044434733773945 -0.20746051431194595 -0.061868712480338615 -0.0954195518525905
Ni 0.5235779240692549 8.382991813029014 2.6013155017680556 -0.4234768886137029 -0.6893415538961548 0.20177426256044606
Ni 9.037328831339327 3.782646356656205 2.0845481111203803 0.1792305729319752 2.052615526222245 -0.3799000324640167
Ni 1.4399320947755416 3.5858379557553324 7.801086951445359 -0.03583886407548021 0.3409282791865096 -0.7942610748193805
Ni 2.56797934313757 6.565328298198946 10.865747379102913 1.2029903728102636 1.3438464597290984 1.4451798059629628
Ni 5.9147034232922655 5.186012450323635 9.284214139327371 -1.2159101661957252 0.49410303557169744 -0.17646663703359286
Ni 1.9320549263978974 7.998845142653495 8.906052258753473 1.3146778085849422 0.32489539409336304 0.38112207779657586
Ni 0.30919562531935996 1.6556437296669873 1.8299645027471447 0.16878906588367704 -2.665842913462641 -1.0657718826440161
Ni 2.6178942489540096 1.302712389857685 0.8638203986332689 -0.2615588388182463 0.5485350892683327 2.2635364882789664
Ni 3.129244317108402 2.243060337341722 6.6137592723754794 0.003035444392214127 0.634014756299392 -1.160574626848214
Ni 5.283407614287797 4.7526821941538415 6.619707033315216 0.07730201631627331 0.28560508113417266 -0.1749309171153568
Ni 3.88600316738331 0.1849554622125622 5.427569305086912 0.5448033901400424 -0.3033197248051164 -0.7829878158984064
Ni 2.483062905627518 3.0345059739842477 2.607967736805091 0.20659148144343129 0.5672313801262554 -0.17080969585813163
Ni 8.022719501351677 1.2487891097425587 12.221338835170663 0.4551626497527581 -0.7122521399457411 0.3716496195297664
Ni 5.365722774250664 0.9208022627398179 3.161818606905674 1.1978489378186403 0.2171054936008777 0.9687775301051381
Ni 1.6088299910331343 6.837805178354934 5.166441771097646 -0.9752564529612622 0.4603359664235813 -2.566156873024213
Ni 1.9179839588828775 0.30890772591823024 12.56083240100312 -0.34185901853089506 -2.0924735387594477 -2.8837140815849494
Ni 5.365519115510316 1.6625958984852636 6.95569211448439 -0.6974395004129408 1.035609757238339 1.228046801558259
Ni 4.648714407205689 2.312720883756542 1.4851591466777667 -0.7539832011359402 0.399727351602589 -0.8564146655299897
P 0.809539790000985 2.2916514613458934 3.8197242817798305 -1.085070840082944 1.112931313938638 1.08687421184027
P 8.472046225854337 4.626210116397128 6.0764242003956515 0.37613696587715867 0.4637393356781756 -0.06807406996010212
P 5.486723837664367 2.553278884970562 8.887611885536419 -0.6806630522855502 0.5731459458384773 0.44076884292493124
P 5.8965870526166775 6.774578396692047 0.07572957687721908 -0.6993570291506279 -1.8453938673939831 0.26346068382664944
P 7.436867363091442 9.231063836704024 10.514696179755651 -0.4550168682035131 0.08531794464221436 -0.192646589227565
P 9.050696250478596 2.5943068639354103 8.72409058002404 0.6093640476302473 0.08423139644625492 1.7102911380191574
P 2.7946700355769196 4.919265786543831 6.281148446245269 -0.48507306415894524 -1.660657019931798 0.15099986022105608
P 3.1874074019089758 4.520576030664302 1.2105077466077812 -0.543647165048412 -0.4015204389472698 1.1939241488429375
Ni 1.4551046709315403 1.3015459807084135 7.887827060403081 0.3621447653631247 -1.1569439720741623 -0.1651411847184446
Ni 5.13618085944643 4.473845606969683 0.5953509670544216 -0.3433119489273378 0.6346865855554359 -1.4276561952569025
Ni 1.1405815181089607 4.615073686186227 4.285832486487245 0.5964486251201598 -2.0668861772086466 1.142497200521213
Ni 3.1624592062162264 6.929710813545142 6.796885508811089 0.758831530367177 0.3402453941868721 0.754116898500327
Ni 6.261978604449149 7.922676773762979 3.88233360717084 -2.094025713737916 -1.6498696995083069 0.18409098634807006
Ni 3.8778753322002917 4.191509792337712 4.5783669754029654 -0.33272594588137533 -0.007303218529632584 -0.08723238805610783
Ni 4.853345155179056 8.37021685567985 7.4557132023460975 1.2378537603463522 1.3082935023251534 0.4381113506974261
Ni 0.17676930657208048 8.130306859548758 10.931133869135046 -0.16083870068834882 -0.9336084384031728 0.10505630361140617
Ni 5.220190089840382 1.1095605890676237 11.128594903726581 0.15841749284136586 -0.45177804955124123 0.2844182599149231
Ni 7.633037016124856 6.37026025380651 7.975204065785167 0.7698507642958161 -0.186442260189066 -1.7100450834466225
Ni 0.2809851868948388 2.339131719493616 5.925124270747304 -0.5951869847989169 0.6803912866814024 -0.1324876603494815
Ni 6.817485590397387 5.531426931170967 1.599403368519618 1.8654394731909485 0.6224167670491474 1.1974558161452797
Ni 8.500336276331904 4.813224383330309 10.00277864429292 0.6513954136696846 -0.5168590983212906 -0.3421577807182365
Ni 2.627225522148181 8.26858188703024 1.0728538782843622 -0.3362373014687435 -1.0895905823301686 0.7144424627288405
Ni 7.347137173536777 3.8526679344743706 7.912689163991955 -0.07824046897014268 -0.43924160764712744 0.5087125579547562
Ni 2.29453045535719 5.340515376524745 9.047190542979953 -1.3603236314485152 1.0269569666593474 -0.0929075840640142
Ni 7.809127768802955 6.366659196988522 12.625270952171084 0.2406819953692371 -0.679668806693081 -0.3706666867912068
Ni 0.7482449892067731 5.426292735073544 11.978123087395089 -0.5507706634670708 1.0776791756045634 -0.09849433412317231
Ni 6.135034408703445 2.821876991844448 12.77071847019904 0.240755786029966 -0.5335548138094166 -0.17671063472359888
Ni 3.8413741316004733 6.779188489996311 4.419817720319742 0.46267387052813874 1.1012999003472967 1.0832556412510763
Ni 3.7818965222031022 3.972039727965281 8.261979640956747 2.2648582924141833 -0.8310435337550527 -0.7527806961874067
Ni 4.426957810612067 6.194521275316286 2.326774262562168 0.6669768130477094 0.24740105926062556 -1.9057330306036726
Ni 8.424103106933096 7.000954343805402 5.307648558718608 -0.8124038071666783 -0.5081487150314862 0.4248668269826941
Ni 0.09284431683890926 6.234105128667751 1.0802041073678659 0.010062783552640734 -0.258221032694265 -0.45386398554599255
P 0.6951150524574609 1.764314182074106 13.237110871421395 -1.2865810503487263 1.9698681705206849 0.5791625843462025
P 2.5116214153537264 4.309955864281582 11.31794106323676 0.47703065347044304 0.0024188938541377693 -0.2989840735442399
P 7.242845384047161 8.403913119992135 7.257005220830697 -0.9855604059904317 0.21795524319568269 -0.8154611059357633
P 5.743056134039962 5.618898360150851 4.022605416029291 0.17103081073000223 0.023846724710610542 0.44267145926428275
P 6.783891155455277 4.4755489346162385 11.26653667145113 -0.5359143151805287 1.402819852939513 1.3896576045259423
P 3.882633540952081 8.733368161368483 2.9200386532495597 -0.6836429608494806 -2.1425799684975355 0.2892470487621341
P 9.475315466890738 6.3116528226633575 3.4623596614817496 -1.1548989166196755 1.5652621506695559 -1.0022350384326353
P 4.992379274329113 0.9524748997502716 13.428515835652192 -0.5110319501165522 -0.6899994991951278 -1.0148558125204392
Ni 2.6911743666177586 2.6492854666141628 9.830938804958834 -0.8969236813876295 -0.3762814618748229 0.6415704571594628
Ni 2.018646919908093 6.016282848649052 2.429990363614122 1.5726769550763882 -0.07281466996888104 -0.39381047189752183
Ni 5.192760960401563 8.11856871033228 10.061214816949873 -0.42948221426751837 0.4304042118611556 0.21677536395496858
Ni 0.05334840703441383 8.763370796708074 7.789787594242179 -0.7216929736436667 -1.5056156426515168 -0.7716500222880839
Ni 4.778259880498577 3.4763528683868183 10.877791942151463 -0.5512476031034894 1.1231745889332012 -0.481699519701022
Ni 5.702852047251981 3.543495452193687 3.1004154966904585 1.2142510333257475 0.706599312535338 0.6555374608625162
Ni 1.5339113462311231 3.861156801060735 -0.04192222597928933 -0.01347052368260906 -0.4145986122874666 0.9870503602723968
Ni 3.905415548224755 8.301398715872837 12.62929506373607 1.3443547668240847 -0.00910993272106818 -0.8147969899892031
Ni 8.08565005211951 8.282560282390557 0.798466308855283 0.3074466024892963 -0.06502834115524285 0.07459644445965218
Ni 2.9502375415571245 6.039907262529533 13.293813167620739 -0.32978151854107074 0.4882748589256945 -0.2102002818406122
Ni 9.15063714869712 0.026246983023247593 5.044203943697099 0.6533299116882361 0.4101794001738484 -0.14406328100222285
Ni 5.133903584440709 6.2036488897701085 11.636406864128185 0.23955970883933583 -0.7091783861164238 0.2580922204258846
Ni 7.908541005739666 4.898511109459176 3.841863838298858 -1.2667190213174764 -0.12297843530746562 1.1222939861004608
Ni 5.511042542705128 8.440312491221778 1.2808968358801218 -0.8548627476618375 0.1766173036788442 0.5383656049344987
Ni 7.33812990288407 7.039890192073939 10.148632554080029 0.1708570041562993 -0.16483033834624516 1.1384325435335363
Ni 7.141756591110307 2.5535751158656153 10.344725372225039 1.103109699862526 -0.6762078447276741 -1.088683497134867
Ni 6.9307198500314176 1.1212246805603376 0.9864312918172748 0.39357213063447055 0.024000990900287695 0.4378694098899491
Ni 6.495862153309005 8.361718731878016 12.370525342527115 -0.27288763356750423 1.8985568245702078 -0.509521941229929
Ni 3.908137169573055 0.8109126350552466 8.760293698285711 -0.09050308838757962 0.4861292733376015 -0.023611468771352884
Ni 7.793159072116501 2.0342638424066712 3.3927046693962124 -0.2879288441713428 0.26590477449176786 0.6596342566397091
Ni 3.2516709917045477 2.456985329647379 12.555684463480027 1.1097511164384437 0.3184103005896516 -1.0648059191863208
Ni 0.5634033907444967 2.8644786974392655 11.31720881749305 0.5900319229605387 0.7508842504956423 -0.6562393720255472
Ni 0.8201670733610132 5.762672173621756 7.01826070812733 -0.6490965903331788 0.2171646289735873 0.838332354106982
Ni 8.399358569980695 3.692610678991018 13.044568195409287 -0.7043984482292772 0.8088438577295617 0.24996187800926628
P 7.057821418440119 3.2283428087191193 1.2559273485917903 0.08066013415522882 0.9856172273702961 0.7386738244723795
P 4.9872044908811555 2.270109920946254 4.848937794893596 -0.20020074742573907 0.022786915987528498 0.42223118913206
P 0.8805565184822194 7.6609752924145464 12.951026810245455 -0.2101529735424445 -1.650129638037913 1.1913671867490385
P 1.9605393784003426 8.704633764548337 6.117030976056595 -1.033406578939433 1.7157233647783225 0.8386478284648718
P 4.02671284253351 6.885035491684954 8.757976617253469 0.10301896146640321 -1.2524224021891464 1.6741180305327104
P 7.6336109634840215 9.13998209369068 3.151995775570024 2.313477081863151 1.3453379566729606 -1.39439563343156
P 3.2303886533380797 0.2685805181644922 10.731139134669258 -0.8938671539494929 -0.31600271958942355 -0.13829115440513604
P 0.24631784067970816 6.623796871110043 9.141368824568147 -0.031686018249371235 0.132550652376933 0.5314624500567622
