# total energy = -340888.364556114 ev
CRYSTAL
PRIMVEC
9.11129569234024 0.00000000000000 0.00000000000000

0.00000000000000 9.11129569234024 0.00000000000000

0.00000000000000 0.00000000000000 13.33530222962593

PRIMCOORD
 96 1
Ni 6.537764446586128 1.7157662564236766 11.718369556134766 0.6293556602608258 0.7149080895113494 -1.8348806265674849
Ni 4.7417276778260495 0.39047367499305985 5.865932147864286 0.2643883378472414 -0.253952230115582 -0.7932352046580274
Ni 2.6926520136509233 1.719237659965126 4.39191498074487 1.185441308182907 0.22048803691986546 0.9414035089675593
Ni 3.569158629628438 4.658669109102026 5.106206827087468 0.832107970463825 -0.42129839290514537 -0.19456000420019395
Ni 4.2303015566053235 2.6907295303248193 2.2727889442660025 -1.4719185075093875 -0.42070883895026256 0.22497461193630933
Ni 5.539804263134807 4.459395967750216 3.0296870300850465 0.22899427461866367 -0.879561535960098 -1.3191474143205217
Ni 5.149749707729428 4.691898003368867 11.633036808082801 0.5707725605102945 0.003902934598831988 -0.7192319136976839
Ni 5.474430718751869 8.070812785371416 12.274865611103873 1.3857428428525684 1.0101182978354537 1.7201466906569989
Ni 1.8505587603402187 6.891483155998593 0.37558217381682646 0.11175685556003333 0.23122599216265982 -1.7492166114397616
Ni 2.8220688532906806 2.067261809762352 0.10387058964102765 1.4572210533982128 -2.258423078311801 0.9175267023499618
Ni 8.390373248387833 8.890282692242701 6.720392162400213 -2.1292889078155843 1.565238239410156 -0.9192223448848299
Ni 8.72026592037014 2.6020492923486325 1.3766702649736065 0.999429707773356 0.8429981350137675 -1.5546236971191032
Ni 7.144713388616712 0.7465011866559265 4.365350999051705 -1.4511622487986426 -0.2635653277253138 2.1564685535541694
Ni 1.1566880603426346 7.514522645677995 2.639402870035982 -0.6847706466960206 0.00016455060232229725 -0.5705961828334303
Ni 7.754778393668754 3.7884766208258887 3.8181502876337428 0.5353149910336329 0.5141262727711597 -0.8763561416489231
Ni 7.628523173527378 3.73541243650725 12.507833233916667 0.5810587729276508 0.12659186369033684 0.09450423912717272
Ni 8.406655133239724 7.522367471003947 9.05817744342024 -0.9154469370027977 -0.8546529456438765 0.6633158192563543
Ni 7.445367913710538 0.6665368138444393 0.45031210742998634 -0.48556748729686056 -0.920140485823725 -0.31787525402178807
Ni 1.9491156425130751 6.80703055908076 9.007863048048607 -0.8439376161089013 -0.40448903465729047 0.6216703758014261
Ni 0.2578186809736937 5.017389919680516 0.7690425314368867 -0.7596252299130659 0.9793321656925327 1.0913913829843331
Ni 6.45935263850814 2.0229353577173352 7.017916046399964 0.5249431608810057 0.49798694400713595 -0.8509808961089279
Ni 3.530317177404819 4.343163172531659 0.07464428743654664 -2.0980795720923155 1.8939797467224864 0.10667944103712594
Ni 6.276315825531297 5.640420298064534 4.848435524849774 0.29629881340259295 0.7412598400320007 0.9678725017923653
Ni 5.168610089175099 2.9031684935070614 9.224575208766126 0.4345794262847677 -0.08815078610531915 -0.304744630177101
P 0.2444779222718821 6.007723948895111 12.034616241019885 -0.2407303321086693 -0.9377990794457526 1.6095422035338536
P 4.033397352053452 6.362627126707545 12.697447491031495 -1.2185409189503529 -0.08958957543437474 0.3018793928141639
P 2.701289521675317 9.03240978894367 1.0477862133903513 0.5336003223353714 -0.5680039966262218 0.97365208458862
P 6.423117016764454 7.94233440915625 5.872480435857042 0.40067480311752285 -0.37300073424102215 -1.0619903041143968
P 4.680900669839917 1.166637594902379 12.324646084565982 -1.6798500479204812 -0.33389065561343784 0.24068970867872097
P 3.9160074223210786 6.419736726176849 8.287850219334157 1.343229652080706 -0.41930707350672947 -0.812317160990143
P 5.033024902560116 1.071497448498666 3.5967038978345007 -0.5226528221849321 -0.24364082088724492 -0.5855260646703851
P 0.2568446834971033 5.758229347384588 3.6339362952932377 0.8304480662628988 -0.06797559670902485 0.07784271931109175
Ni 0.7354765192408247 0.037141284504893346 4.361270049849041 0.5088933065069945 0.5180554326222369 0.6765107206800737
Ni 2.228385957339757 6.740417878525545 4.81524398689401 -0.04363547730176356 -0.8410392115151838 -0.9243678936415113
Ni 6.478814365449179 5.893641419387269 9.650744205686577 0.05336581721565002 -0.4203547980449535 -1.197910644294511
Ni 8.868169578344807 2.4409433673619962 9.965044717877591 -0.39786073070749545 -0.5557066673161074 0.2703592107186957
Ni 2.1930705764298937 5.3380346268476755 7.164324540802055 0.9996780763387364 0.24430030884811474 -1.3005583384644246
Ni 0.8059769895365545 0.03958128940883075 8.699230672716217 0.2614184565856401 1.0571242342713472 0.019636543284004892
Ni 1.7294423107956336 1.4548278679103708 11.547038024338239 -0.993188869069967 -1.439053895570883 -1.9461435732102352
Ni 4.062271047126558 7.254304049500054 1.5366937680685782 0.9381865446921585 -0.08124326035220847 -0.5310934967531177
Ni 5.901987365959362 7.941924400863953 8.010742926031726 -0.8433300644318895 -0.17212815755923908 0.40037089872385884
Ni 5.305470857143896 2.8322006137581126 4.878520111079464 0.07468926128377458 -0.007920026178025069 0.15393091782492202
Ni 0.8132687592326752 7.393624867222634 6.698962395656147 2.2510090452359166 -0.7467344899933268 0.023740281039733305
Ni 5.580167301687617 4.909967747098657 7.40595973891401 -0.4638524642172721 -0.16899501124689606 -0.2943504314269704
Ni 1.119122189472829 7.683628288012117 11.114600456193331 -1.7648581746317606 0.2779753325030567 1.091968852754358
Ni 4.590644177762233 0.30401932647927776 10.05637816506971 -0.7405234760866085 -0.13040815211263346 0.7922216757918485
Ni 8.183209725233148 7.459745537827092 4.569474082936622 0.01003270164565369 -0.7480930609037503 0.40906919782880513
Ni 7.7784950955543 6.533937702524688 6.960747223510662 -1.8312669410742977 -1.389260883308156 -0.552650654098603
Ni 2.466947004389022 5.5095365398678915 2.143943382846846 0.14166212775989795 -0.9793344796853779 1.24156900441441
Ni 2.3204100407220114 5.350580880591968 11.162101283550268 -0.1434539295529981 0.6631936918561933 1.0226359706864905
Ni 1.3277161860028621 3.685391424846995 3.5417627866666797 -0.4956719227207141 0.20630531766158017 0.368559667750533
Ni 1.538132441609772 1.4021554692932603 2.262574271010572 0.4989084273801408 0.10863399366033549 0.3843387849616607
Ni 1.044564459342434 3.4779545628307775 7.937318641047148 -0.7487929151842524 -1.1626001419186751 0.2668766514867339
Ni 3.7879754995797477 2.9591665149394712 7.059841672111197 0.10158428590240569 0.24712466567078728 -0.47842779092828575
Ni 4.438886441839973 6.748627155666873 6.138386302613913 -0.37829412142947755 0.9741236249083998 0.040089154711401925
Ni 0.8211454740924732 0.19195768228769097 13.498659273082017 -0.8834647276692462 -0.5850352410768958 -0.21551783739878366
P 0.1680560211058426 5.62063967578504 8.140521484098242 1.1438377737095073 0.19626413137549426 -0.49634992262434524
P 8.463637174573647 1.5367110795298085 7.8680809962916936 0.823210410863879 1.4620133325805338 0.6587551964688655
P 1.7796819935451138 3.337959509249754 10.460877768177486 0.19863031761482566 0.47737620973531975 -1.684888124565021
P 4.222474953870139 5.976827546246673 3.53093492323188 -0.5279153561354522 2.1151038745644546 0.057845450253558445
P 6.762749663512664 3.7735887641678088 10.399175164704916 0.9209871500947363 0.09511693301050715 0.3159852360879267
P 6.42036540555837 8.011316026511404 10.314015531265254 1.1659873132233531 -0.03560875034254512 -0.5056053797843422
P 2.738782502182048 8.648560025695057 5.596372651658279 -1.379354165717405 0.44802783848018973 -0.4840194260834503
P 7.208929798485834 4.1717705950560555 1.5298520963644462 -0.5779911897459207 -0.020696609117403064 -0.7825486714784587
Ni 5.340221337739927 3.2165332756620995 0.18320446081191552 2.492772960815423 -2.6483046474685614 0.25597311720035265
Ni 1.482407759038894 1.1663642560408476 6.478356067291345 0.5449797678169066 0.2275446866563307 1.2434525945903683
Ni 6.702441999363443 0.9351195791852416 9.203718542501738 0.9278980182819568 -0.07476048084134221 -0.27165864625640956
Ni 2.7162776025826254 1.8820291745978728 8.98887328620848 -0.08398045677771343 -0.8905599439531308 0.6099525731438655
Ni 6.627000473580762 2.023655150052701 2.3016599059504927 -0.540425829897637 0.44462858299065366 0.3134007631902022
Ni 4.482356432118857 6.792170036308833 10.613779882800026 -1.1936786084910347 0.18139749867630695 -1.9520416838622254
Ni 8.304289729596196 7.32611927971975 0.17776775085605498 1.8263738746480547 0.6372970265950896 0.1718304238131621
Ni 7.659064235655825 4.119854433955849 8.348859453227975 -0.3157121849321982 -0.9486208526516051 -0.9893021324210511
Ni 3.090496726609948 8.434007241983636 12.178438038662348 0.4939459411685429 0.7823638091611623 0.2842051154628525
Ni 9.012510719824181 4.958020718955886 10.174875117191286 0.06058701755443758 -0.19900878400016694 0.8317246189824773
Ni 8.712065754524197 2.2718559476186417 5.554220154691975 0.23847367486400864 0.22966121877870127 0.7074632031975299
Ni 3.7999841868963626 2.8576211278805377 11.226203802227083 -0.20438007561440932 -0.5670269774249331 0.023166925034766552
Ni 1.1489525705612944 3.580502192381993 12.558546704026135 -0.9458155219923259 -0.03871515718201074 -0.6287601927686719
Ni 3.195130842804187 8.589819504351947 7.812539450758041 0.42341492502751593 0.04801586575764633 -0.29506596943675634
Ni 5.664975239125442 7.874892600721057 3.6882915501678433 -0.22188568859834046 -0.046616414306958426 -0.3075085660754833
Ni 3.278234968005132 8.681998479755737 3.2351440076142373 -0.04834805228608448 0.5866149268591897 0.7362011945621708
Ni 3.5255155247372496 4.560248896359936 9.274289169771926 -0.09083630335728227 -0.2559952286875397 -0.25851850933002574
Ni 7.07188680460935 6.147482108796141 11.932334661293892 0.4156435086122132 0.12348442840960669 -0.6313089273324547
Ni 8.160896162836798 -0.26920324455647854 2.5806477706202586 0.24160219319066134 -0.3303047380343924 -1.6033633284166515
Ni 5.067328929682311 0.5179088078867137 0.9932696885874421 -0.6979568063689915 -0.4534076147348643 0.9198175552666675
Ni 5.721456159213223 5.5749009729554455 0.6197448452684089 0.4751928289307559 0.7429272004320947 0.45462734607457833
Ni 8.24792725634841 9.215528603578973 10.855775888209202 0.3755044744994823 -0.6580417153416086 0.2622584359884322
Ni 0.05926533195724886 4.761918308397839 5.6777984762494205 0.6031648607980709 0.595133248742846 0.3529929236605276
Ni 7.598984353891213 6.251214206747326 2.4174234694567533 0.1272644642773292 -1.336791095544214 0.5226895889601385
P 8.721596169496259 1.8195621334425522 3.3341190982452367 0.6527616978895919 -0.9750260821180112 0.8278039437718324
P 1.9376536329195229 3.476360086138511 1.376776867129604 -0.5034140285599782 0.6143373324751226 0.8721243629557625
P 4.724379771414187 1.0782671409692617 7.924703141457933 0.07903493984698003 0.8535625407931752 1.1814553269519654
P 8.706343861022805 1.6081983031156668 12.314431411310553 0.6115471713244952 1.212692687699692 0.20946443211585217
P 6.54510815066594 7.6663077154864085 1.2251448670836476 -1.712418725885122 1.7907247579858772 0.19307184969044167
P 1.9628736985434914 3.42347812772756 5.846849450811238 -0.7522289374489949 -1.0916307526886488 -0.12864154713051396
P 7.110901371445271 3.868601352436141 5.912819785041853 -1.1088566296486322 0.4153460319764524 0.8383310685554013
P 2.4703637401581644 8.72126816286242 9.963310838365944 1.3073609632085548 1.878381120953281 0.2090764526488141
