# total energy = -340871.245914661 ev
CRYSTAL
PRIMVEC
9.19378264073162 0.00000000000000 0.00000000000000
0.00000000000000 9.19378264073162 0.00000000000000
0.00000000000000 0.00000000000000 13.45603021650415
PRIMCOORD
 96 1
Ni 2.476115463534898 2.269430039843343 4.056428296529196 0.17280744301445078 0.03933736414704193 0.2709755041464559
Ni 9.06911477898214 6.953432363372322 1.9392693594548134 -1.039026239119056 0.3725672462480293 -0.737357419653801
Ni 8.0427668730257 8.206673626887763 10.245973178364677 0.7847968440826871 0.200374553999442 -1.9244331781163375
Ni 2.547615509798375 7.731465398616375 1.5909334905027928 -0.8430932658307351 0.7395719108066166 0.7291599714446733
Ni 4.521051723043719 9.221547692322561 7.817616656622872 -1.0129825067571265 -0.10971462831902397 0.3676389557084765
Ni 8.326523775157106 8.006129649885677 12.624904844929958 0.35146208883829794 1.0155078442821415 0.4208721040010042
Ni 5.084023798766715 8.22759867578781 10.629240823808672 -1.7480670712163506 -0.46253554517806145 1.571986356767267
Ni 6.156230291679852 9.075973340704213 3.696344612337948 0.37673011937646733 -1.1966636592612874 -0.03997396928977632
Ni 1.5352513469776872 6.92692668851343 3.684651040415289 0.949080823007159 -0.0022653989954090014 0.24183359247517708
Ni 7.063279676315105 7.04970965339047 5.3626717159799515 -0.5953114261919231 0.7688344072161597 0.8421702397958335
Ni 1.9897827584756982 4.495796402600647 7.471716220646961 -0.5782554991509009 -0.45275609719379445 -0.6139046158130782
Ni 7.933829744547374 0.4899596522433252 7.956913493571206 -0.49075905880012893 0.027885670666674554 1.066347552641828
Ni 4.594712308187474 7.796309146372103 5.900334227943307 -0.7829363938351807 -2.889654872549417 1.2512211827921935
Ni 4.186820955156046 4.787018656097098 8.805369983151584 0.09625618882127293 -0.7662450492224288 -1.1158009221769492
Ni 4.06775227839659 0.73951108669783 5.4402727562900335 -0.4332712489963054 3.2128736502713053 1.2729446905122141
Ni 6.358125754704919 4.256509826273078 7.521207271057262 1.1983071084019814 0.4637501343114529 0.4886623241721003
Ni 8.179588743733307 1.2173763181028368 4.5822630073458415 1.5849058930424125 -0.4878791661491726 -0.0015166937548425493
Ni 4.811492505030282 7.274295371549684 1.3622887173833975 1.124348040416012 -0.40481813586193505 0.4260881009843049
Ni 1.3040277178756627 4.43932819067442 3.476553451736455 -0.969115630170847 -0.04735586357614425 -2.061641898090572
Ni 0.9816201542434646 6.800640892515601 13.155409077862744 1.4094273309537018 0.6144424905944192 -0.3821453768547677
Ni 0.949212071039304 0.29428837994995016 2.432163667062328 -0.9179303655462837 0.444711372512447 -0.534145396205564
Ni 5.952744304287601 2.8103554252050413 11.15790170335637 -0.009641636854822104 2.3092892690340485 0.5031268363368625
Ni 7.561122997025825 3.6751777669589583 4.522599036633297 -0.2590802953707667 0.3715886843848439 0.34236449741240393
Ni 0.4767445093220032 3.0120945939281314 8.316620232681213 -1.207977798722526 -0.8238231047472134 0.5152655285819255
P 2.9656016359810566 7.492537379805106 11.203558027098742 -0.11613184469927741 -0.6012748428642096 -2.350866835365519
P 3.3067829034154945 5.965054779013948 6.903751001664906 1.9145801965816576 2.159127074222939 0.2893231534157082
P 6.156496911371461 8.392084637945437 8.77256472854475 1.527718645198143 0.5354738852090003 0.15663031903395605
P 6.15701176318974 1.791160282009689 4.791691855726226 -1.1860079793196543 1.9976689947830366 -0.3081140608699661
P 4.1718718648610205 0.40394813973035987 0.9551521738926965 0.9242560506539954 1.174538545227474 1.2189823773631459
P 9.17211272398532 6.515072815237749 10.881380308028275 0.2722677405953182 -1.1880445501337087 0.8234461810237689
P 5.742923800774027 6.09168074496314 13.037709355312964 -1.0381942301360636 0.6652953115802284 1.0374653223898391
P 8.764598316035134 8.517598156215849 5.881657978235241 -0.0025459063503052927 0.2454555054984805 0.2886976040165673
Ni 1.4021897333000095 6.62644629607043 6.244808708258237 -0.45941653993310555 -0.22026306539325294 -0.8733050135274251
Ni 8.835197371616621 5.74463384431331 4.558983430755415 0.0295705145682652 -0.5964064590283149 1.04199792015287
Ni 5.329470209348694 4.621089270091796 1.1865569205093653 1.9325349812878652 -0.11387415901335227 -0.5195425586907246
Ni 1.9619072100288857 3.8796474890754205 0.5273792662714822 -0.400865064751458 1.7270408466736706 -0.39837006624374616
Ni 7.640410177040771 -0.13721352584079807 1.4204053745063647 0.7865007141476713 0.8914577731770518 0.1371981784512734
Ni 5.265931978703601 3.873276197824219 3.666861990715508 0.10347481805689922 0.7600417486251942 -0.8787945758870865
Ni 2.4957533828892493 1.9948853077461406 8.068652886946163 0.8225555508886995 -1.1098549890061595 1.5848251604031482
Ni 2.054525374624265 4.566643690308807 9.809620632943146 -0.22488410910503207 -1.094468222137444 1.472543028467264
Ni 0.7351844926677938 0.9789263759799698 6.750890577439665 -0.22886546235028327 0.20674574763310846 0.1489092962406145
Ni 5.554432872589148 2.000438352357577 7.537758837636681 0.713539491298597 0.134937921662187 1.3790734012521926
Ni 0.6641689587404472 2.8865902694401893 5.367286994779523 0.5485466592325585 1.2439249062410964 0.2580253717436911
Ni 1.889313103651566 2.061705718732761 12.051839834812204 -0.1089741506085736 0.7401727776154091 0.05461794445519626
Ni 8.775235522352073 2.4038983022388183 12.995577927769308 1.1467829723807605 -1.7885161803703327 -1.1418161152937885
Ni 8.908490205461606 3.7995604499856497 1.4688060423158125 0.6718773356731204 -0.28696133805175095 -0.5185138603158941
Ni 1.5181141364549764 9.137148769254704 4.682011869624382 0.10456959378297473 -0.16003651650202763 0.7634008949054143
Ni 3.7244840223416285 7.199669439246657 9.0867760351056 -0.5311418334925497 -0.8788567965835896 -1.0071563869936526
Ni 4.346645669601755 1.3910100938173824 11.691675245335226 -1.232525149044587 -2.5636089097913786 -1.1629089314083456
Ni 2.420373560423742 2.0677092586851913 1.6351767298796387 -0.8897616164215516 -3.007795777258923 -0.1351423243635092
Ni 2.883997622783857 4.677686194972594 5.001216319444289 1.2959334380979035 0.5642717832772991 1.3031908909912653
Ni 3.3908324627495183 5.804053260412172 -0.13099852889157468 0.15101322995749478 -0.22475889638107743 -0.6336571158496572
Ni 6.327574815559551 0.1323196754324081 6.090226288576503 1.613413256453486 0.09006548662952876 1.3157242475715858
Ni 7.624036050463008 4.549984556474498 11.276597112547574 0.9628634786135482 -0.7243121564340688 -0.46572988374564306
Ni 8.435322996898392 5.068366787221557 8.873027028342907 0.07049244959360762 1.0959712890455318 0.20851929459376348
Ni 5.795503042715756 1.7594601200556619 0.24370051129106432 2.5875790474537306 -1.2247868998600646 0.7938072751114135
P 3.528178379057874 8.502906491829963 4.085613958977879 -1.0697979730842737 -1.1184540435290802 -1.460434418129188
P 6.840109800656157 7.40061794267739 2.4794077570371424 -0.5617826983068582 -1.5076763818352874 -0.49505717195485055
P 3.964993371737611 3.2745311145133114 2.0983337480903144 0.11241737196216768 0.092795226855866 0.3102460196113044
P 1.5654345348242855 5.795503042715756 1.564962893783612 0.43913490686593404 -1.2347517243822608 0.01718139687529299
P 7.163556261707383 3.561202445687475 0.006615845864883367 -1.648826345845457 0.8672536651270225 0.36754408200182503
P 0.9410204108591886 0.25811636220287243 9.212509284777026 -0.7787791771336975 -0.07005176251176322 -1.1955058915077605
P 6.182579672236766 4.939350437830355 9.679393462400743 0.5992364722779421 -0.19749903222385987 -0.41110345465001463
P 3.0999595729869003 4.0162395152212955 11.665059245086704 -0.3619100236444993 0.9023368819834008 0.6692758934945312
Ni 3.503612592299997 8.303557706548881 12.998793912877057 -0.5978601607557058 0.17307278086069547 -1.0204926990912426
Ni 6.933867994277725 2.181077790313703 2.6330358620985668 0.26065535316737043 0.11666097772987004 -0.8291931108098751
Ni 7.383903646148266 2.9491723467084787 9.200856165497232 -0.560912379886763 -0.5014039401084848 0.022495867109670935
Ni 6.314216249631708 0.7834849482483264 10.359205642012645 -0.8762095887687297 0.8875196144649102 -2.301056082490979
Ni 0.6568277234387387 4.677088599112092 12.175823507679729 0.7844268623377781 -0.6181518211252064 -1.2224163427453592
Ni 7.976884227850944 5.580469664542108 -0.025433679822975744 -0.7594203129911115 0.37452694107756146 0.6289586819327233
Ni 2.239798478944901 8.531131404010607 7.483463116507941 -0.16972469032406898 -0.2506643033929296 0.4155805165847617
Ni 5.0775421821258835 3.4919548761289687 5.898289530722143 -1.538951280689169 -1.2713691184949782 -0.6351581258752157
Ni 7.518371908543742 5.1256440520050806 2.5474959906262744 -1.768018831747929 1.2389554780509628 0.6583196515933436
Ni 8.863275183277757 7.338716205311826 7.665792371681918 -1.6128517275230612 0.31871163388015433 0.008999889505765146
Ni 8.39191914986099 8.131771881110659 3.804423041533644 1.3691702832058679 0.38619717832663814 -0.15519590058027463
Ni 4.006117160722635 2.8794926693739167 -0.21002828299737988 -1.224841150136768 1.996297311246491 0.8132903235366896
Ni 6.284851308424875 6.500463894894086 7.963318801817543 -0.13145664798180587 0.26804264677037715 -0.39876704457184875
Ni 6.105636906751484 8.349112898684092 13.218974889855247 -1.0832980644532375 0.7421203882600832 -1.1154024011869499
Ni 4.447611788679228 1.1733472938575247 3.082561259042063 -0.7509863232911453 1.125973491834577 -1.3179919605598398
Ni 7.946075862796436 2.584951460406062 6.659953955657914 -1.1235633397311875 -0.09441913561253418 0.8160324050582011
Ni 1.283148637887961 6.566171858201925 9.026735119311814 0.46293586594027375 0.8035463567760484 0.683025638980456
Ni 4.868328468255281 6.839935118789241 3.695981457930412 1.1310632476526585 -0.4598271451079629 0.3991640228999513
Ni 6.6892949930303285 6.769455582379853 11.328887669719768 1.2169296085991752 -0.8230335189663825 -0.324211480652461
Ni 3.4960736906751997 5.361335859387167 2.531536503637877 -1.0757115103552313 -0.0962495039530536 -0.01863201327889049
Ni 1.2131104030370976 8.999756884034003 11.586448727461496 0.4839227526045859 -0.7989841913266627 -0.7937072591984395
Ni 4.664916031122784 5.720821947717913 11.052096896565322 -1.604723699099288 -0.9098527307444717 0.734159995762426
Ni 3.0002805834551256 0.3555897633202709 9.794173239638285 0.3438914755798916 -0.14942377398318782 0.7035250444853883
Ni 8.484684414975879 1.2623798832898907 10.39993685648623 3.111003714807681 1.252467396494469 0.3223741703334061
P 0.11275714509430523 2.5722180716861294 3.1500831556310884 0.5592594176643724 -1.0555157521336467 0.610806950724361
P 4.2772326119588016 2.396846671084892 9.381516749153036 0.6859500117161025 -0.7313695775014823 0.6199641917435967
P 5.889978351369926 5.37555864086712 5.390767915206026 -0.1145938107881962 -0.5382411635414924 -0.18752803705407706
P 7.298658895093237 0.7952824099128877 12.198362065403131 -0.022956865906489494 -0.42948170004688613 1.4746647027959572
P 0.9581392338169608 0.15783242178461954 0.22866408006258082 -0.17557240735409763 -0.29328368072535294 0.7336624873007171
P 8.946147938455717 4.664520698476606 6.7653147027556955 -0.052853139245289615 0.04785594314101436 -0.8460407784948332
P 0.4222419280877041 3.19257773758228 10.509509275333182 -0.9490692530429332 0.07727887638782176 0.36459605511709464
P 2.9512685291114713 2.8234565652237444 6.307756698068802 0.13324382178921568 0.09269778204605326 -3.428170887018851
