# total energy = -340890.4401455076 ev
CRYSTAL
PRIMVEC
9.09834707449036 0.00000000000000 0.00000000000000

0.00000000000000 9.09834707449036 0.00000000000000

0.00000000000000 0.00000000000000 13.31635061853176

PRIMCOORD
 96 1
Ni 6.504080692113538 1.9244550512458023 11.39978108626006 -0.08343178336309502 0.5479864158537143 0.7186032789747495
Ni 4.753849886561017 0.4781299599300932 6.197136129996338 -0.7015635498836433 -1.0015565243083717 0.6541626920021767
Ni 2.9117985636166432 1.6850229529814333 5.11848524700147 -0.9736870515916134 -0.8016609668278775 0.07030321640093698
Ni 3.531650744440284 4.5052102611860105 4.928687360838545 -0.05703066766174694 -0.2254116994737279 -0.7482095318769566
Ni 4.942622389022984 4.549319047186378 2.6430024604146536 0.2908966685504152 0.2765895078991237 -0.4819381180743893
Ni 7.197010795617654 6.0902514795638885 2.750132766214679 0.4377879059197363 -0.23318748676440484 -1.1661876021596174
Ni 4.757562012115504 4.563194026280965 11.480744546239736 0.29102908036322134 -0.021797812601381816 0.33814351735252085
Ni 5.609167286380018 7.983863134658445 12.284959260759999 0.26089086621694424 0.1294262478153384 1.1132776415344634
Ni 2.007140828302596 6.5139796935921686 0.29598651305390733 0.2866201526622483 0.11375151739255895 1.0172819054634286
Ni 2.734662846900235 1.3365926582887644 0.28398488359576285 -0.10541651516430232 1.1653900459589865 1.484839843556746
Ni 0.6338791023122475 9.045849485384691 4.583580692285714 -0.02499035139675051 -0.865756768866522 0.1837513436204642
Ni 8.845176345115695 2.274632228552347 1.6866888603074786 -0.917017366813711 1.1684594289129295 -1.5696127143287677
Ni 6.770271028749829 0.64260441703468 4.7656822867659425 1.0547523916050607 -0.2748915513714104 0.09846296666460462
Ni 1.0431254775045562 7.37695790154077 2.5521181629236747 -0.6042056433577594 0.8392360968681739 -0.037355043609690504
Ni 7.716126079041117 3.6616934173576206 3.9823610161753886 -0.3692952603649769 0.8890000556651786 -0.35902755989038165
Ni 7.895154251922557 3.859136644460336 12.40784244446453 -0.03388585411416745 0.23632526106243815 1.1802142554560124
Ni 7.862027170687546 8.657923266593922 7.024082154529664 0.09682903060560742 0.4355217355933789 0.2852824076874313
Ni 6.684482715384016 1.0487300592240747 0.5501106219687286 0.9993695439593822 -0.38854562395415665 -0.624159203661551
Ni 2.0505490415880234 6.632212712171947 9.355361601010411 -1.3702246926123112 -0.695966258301524 -0.6640367565827789
Ni 0.22431519481147913 4.823434044013741 1.1997207661528067 -0.6249529032074399 -0.453624872951993 0.7007747354337609
Ni 6.620057320650394 1.7484293328569611 7.047865233449829 -0.1828422015426335 0.47394610100784823 0.31388233081231104
Ni 3.4257004942393197 4.50917714045502 0.5180007359224217 0.16793854495792368 -0.4713408021745173 0.13615970988443002
Ni 5.910377160416353 5.513398086413049 4.637764987695489 0.29802608050634477 0.2836842099623759 1.2577517848218596
Ni 5.636071098303096 3.163622610423195 8.690676405769402 0.26045712111363534 0.5496617466736081 1.1336119822164414
P 0.28366735128730314 5.741884873299851 12.445287601160716 -1.31577309853165 -1.8099635516108312 -0.481317710881571
P 3.967215907846962 6.211587034452688 12.599344451010678 0.9893628104556575 1.7057958212519655 0.4176561681668678
P 2.464114402076201 8.449252679358274 1.2516131879665637 0.5341176282914221 0.6434663886305951 0.9710799529860695
P 6.393253727948836 7.6734002417767355 5.8063812351396615 -0.9886053634643426 0.4266655707543297 -1.096319673523886
P 4.82587240099561 1.3563360711643413 12.75393446399175 -0.9400727059712778 -1.0030390223911694 -0.5340548933742867
P 3.907840095669075 6.286939543869981 8.310534732626717 0.6692442689256475 0.5190023699165384 -1.4711649171728147
P 4.7593907798519055 1.0726496133484489 3.841327540145749 0.7350930490996566 -1.1400489960910367 -0.055464865836523825
P 0.08405416843766327 5.47856051595195 3.431330551330291 0.8184757243923712 0.07857368393984533 0.7005196820001612
Ni 1.5483293884456422 1.065289050668107 2.660807015555767 0.9187045247081468 -0.29659423315582467 -0.28349240566654405
Ni 1.898779516160605 6.453248227719138 4.647672177686371 -0.32857875648222123 0.9861466175112049 1.4263883842880725
Ni 6.062219472619349 5.677141036423074 9.144378213980769 -0.08892340260528556 -0.881356937297624 0.4674769483437369
Ni 8.681023969493042 2.4611301442774964 10.463321898861217 0.6927050710517489 -0.7359168305525327 -0.815098580390022
Ni 2.283685083764881 5.242667674650069 6.92543423758858 -0.4929100437048608 0.38995535981748974 0.8376664383882089
Ni 0.5205619205880784 0.11102075895467811 9.60416499663047 -2.3975673247458515 0.24972533651842801 -2.586236931603539
Ni 1.2578646621540335 0.7227799601687218 11.61615888319474 -0.2508946742361808 2.3951720850407976 1.9066627415067936
Ni 4.397613210187591 6.980561121742091 1.568106465204924 -1.106015046434779 -0.29242570360043185 -0.5495329344052278
Ni 5.695183058419512 7.699266842147825 7.99914471819108 -0.6625524587277686 0.5499139718937304 -0.5721599277761243
Ni 5.294773907617087 2.680090961910507 5.0778311033369805 0.39455172093892055 1.8394260798463222 0.5473130439357736
Ni 0.7417536528925595 7.3529655606408175 6.84321884506896 0.7112728067516072 0.20202623067025205 -0.2757922088088089
Ni 5.0248441503854675 4.800415226237147 6.9688588278985115 0.5890551608695662 0.7119497782139739 -0.26939556125384573
Ni 8.26640320075898 7.209912251588884 9.132912477157818 -0.010006219283092444 0.49011448323759466 0.28097992365733543
Ni 4.634033755612412 0.5771836631450266 10.571717784721608 -1.3628955059407495 -0.5532000988441699 1.1918556963496827
Ni 8.341619234972065 6.975138506961518 4.878098732142331 -0.2732956676392003 0.8169202069797931 -0.8431596002922963
Ni 7.288849509703403 6.029165178159915 6.888374850802958 0.010873709489710308 -0.21888675387101655 1.0312818192869464
Ni 2.2549888974931904 5.350901609934798 2.656824669096947 0.8524163430038738 -1.7026405634524355 -1.123190529772801
Ni 2.3829480489596016 5.277905572376848 11.43708066940509 -0.6610673895418099 0.033344636898716765 -0.6343610838952171
Ni 0.9930845692945688 3.248064368440812 3.6252163247766243 0.8079213459152925 0.8452380800878798 0.2350242828628275
Ni 3.601935474607948 2.6622763985877516 3.0405092385408996 -0.8375741357847187 0.7551342840212479 -1.2362033692271226
Ni 1.0427615436266655 2.9596831636001277 8.33973769682337 0.7817092062962989 0.08382850458088144 -1.1258516215447318
Ni 3.5419045814498578 3.087460348127594 7.065682526276669 -0.49018827389832353 -1.5103922381045536 0.5086449379416144
Ni 4.150183664956571 6.9983119966362155 5.816875268508644 0.10871626896149664 0.35431215669258337 0.5176522836465471
Ni 1.1585016151428928 7.453565982836786 11.60059161156796 -1.6585394593681628 0.18666337506093658 -0.730851243104167
P 0.16121542922807444 5.701943130201333 8.028947263451558 0.8196676878179431 -1.6510269530412016 0.3922467269548277
P 8.491423517458873 1.4243553129421351 8.191725788685174 -0.947345071262975 0.6848351813853689 0.5517304562771789
P 1.8100888301186129 3.4547424176950075 10.267798422964376 0.007335100208832529 0.0875270364783912 0.1811370459260687
P 3.974066963098257 6.397411672503739 3.640809981609551 -0.23202200570139395 -0.8051077877258973 0.5452317359267126
P 6.572109032238279 4.010569531050706 10.61771174820945 1.5926222878500638 -0.6664379098251039 -1.4667140804903127
P 6.465849438241108 7.654657647065358 10.234573989417028 -1.2187903159569977 0.22163911980517315 -0.06640233868463404
P 2.449111227960152 8.609510962487496 5.954206627165439 0.23151678393020128 -0.3876349392144292 -0.7834501002468055
P 6.933113242412076 4.1429049873987545 1.587242108504423 0.9040178692302496 -0.8000316587545705 0.557984921827323
Ni 5.4878499281851125 3.270346220114677 0.2163131986713548 -0.04528741108288974 -0.17912747169520762 0.025506628911536718
Ni 0.8964901492594828 0.7934868536347394 6.800167286983865 1.7974967866023883 -0.11501110083127289 1.01797250377255
Ni 6.5368711345115 0.5193727666420701 9.36018281505777 2.1574635704775873 0.6932707137472318 -1.3082505649023597
Ni 2.7421052947031024 1.5200244310926838 9.409213806756611 -0.09832952641053387 0.8240552753626776 -0.4037351872104014
Ni 6.436871203214051 2.1568723240138254 2.725124139960717 -0.6623398284963303 -0.12048703634417958 -0.6521497753372059
Ni 4.218857987714568 7.077403926648837 10.50694665280399 -0.11581174235569733 -0.21234123944301495 -0.5808299447462965
Ni 8.522894699549482 7.133740890946337 0.6169798326923875 -1.1292213093479133 -0.42009511662566357 -0.2914563977086271
Ni 7.963282673863719 3.7810637293058087 8.265298661439582 -0.9964305159357161 0.2956113004172651 -0.9668008659947414
Ni 3.1178579252784244 8.564182997996195 12.375869943457126 1.5136071454974254 -1.219954254358112 -0.16947143666268233
Ni 8.985327281491449 4.865122669726135 10.159469864871395 0.9004116399362299 0.7532244685930447 0.5853843968861983
Ni 8.681806427330507 2.463477517789892 5.982184044028295 -0.15089084544701756 -0.07291185766837766 -0.7562151757902524
Ni 3.2328883257327647 2.720924343009857 11.756712876340258 1.5041717111161386 -0.4621118273770815 -0.904440558589965
Ni 1.282848722871238 3.4777976288593906 12.625591362284165 -1.552507936327681 -0.4877382696959342 0.4713991662162784
Ni 3.0940657480113125 8.448561204990282 8.050186444565268 0.7205352058901398 0.33960133284496996 -0.07749459194305364
Ni 5.660536553244306 7.908847264078199 3.511708077766562 -0.20281427378918618 -0.1391463033165797 0.7491148173000454
Ni 3.164932772383602 8.64986213119864 3.7845338388314977 -0.14171226427154304 -0.9407301370496186 0.12013710920392859
Ni 3.726073320356506 4.44487912257866 9.280897090255172 -1.0714558204026707 -0.7968540323575374 0.4315115859927214
Ni 7.10832920792261 5.9713997733916955 11.409342539066946 0.4786699888460788 0.5554870951061336 0.9927456108849613
Ni 0.4654168397406722 0.10750970686772646 0.7112487152477512 -0.3326182166589175 0.319492735020553 -0.8955640820359415
Ni 4.610232479998354 0.23957039313796746 1.8155241825849122 -0.22626170617884903 1.1647927786946197 -1.165523229102741
Ni 6.026235510442895 5.75242075906479 0.46317318738347535 0.46422244596218115 0.20435616435500936 -1.2637383414225978
Ni 7.932794113243415 8.825714980995484 11.319164273299075 0.49782959249366515 0.3343251720476952 0.9731671745324013
Ni 0.046709093557897 4.831276819082288 5.763263259121852 0.6218125578062452 0.47081372602645366 -0.050179963288500676
Ni 7.951591298036476 8.564501440139349 2.672844128567006 -0.07316279733691915 0.863171524637849 -0.24950087921244773
P 8.572671755697998 1.528713352427327 3.683488507469807 -0.5281267008153098 -0.25096975044849035 0.4920093862674623
P 1.9546160713760037 3.12663783008254 1.424915771114087 -0.2398934380296707 -0.09098465600968847 1.098365243199005
P 4.714972650055331 1.2993895176213754 8.410766671771322 -0.6316809659598928 -0.8545812118656765 -1.2295984623160954
P 8.678940448042116 1.7584284161520112 12.657138060654434 -0.7555248345914471 -0.6767264362353055 -0.1339408478562403
P 6.452565851698092 8.038789855179116 1.0608699835558177 0.33197672642017667 -1.0142523746084855 1.1717476127458981
P 1.6848318876955406 3.334262107419252 5.780068815768155 0.5411120573313843 0.18959057601006057 1.1126199533458065
P 7.03283112495416 4.02685557208632 6.0835350798474135 -1.0997176434618416 -0.8067872323108493 0.1731152040628567
P 2.3440162223722316 8.62443225148102 10.190031212267275 3.2226626113372694 -0.6248924822831495 0.3797992452200943
