# total energy = -340871.24245704646 ev
CRYSTAL
PRIMVEC
9.17852848298552 0.00000000000000 0.00000000000000
0.00000000000000 9.17852848298552 0.00000000000000
0.00000000000000 0.00000000000000 13.43370421472524
PRIMCOORD
 96 1
Ni 2.037835233991694 1.8280966813620256 9.857652313159761 -1.3280989670868546 -0.3250020948745564 -1.0649866677385593
Ni 8.731763536843863 8.275104213007538 8.360090043234162 2.1519488113069456 -0.9707765628130377 -0.3808847649747892
Ni 4.7877682373881205 1.3450215527701888 13.180962479028018 -0.3281892343532864 2.4397501287614887 -0.1900510605862469
Ni 5.401701645479375 8.443759672487216 2.270752324407704 0.2888647257220509 0.13482762133656778 0.48367772647331536
Ni 1.8764858831240323 1.5480597796627051 6.003173365552367 0.7698973012630353 -0.5192247703399897 0.7921103470249649
Ni 0.40703285644504805 4.543958987311456 0.7480849435831234 -1.1477463647352943 -0.2646356779713572 0.33750099867251554
Ni 1.818853903256119 1.3929426495834354 12.951783803232203 0.7251701335589898 0.9839097577608863 0.6758622884627973
Ni 1.8166602349668322 4.92236217794921 5.619989997320218 -1.3189206430216962 -0.70012527477522 0.5751673471438804
Ni 4.910898195968795 8.399418201752724 13.268174102393356 2.7053417428882116 -1.2572661034346928 -0.872261145643943
Ni 1.7013687396457844 4.004784693095684 7.882575267151322 0.10712218500149938 -1.6197399700024622 -0.17720222964803675
Ni 8.541905676743882 7.134828093413578 10.747822712189814 1.5105958694749275 0.7545658131122875 -0.017475016856311837
Ni 1.8924565225523122 2.9991392281764417 1.7660489114774771 -0.5026342129711601 -2.7969339505749122 -0.13561437890392128
Ni 6.242574168435122 4.604638238610511 7.789345282709477 0.5525133571897904 0.7601469067444908 0.31136059283172185
Ni 6.945686158529346 1.4641680300222006 1.4731538093327097 -0.12292829879582055 -0.9123104482563449 0.15648813702913694
Ni 3.700571547572174 6.844336847858618 0.8136058686169024 -2.721218819129785 -2.224871981829233 0.3036326280598448
Ni 5.419572240287916 8.582098452638386 5.262653365082341 1.3501253507592748 0.5839890592005684 -1.8497567723483692
Ni 1.693612883141821 0.39837475059867083 8.046184371712801 0.7457728974110058 0.047389545027557094 1.272570595002247
Ni 3.8840503304292513 8.705154982991804 8.678146245301196 0.24252059123987266 -1.4156370593088394 -0.8584057278180894
Ni 7.801473790146563 1.9831587402708533 5.705871651919372 -0.2918379494177619 -1.4251683958380423 -0.6405065346713228
Ni 2.8066195948384136 2.5704009877543843 4.054963707897067 -0.24435995844145658 0.8726491251109811 -0.4344367300593163
Ni 5.385611685181804 8.314672848970362 10.592367812265165 -0.3033760319643485 -0.3620699462611313 0.14465694872216378
Ni 6.55471756250233 9.22130034943427 7.761524245254845 -0.747880430672312 -0.8494819429658983 -0.11348720798757873
Ni 5.7621883486665535 6.122987121819572 1.459048246876744 1.9986272449312483 -0.10891758633902532 1.2126685193299762
Ni 7.092303971303681 2.8128518156268054 10.023061327141864 1.03091697974836 0.026211625398361308 -0.2838104511275951
P -0.036461704097035454 0.5059755569674452 6.898946338322088 -0.19742678422502774 1.3718102919318762 -1.4742520407385706
P 8.315012454521423 6.1556076117782546 7.026163495602425 -0.5564507445709836 -0.4328351899001513 1.48278013281424
P 0.28722093588352454 3.6065283455134636 10.013577153738852 0.029724266537310102 0.43307867336952516 0.5863480463510483
P 3.6957161060448405 4.6288787321335505 2.330653236497842 1.974208706877568 -0.5748901822230938 -1.5781922284676626
P 6.1259609650234585 1.109280229163327 11.2312484605668 0.4823939746648853 1.1360900114432886 0.96536644754106
P 5.084152098180411 6.929908268197615 3.903887883875424 -1.0098737859248157 -0.8243851478982706 -0.5287468508978119
P 3.175669865029376 2.516339455436816 11.288906140314253 0.8222930412559323 0.9176429162128519 3.733951414659634
P 9.136013463475892 1.857752506645228 0.5884740059957584 -0.8422201191971624 0.8180612625627719 -0.20180254469522022
Ni 2.9232052626648564 3.9086946792022 13.436390828215176 0.6707892448152641 0.41592555862900626 -1.0068509399380918
Ni 6.622317424220308 6.592193493988346 11.786288758987013 -2.2493141740319973 -0.7539006687244629 -0.5255411994763207
Ni 3.4935957319930298 5.170880013098696 11.094654518665813 0.02182069541951726 -0.6869062049817848 -0.5445349669700041
Ni 4.575505589446512 6.205190022233178 9.186101610846045 1.9804891405696408 0.9173503246730976 0.055937434597568184
Ni 8.900474067493985 2.7134483529783737 3.2190246439601116 1.2636339546342497 -0.24130214545173928 0.9208894481746075
Ni 0.39535593260558966 5.640416812290123 8.96314230589885 -1.1458882284806329 0.45849582789104903 -0.06776810868390909
Ni 9.186238370919309 2.072988997790724 8.64234539524947 -1.4274826457935157 -1.1398667048769013 -0.6426752601878672
Ni 3.529584741877102 0.20461050880864529 3.7373636786918634 -0.2790127726286356 0.010537923416846368 0.15680772515208477
Ni 3.353035747967353 8.827725051339648 6.366286045716804 -0.6403432696205811 -0.4581448723095336 -0.9052507131960862
Ni 7.823979541800667 8.58059317397963 5.706355360366423 0.018795278329632143 -0.5321527912555674 -0.9377923945775332
Ni 7.154479322733088 6.812386390473653 8.849399228320074 -2.01880860497513 -1.0367464419459436 -0.04809248463185266
Ni 7.251101691274181 3.871907137346714 2.2394388568941874 1.5404594898035793 1.2592898187329409 -2.475037491208873
Ni 3.6998280867712023 5.153156274744669 4.516559244310708 0.6447683952714701 1.0811265107232153 -0.649698485583236
Ni 5.945079705705578 2.2583310219144335 7.959671234359241 0.04729827086533144 0.09509584996458462 -1.3971107183698777
Ni 7.465135795198352 8.908964206270513 12.36287657069563 -1.0467320924037458 -0.8270184717560595 1.3373621375563356
Ni 0.412410556238743 8.90498072494185 0.3017248464723566 -1.1957668584786312 -0.33717575412261286 1.2209163611610652
Ni 3.213265117384683 0.1280312927500434 11.759488373891246 0.441424217120743 -0.9964922224115872 -1.4438813988665133
Ni 4.651375305259248 1.724498631231569 5.4840679236986265 0.813309092589767 -1.7266886055405746 0.28657798657040323
Ni 8.618261854562192 3.7249497190213186 6.949402544681364 0.18241514130754388 1.7517607180178543 1.5510544917106062
Ni 8.255636554256169 6.630954419451349 -0.12807076042219376 2.1117444711739175 0.38563282118273584 0.09946466845624159
Ni 1.2528691275633326 5.504519520695231 11.267223702658262 -0.9543934934693241 0.0814494628257436 -0.28208241269289486
Ni 3.0991209381145177 8.907835247276445 1.2490012956925987 -1.4606874146802586 2.5691979738433814 0.45314484799178084
Ni 2.6516676782704707 7.104777591408872 3.108075510428443 0.4854533303164994 0.6039117662664244 -0.676777344077899
Ni 6.951844951090482 2.73959798041008 12.901998547299481 0.5144908551994299 -0.39492350245604246 -1.23252360638269
P 6.3776729280586 5.029402176232313 10.07921372823056 -0.3246650232501118 -0.2559666894424495 -0.3408192644124711
P 0.7245833215968529 3.088877700412242 5.313620815473889 -1.0155613232278962 0.5656601789843937 -0.9307663409686873
P 3.564802755374981 1.7410842320631217 7.741145158632656 -0.17946222932680705 -0.101722868362799 -0.5190705041503125
P 6.89548878667115 0.5937388098900466 3.628013444808704 -0.06703225895914908 -0.05747084052295909 1.7646118629489094
P 2.5852610252454107 5.758094724997006 8.755376219023859 -0.8133815976989153 -2.345551336689877 -0.39257557104915614
P 4.013724579764157 7.054598576607489 11.897143353676089 -0.4935479343991758 0.2516454363592763 -0.571331518337558
P 4.596707990066815 1.348592000320534 2.1219068827889767 -0.49267401643465475 0.03993745962488606 -1.0460985725848049
P 8.776490505771454 5.12383087648412 3.3199251245917347 -0.2688648855613563 0.7693910510505781 -1.7450213424114913
Ni 8.808780568707482 1.3550169702054742 11.462657518765532 1.1742636942995324 1.606049616999563 0.533541701183294
Ni 5.811339368286346 2.5340631937908444 3.474721924029598 -0.03877917765072676 -1.8689737115964522 1.3979424702425536
Ni 7.639509477875627 4.482729024307976 4.934145572718191 0.11471825218120243 -0.21118244324822338 0.32313084599377256
Ni 3.573742642043455 5.956341760061039 6.930797667600259 0.7706192670307244 0.43126938807492826 -1.0065182391890215
Ni -0.030287308037607947 7.177563321676837 2.096061064647544 -0.09397921986163814 -0.3449656824806769 1.8324023402303216
Ni 5.810788656581923 5.900150809153033 5.809593612183324 0.2954287520928138 0.5328073941204308 -0.5010763815657371
Ni 7.273956227007754 7.052469158017052 3.57928922675984 -0.3680860705482242 -0.13767640363927258 0.33425189560759855
Ni 4.848741201596203 5.236781847061368 13.046611769469715 1.0342095344567028 -0.7198070694748635 -1.4699153610364297
Ni 0.919752796085999 8.996059262325081 4.4397854434498765 0.4407289908259313 -1.3411226330400323 1.5816624464044504
Ni 5.070017164433542 3.405481859285279 11.06639015828912 0.5795161110308794 0.16201703726716613 0.6279914329234474
Ni 2.388666125294648 7.304676761586175 9.999592747857859 -0.4692780061082176 2.098010152306961 1.5287527428896124
Ni 3.696597244771918 3.543306641845653 6.255847238364568 -0.2035105285252624 0.7182155566180276 0.6532586921306685
Ni 8.144144969695644 4.655092609264106 11.531652516801381 -0.20203034443531012 0.2701722915188702 -0.5443799294493785
Ni 8.726072849231489 0.30220763706656784 2.6077502555483822 -0.18083545552524985 -0.06877700956439768 -0.7889021245003123
Ni 0.9583485080376754 3.4363217147329923 12.194135750901767 -0.19593760127401094 -0.9485275216068502 -1.0872447078058114
Ni 5.199994305205882 3.3117599057208165 1.1328497722598097 -0.96904903859897 0.7534273286324702 0.6274818402768806
Ni 9.24874414937137 6.424969884940166 5.160234755852191 -2.4595825901063835 0.4930082598456219 -1.0999634409240604
Ni 1.4243699308491997 7.587669149432568 12.27061400314789 1.010562327351408 -0.29838809183145387 0.10092351238995521
Ni 1.6209464737431478 7.362813560516476 7.407169716896422 -0.43890633579489574 -1.340822071080478 -0.5792304614696605
Ni 1.7701067388862373 4.860397932673166 2.981570606952493 -2.010826358100602 1.1861589030752218 1.315499276044973
Ni 5.713578862222778 4.72214175927766 3.5252589014388556 -0.9733690061305623 2.2667321123981283 0.12795583391739898
Ni 7.594516331624233 0.11561366166813548 9.915443999421957 -1.0397273789511383 0.4945709763470515 0.42153519150629987
Ni 4.582389485751805 1.3463707964460263 9.691476892055668 -0.04555557714261187 1.1948140076470584 1.115926649121536
Ni 4.039268424320999 3.8110534940079237 8.57177811529749 -0.2169370863438135 -0.16384714849736942 1.4135616648370495
P 1.989528638985351 7.057875311248809 5.1271746143828105 2.5734369516253937 1.3454546847564828 0.9148730667771986
P 7.202372883961114 4.817791203807605 13.495902570700855 -1.3699529270081634 -0.5930113173038368 1.2113639415859394
P 6.066419851246877 3.3724483355482793 5.865625774549887 -1.1569344589924655 0.07604346131882388 0.5495550458924149
P 5.114064922259011 7.594681545135559 7.047751394415824 0.22556262322929538 -0.2216640595058376 2.3556424023772915
P 0.7706558627889182 8.972672371943899 10.512330126702784 0.24430493683380508 -0.40359171965400176 -0.5800593851288591
P 1.6050767981273455 0.9850763827590264 2.8085709499777534 1.1628335980857198 0.46855655456116074 -0.7807273019990038
P 7.273515657644214 7.937472045553932 1.2441467720181059 -0.17740431835651382 0.7943346083697933 -0.285725665872437
P 1.3996705109058083 6.3821061572792095 0.9211047933203586 2.496348851092139 0.7104857920739376 -1.9412469072395666
