# total energy = -381178.14637697657 ev
CRYSTAL
PRIMVEC
9.22511905252730 0.00000000000000 0.00000000000000

0.00000000000000 9.22511905252730 0.00000000000000

0.00000000000000 0.00000000000000 13.50189422269708

PRIMCOORD
 96 1
Ni 8.710412480139492 4.575197647044375 10.760820585278342 0.3810236045454986 -0.06975994230295729 0.7868683818997352
Ni 1.241193603027695 5.443973205891848 13.295909049763079 0.3700701908577885 -0.1810761107811462 -0.818049692598546
Ni 7.563444240085708 9.102277074657389 4.8017056779082505 0.7017018752337206 -0.2850031858841156 -1.042951542315391
Ni 1.7987321052848195 2.499601277654109 9.887557928667944 -0.3090540561857323 -0.6290887797526843 -0.10679256957622252
Ni 8.842673007744443 1.895189946997686 6.690674204816882 -0.01288148394835846 0.6689215954789061 -0.7398603885813129
Ni 6.374990640986136 4.39961596176119 11.812266410661119 0.3698619315017243 1.5808319800833548 -0.721695544746828
Ni 3.919485430985766 7.655012768857888 3.382332596155678 -1.5097301790405224 -0.2886304982240578 0.21289865460838175
Ni 3.7351398828843694 2.2860028779773973 0.5807525910947543 -0.5853154913214759 0.42387823781717965 -0.12094494981720459
Ni 6.875702411706224 1.7634921516368522 13.215491844543168 0.259958584210662 0.4674365820241047 -0.5130852331011551
Ni 5.802599697531832 8.544323442056244 6.637058737118814 4.050405619964179 1.114450835906958 1.5779317757174245
Ni 7.1425666470801525 6.42664208090105 10.173717422431949 0.4374374645588531 0.5126566302041687 0.8122176592978012
Ni 6.826975334436966 9.042775058681109 9.136947838478111 -0.27436807476777264 0.0444209493175364 -1.0447202041800394
Ni 8.943300603135027 3.2821681017266457 8.62754785091361 1.7394117095341979 -0.5035454119315199 0.6803925722329831
Ni 4.268757652207153 3.4490597251416673 10.263613437173662 0.6836391041947388 0.6272039040251456 0.0423290997855142
Ni 0.2820589284769563 3.3746775926119383 2.4982018271388227 -1.9814062530672714 -1.5422718604219696 -1.8101335015297921
Ni 2.379757759894752 -0.024741768503625392 12.903097958060815 0.9309530030581967 -0.30244246440648553 1.6779973109824586
Ni 8.997793379626792 5.51219295909256 1.5645044950459124 0.695120365361461 1.658231441209441 -0.47079649963527304
Ni 4.3369312798140855 1.1310733604371745 6.6816142156866025 -0.8001797542966607 1.4990971248067084 0.10412787825986583
Ni 2.8011150590756206 4.0940615783245455 8.559295809797252 -0.7687374766269793 1.4886263071823718 1.268289965349022
Ni 6.6285522551138945 1.7165639725250168 5.892280767006531 -0.5808715966175093 0.4059807887114686 1.5513470832503604
Ni 2.466584577626341 3.0852487167608045 2.7372255766189806 0.7253120584534928 -1.5081870029231186 0.9689878463437313
Ni 0.29445841059691263 7.9381962393112016 13.591005838577908 0.4141005896051256 0.6541485509347895 -0.08488985596586025
Ni 7.993427025303448 0.05487561892014006 11.20550544225754 0.2968297462053985 -1.1005254840751177 -1.1156741667910979
Ni 4.972541962103343 0.3734180470533744 4.662946976651565 1.2211109936703743 0.38704641370081083 -2.427086931471523
P 7.087077557762737 2.040633169304978 8.25647575155989 0.09477909005511419 -0.9785173831007212 -0.3648382530348878
Ni 0.24891030925097676 5.59420426483351 8.415703146312415 0.3153326901055924 0.20147267215962725 0.3386471964618168
P 6.13141983047114 8.25713627006282 11.29070218150494 -1.405899006085469 -0.8658287597550378 -0.11987202846800003
Ni 2.6075905178119916 5.961677645360511 6.94550888533297 -0.11961774636534885 0.5065898551847985 -0.18854542257499787
P 0.5458290590201179 9.43904925996438 5.525272332464834 -1.0062264189802155 -0.008675930507443122 0.3860405981441158
P 2.6288913170196238 5.944325196980452 3.1518411590129554 -0.13713132976907996 0.7658146465532295 -0.048830134128825586
P 0.11680476364112725 0.9554086490851855 12.536197457408566 1.1230393489069175 0.12465042369324983 1.5481504306899339
Ni 1.52939553808428 7.404523119275882 4.9161478886359635 -0.012849088048526257 -1.1377473445410533 -0.8679398925607698
Ni 5.906788188762237 7.964266424915693 2.2276097212755896 1.4425799064462703 -1.6254357348356587 -0.744709232033182
Ni 5.332838200238165 3.3441147741732697 7.658017390036721 -0.04948885075874703 -0.9466871259640018 0.5470654467013418
Ni 1.912302542290089 4.819045211122052 10.777670264686199 0.8921565990162894 0.16703094554198974 -0.585247871308334
Ni 5.393640957959044 5.429591245751225 8.777675588525206 -0.837848215381712 0.12120051747143643 0.49978183112402963
Ni 7.182769714618854 6.693921446618999 7.826007725095583 0.09013799173867702 0.6536063052780744 -0.3926899851398334
Ni 1.0027704087785534 4.8442666858009895 3.985705178440175 1.497120203585996 2.6115643546247345 0.8730345334748578
Ni 5.474194694936544 0.9190376958777308 1.851217495935277 0.1450097040758922 1.3384049769985529 -0.34974099238213313
Ni 1.827782004247503 1.6037684454952525 7.51852990439831 0.5103932880912887 1.8133543224599349 -1.6766919619074736
Ni 5.785680829733304 3.8350479190119837 5.018181392124964 0.7638690927910845 -0.22413488964383335 0.8357730780202379
Ni 4.47123978378287 6.3751659182425 13.475038715719828 1.3097040095194348 2.575552198196184 1.249384386693771
Ni 1.1982322249809452 1.3022731143112538 1.1609470625047698 -0.30777801768678603 0.10806500853074291 -1.2007985073652674
Ni 7.37234590505491 4.367475648015243 7.23019697265539 0.5931534993086559 0.5273427714614337 -1.8494338417913114
Ni 4.8977354741108385 0.4634764238851947 12.745814295830181 -0.1413440822988469 -1.4542321459732181 1.0625577465820928
Ni 1.3634633270198844 2.551713973506824 4.886794483266208 0.7795371383456445 -0.7803722326524303 0.7524060864568074
Ni 7.203221802900934 8.56286593075583 13.282312147228593 -1.382515337054206 -0.5364035961121213 0.26590657426398073
Ni 8.186610237173106 8.87340187832072 7.101793467202328 0.4981486663959808 -0.5271134290594471 -0.05927549783186566
Ni 9.271152098604954 0.8468898871107087 9.040638521177216 -0.5030507316832885 0.6619042836208084 0.1053892614707927
Ni 0.8704905084242153 4.104688915131472 6.606233925307473 0.15924718783151284 0.12354819176800656 0.34357137323631154
Ni 8.967774843194727 7.802651569429111 9.1687311401282 0.3488053679417412 -0.6949185337633 0.028610721758157178
Ni 5.419581991900951 5.455735232305764 3.266067501961777 -1.8259223889329328 1.1381898313951109 -0.8585180850262375
Ni 9.052120103980949 6.2496766278044635 6.017240535627974 -0.9160601451067643 -0.3547345889419826 0.40769365763751725
Ni 4.397226656003383 1.3134355080060287 8.916731338605835 -0.5450975243416936 0.3547525866641116 0.12531351119854547
Ni 1.0568296046887864 3.0363648124726943 12.067776369870147 0.7065550895609639 -0.09837786314996605 1.7424438114923024
Ni 4.909248422318342 3.096401885336823 2.944776910951127 -0.9078169312613655 -0.5549008835853605 -0.4400998418823646
P 7.251635226132487 5.5210398479795755 4.861964153622525 -0.15259702950484688 0.202488000798019 0.33642884865425926
Ni 2.6809025365660224 0.10912854232424929 5.249387775971277 0.18037934182443774 0.8223436919882094 0.3733879423771118
P 5.078031195078346 2.9106633443032686 12.291476274584692 -1.1791781008820144 -2.21606183973677 0.34378117525427243
Ni 3.7305457737438754 8.711095138927437 10.589453856754778 -0.01775732398342103 -0.2870328147196347 0.7215225095040735
P 3.5386909789750844 2.164092933616693 4.633957963472672 0.704168077386026 0.4477694426124805 -0.013836391662460043
P 4.174901293983483 7.740271316400955 5.991032895754017 -3.8552113246140967 -1.7763692605951535 -0.8279278709442063
P 7.488028894255306 2.467737717470843 1.6359438146924727 0.28020576449547224 2.3271538080192955 -0.9007530824360487
Ni 6.876698724531873 2.0369062213275493 3.5415332380638116 0.4990421247445277 -0.686954541721217 1.1572707592859617
Ni 3.3150187496168066 4.736775602055933 1.4887192219533947 0.39767278306640547 1.2689221996163826 -0.6309572004199908
Ni 3.7195678824242204 4.6220058996123825 12.547647674808527 -1.5610085175995245 -1.7763252947310957 -1.5174460596275414
Ni 7.281662987683307 4.52704252713799 2.6171126853919477 0.1133005458980694 -1.647117076463834 0.15890137445631988
Ni 7.978879013025217 6.397130926000567 12.779718452282278 -0.9112074450001533 -1.1163218276774258 0.16554073414970844
Ni 4.557033388213787 8.003943660685303 8.514010624335864 -0.3793495592771854 -0.9244928492551497 -0.31702833264046043
Ni 7.9162865822656725 0.4613251261912927 1.6959864226278554 0.7845639021362746 -1.448387257156667 0.5142980224623337
Ni 2.3963814238930867 7.330952797196682 1.267109729148961 -0.29344051801819143 -0.34475999422777404 0.22439611372502
Ni 0.3889642171810066 0.9862020954927551 3.3932016310740116 -0.09155107003611974 -0.183834904473206 1.0921290324813062
Ni 3.5196411087439183 4.574053732318629 4.568460542816859 -0.36514832807613884 0.08796643800865496 -0.15505731811988135
Ni 5.765819149051611 1.276571933457003 10.709877634483888 0.9446484982674183 0.9858961920632957 0.9586597249448459
Ni 3.3085058157750615 3.509502703231061 6.617331743170957 0.019169630949915372 -1.1176207489945076 -2.496020264108127
Ni 0.42081578470989073 6.563127712896254 11.141925001279226 -0.17259789810680598 1.3605884550741278 -0.40836111601818703
Ni 5.832018601244755 7.286127945161218 4.565787103401367 1.7467172420566757 -0.12133138662234588 0.9211079919433169
Ni 4.812117146936287 6.423690042899126 10.890249923937072 -0.5103380093733211 0.3605095437525469 0.37253742145135843
Ni 5.109239771829936 5.722322714117012 6.4690139738592904 0.07041583071940131 0.069785396224254 -0.3302471453235796
Ni 2.5396659684114717 7.007926038836151 11.952511278549398 0.5378130748651383 -0.3411920743708576 0.16458916886971653
Ni 1.1230106066444197 8.947451906575232 11.01313035079091 0.5880645148215228 -0.20964183823398086 -1.532484956238535
Ni 8.301029385103927 2.312801847963614 11.164837428733534 -0.9198453231808094 0.5081451154870603 -0.7857586937753241
Ni 5.526630269945719 4.2317833762330554 0.7443204042219842 0.6470715894833501 -0.8679488914218342 -0.08853850846204106
Ni 1.5600506077105096 8.37461815742064 7.349998977380346 -0.21698799418640694 -0.8061519127196954 0.061172971964894636
Ni 3.1641142570059544 0.6204667273393878 2.873878183263669 -0.6797839921147066 0.6690385806727445 -0.8061172028270182
Ni 6.936477494070834 3.764669488022365 9.58915301226721 -1.758205188091617 -0.16652443821921642 0.08310833858540526
Ni 3.2360148325903157 1.588556224666588 11.540730575149146 0.07931081921618599 1.7702513206228736 -0.42180618577949935
Ni 8.064903245425034 4.044458114773467 -0.10106763355524562 0.46463227980609006 -0.7670487760706468 0.31356351402031163
P 2.468798606127784 0.3662252219593115 8.990357933909445 -0.16858646295456772 -1.5579429913003233 1.55954376012854
Ni 8.480513295620906 3.6894663199233517 4.589982744874637 -2.174784064033906 -0.9655824202066081 2.075430210123916
P 6.602131514996675 6.069989764674853 1.104591734536165 0.5559540074402232 0.8735384696944697 -0.23343868354326247
Ni 8.486555748406094 6.944577148338612 3.4391750103946 -0.2317571820757815 0.4517297128118091 0.511535629225848
P 1.6455766836975012 3.506144760003872 0.6878562198520588 0.06463804769535965 -0.20452148628828004 -0.044343302002065564
P 0.5628530931724632 8.417192080479637 2.2322139780467154 -0.1979525748215107 -0.9762357861553961 -0.10856225988213562
P 4.0909619384225255 8.676851498105119 1.1148998822341336 -0.24029992943947004 -0.011714203113134664 -0.42140586501728716
Ni 2.352783512652172 6.891818694172978 9.386246525228717 -0.22549577454710196 0.18762471053294139 -0.10005833617618252
