# total energy = -340888.0800400069 ev
CRYSTAL
PRIMVEC
9.11136782696020 0.00000000000000 0.00000000000000

0.00000000000000 9.11136782696020 0.00000000000000

0.00000000000000 0.00000000000000 13.33540780593494

PRIMCOORD
 96 1
Ni 6.878663627730133 2.1852886954729036 11.502429531645062 0.17571844601365866 0.09358018465100658 0.8470229399024445
Ni 4.683407095794694 0.6299071294042029 5.967461237715467 -0.38849651588377604 -0.3668506554792263 0.6153891707784047
Ni 2.7010467857821037 1.838400697482375 4.445864623751958 0.6674396116167408 -0.576500464133007 1.3631276765562137
Ni 3.6334768406874605 4.867766513512186 4.669619773916168 -0.9549982169328586 0.4192507663474973 0.11448582445542217
Ni 3.99563549124765 3.137627089199686 2.5659188221395812 -0.28693228458602843 0.7780147881638472 -1.0292231369857048
Ni 5.32099328604956 5.220868464398007 2.648585351793087 0.9514678351820969 -1.6091735073405256 -2.0086928566973663
Ni 5.7232055098175225 3.105646187935062 0.4301485888299186 0.8393952481538576 -0.5331812325200818 -0.6531872154627847
Ni 5.855821469335072 8.310642649483219 12.297566761899214 0.9164288413000926 -0.39030194452363104 1.256666779287797
Ni 2.363087928315601 6.838619165890241 13.573311336311912 0.3902422949302892 -0.6047332337264554 -1.3717334159473538
Ni 1.0006286434995757 -0.1026951385309689 -0.022026731853911095 -0.08937951630609768 1.2705083131565795 -0.1623800770335397
Ni 8.429737339064387 0.1837088660507416 6.027404015872114 -0.9896394611558118 -0.8869310889512918 -0.5809258468942124
Ni 8.862527313443197 2.6230990335545097 1.4998332006413777 1.1670424939607449 0.0011469691202496376 0.2938745202318165
Ni 6.58089501398963 1.0031980492422035 4.604022480852162 1.82909178779985 0.4848874305107004 0.653018036874772
Ni 0.9360472679543754 7.777436289680641 1.9324473256200732 0.8608253930031756 -0.11708572397211449 2.0448029721563623
Ni 7.889004989391558 3.6677811407619076 3.829289247832198 0.35435020901937037 0.5108087783621525 -0.5641265159486865
Ni 8.193725576825768 4.164396247151742 12.746289785292683 -0.6901311396769857 -1.1259660356354093 0.23459850817931854
Ni 8.492751559333941 7.419906214004334 8.796848929205046 -0.19347885532087322 -0.24614173293222766 0.8652998838347614
Ni 7.336828761659366 0.9239564827754136 0.5351643927603461 0.0426160348983137 0.640069447133904 -2.08566011538204
Ni 2.0755058238667923 6.636401467124697 9.191350202334759 -0.05867720212623443 0.19683980137330614 -0.38051478322988014
Ni 0.4841862894624629 5.295089667162002 1.1897050163694027 0.5915355040892587 -0.8678709869960474 0.8900552364025703
Ni 6.415897253020663 2.5244684762355485 6.692347999328449 -0.9787148438235082 -0.9547840440395234 0.656816841795572
Ni 3.8249431253526467 4.252822072443244 0.17705938977070673 -0.3319031928697639 2.286346029974314 -0.5568322962801184
Ni 6.027370303810952 6.039579536772375 4.604622919995564 1.0405066803193241 1.037573308722613 1.4401751536595195
Ni 5.755441529382834 2.8849506351055134 9.485755810190144 -0.9153695467976429 -0.14776412689257779 -1.203646518337024
P 0.6627545217543724 5.808661029179604 12.302127001523985 0.16329898930338327 -0.7937969906987684 0.883422304467085
P 4.483795248243305 6.263382066049569 12.515293831072919 -1.9174477479374397 0.5314945888462781 0.641162937308399
P 2.8369610604728144 8.811713214767183 1.2632392219951214 -0.6643689431112171 0.5547594729114897 -0.8986514627120136
P 6.447796151974352 7.977239475957545 5.861191709564522 -0.08869431731361499 0.5771866915667543 -0.24546707546270627
P 5.069300859686606 1.4235692291983137 12.448856469890224 0.15099703200757866 0.8828589757644473 -0.11667254769409582
P 4.203784690504155 6.0845259145326 8.405133912373541 0.3069827754790003 0.9085746353629964 -0.15082528231640477
P 4.757345846154358 1.60465766584629 3.665756594818603 0.47931559284987774 -2.5070693228334373 0.2677472270171453
P 0.31784369059416373 6.163211687558609 3.2816441033475554 2.0701108547935316 -1.0002514323437033 0.804575312261195
Ni 1.0109609346773771 8.850163187227785 4.239139531295357 -0.860602478359092 0.45103782895110706 -0.04640198430330718
Ni 2.080717526295101 6.699752808005874 5.029088748677692 -0.9337583337174759 0.2517765626205019 -2.2816283127836705
Ni 6.359024094703346 5.683780620993584 9.147836131605532 -0.45911494953228676 -0.1613781181315866 0.6679492042633077
Ni 8.763878533388473 2.3789599311654515 9.842384771582953 0.9485295784893795 1.6881701377504021 0.3046014197310173
Ni 2.5379533007004045 5.591364016569915 7.011543816916252 0.016846382133377438 -1.2419397574902677 -0.0026793466043760305
Ni 0.6962807110117256 9.325667254235816 9.482408293630423 0.06419761772383137 0.3475061895143435 -1.1679781184011369
Ni 1.8252347708933776 1.3573751415380597 11.617633667140762 -1.4254913263950997 0.7167232883432173 -1.5120796531093055
Ni 4.492068370279851 7.255746698880481 1.357038020926438 0.8367452121255202 0.43548111216343066 -0.4872595302873028
Ni 6.0332380247267405 7.859511491558626 8.18987420162219 -1.3078430450512961 0.9268670059142812 -0.41603457340304484
Ni 5.37403966985658 3.4975261205252237 4.519383340052277 1.5522261434212041 -0.763468514918556 0.5881226217529677
Ni 0.9680828374262891 7.8917292883881744 6.8501186232936835 -0.0009420521982951518 -0.7872221656947281 0.37367230638675
Ni 5.0609366239712426 4.9266532841313495 6.6801323884095085 0.30622944225274357 -0.6460819718765712 0.9217070589798964
Ni 0.8415049814039152 7.562754239652986 11.223425780056836 -0.431852771382224 0.09657217739979497 0.030531850040269995
Ni 4.780871398024803 0.4810446898168668 10.334701134606222 -0.026483905223141483 0.5156632782409764 -0.4531502473084196
Ni 8.275855446911043 7.234653882234439 4.60942369973241 -0.7332068878205373 0.8599275637792545 0.8843931530207865
Ni 7.383296737855828 6.171393695916338 6.95020153265298 0.048795167125832095 1.1794066719530527 -0.6646080557052166
Ni 2.997348469293661 5.523876114670465 2.2596310794297256 -1.3971989072083097 0.2907395741472606 -0.011511857294341465
Ni 2.6632892772805086 5.449490907284599 11.128891693737469 -0.10722245802478954 -0.31245845388159094 1.5099762336130576
Ni 1.3805362386932374 4.021402439616982 3.600986613958252 -0.49949541023186234 0.21762048556408328 0.0663372897746535
Ni 1.8510563874699997 1.3954333251797502 2.385931038731709 -1.1690425551099093 0.42568109535387333 -1.0171116984341515
Ni 1.0959699970132575 3.4961047471356848 7.876185294782062 1.0266517767141028 0.2637933845757199 -0.1151118880751953
Ni 3.6823593293725625 2.73210743889068 6.988793642452536 0.9352840263333828 0.32402584700421616 -0.2936678035376491
Ni 4.195730241296768 7.148095887358678 6.031338304523414 1.0717949489096446 0.7674408693027428 0.23895549959643367
Ni 8.514746401400267 7.252366381396385 13.703465404227838 -0.9363852298173616 0.9125117656338736 -2.270323429293813
P 0.4502528220607996 5.806474300888007 7.67114033856284 -0.4195001633541421 -0.022455757900354877 1.1691094037921026
P 8.694267682772598 1.4297467366220786 7.670499809400759 -0.1422683938853292 0.7546596583776745 2.510924177803153
P 1.810437909453563 3.224531316054951 10.141737852198078 -0.7381025253499417 0.3623545673810856 0.0973386232521743
P 4.180641816084741 6.748434846597578 3.609267936225892 -0.20404223265901636 0.7470697618455586 0.8533349981634014
P 7.160733354610539 4.154027510502414 10.54602746784306 1.6749667516862505 0.26895204595852396 -0.36498352036350046
P 6.732289502711279 7.884886651109047 10.359625281446501 0.703154548519847 -0.339333423895564 -0.6373708172558185
P 2.692819220584966 8.824560243480324 5.617473552371598 -0.5279022435093295 -0.04278907014106824 1.3736964532109954
P 7.437554933591108 4.223784143004396 1.666232289990543 -1.2473287897163228 0.6751935445305468 -0.40587794458501714
Ni 3.1177460844819054 1.9859957457973723 0.2875593260291049 -0.48192320567605385 -0.3784321896692386 0.5189373210065579
Ni 1.660965919354944 1.220057716193574 7.037841958033083 0.00015709440315456814 -0.3210441386680729 -1.1539195834255418
Ni 7.219292115985962 0.7762366087204376 9.45037727984245 -0.8874900467785554 -1.2130431290605752 -1.4835072407882515
Ni 2.9121754023359108 1.6885824754042529 8.988345281384241 0.42847717004177177 -0.48755212182705704 1.065575964583126
Ni 6.575182186327829 2.266416315091197 2.4208694900107193 -0.4602920005595234 -0.43274520128950633 0.9822755645915727
Ni 4.507475693367737 7.145125581429256 10.538959779777258 -0.1946430508323035 -0.20293383008618598 -1.267877303291636
Ni 7.671489303952708 6.101819290771989 11.59633766699096 -0.9759331673133129 1.4079132083020205 -1.2630377158111472
Ni 7.878599807270703 4.01968950245523 7.953770414567968 -0.08219662540441328 -0.07060223569859453 0.8552766952708044
Ni 3.5647862382276316 9.04436288225747 12.461791878871816 -1.0074284097081165 -1.9175259094735424 -0.2891791716386762
Ni 0.35313657408377064 5.1211718770368915 10.122841786348307 -0.5140704798325598 -1.2358971508406134 -0.6064093358772976
Ni 8.716380972621383 2.5089882622046096 5.803569596807333 0.6843320164967053 1.2210973668236198 0.1505496600575149
Ni 3.61793284708135 2.968474544476683 11.360754139042779 0.2297553211544043 -1.0364492224204989 0.19769495028474984
Ni 1.4916584813779528 3.7594323902835174 12.723152377694 -0.09927003594693225 -0.46701929198102793 -0.4794662594951291
Ni 3.0543036299219124 8.454374477816392 8.019514400654867 1.446216217647277 0.46140425978709565 0.0811373309019635
Ni 5.711378954307129 8.535164976823065 3.200604863997714 -0.17140953422565963 -1.373535245042783 0.48419580376031446
Ni 3.222572371960394 8.7347039334314 3.399342020232464 1.2573401512057378 -0.4043630506023875 0.05451921409380288
Ni 3.585824386666383 4.112142552350426 9.191322868231115 0.11333242757726933 0.5909613767533436 -0.9465423728560215
Ni 5.1360234066839965 4.6425152767418085 11.241921856856605 1.0711886827842132 0.49111104282290907 -0.09640197037051784
Ni 8.079487246325524 9.184441052070097 2.526366374165298 0.6439348436265814 -0.6081492013865397 1.175624579202801
Ni 4.9438828807955675 0.68190661704162 1.260717195365478 -0.2143094189129793 0.09447544277176632 -0.016739424241867945
Ni 6.178190776356056 5.552267136989714 0.22088142473433478 0.6313971161708868 0.469852647664765 0.5705347334678755
Ni 8.332555489238608 0.1970734204595593 11.561238855637232 0.07025307988929191 -0.3135480874013439 0.017264957728034783
Ni 0.006006213707589738 5.015425341402355 5.625021409524764 1.712550880587612 0.10791434188549157 -0.3144047789746844
Ni 7.553387753470642 6.399269006636636 2.251937440390453 -1.3475593898043114 -0.5594720478958106 1.1518480456084936
P -0.2569423965363655 1.556458529752313 3.8754966389072445 -0.10650589157373916 0.38180547701684564 -0.5325186592354183
P 2.1800041021015413 3.66043737824929 1.5064881437421414 -1.257400315019712 -1.2624777295426193 -0.2062688079966899
P 5.236594685361751 1.0749591826781515 8.15573572844319 -0.41616904209838007 0.16519903453957355 0.17079195524631877
P 8.93068945656589 2.0485179522013177 12.660636549247569 0.5134284753731867 -0.9272184757164289 -0.3183313677226002
P 6.6107165210663 8.157252771195486 1.209058472886835 -0.3049642023870748 -0.968267680348255 -0.311087027455361
P 2.211538546339964 3.4941275803053653 5.675882887313761 -1.5296564856508044 1.1145799052856546 1.0472391139471515
P 7.0826489318647186 4.379770761138402 5.807610488462849 -0.7751315530787812 -0.8920907787753605 -0.23573390733534244
P 2.4959225606623106 8.546116841016818 10.360612042588084 1.9572180858568424 0.958508286968646 -0.30861516887610074
