# total energy = -381181.11985877086 ev
CRYSTAL
PRIMVEC
9.10788349423405 0.00000000000000 0.00000000000000

0.00000000000000 9.10788349423405 0.00000000000000

0.00000000000000 0.00000000000000 13.33030813279207

PRIMCOORD
 96 1
Ni 2.490259222378008 3.482080384625182 5.433286804502225 -1.4227692994782464 0.6713052652197342 -0.2522712428687333
Ni 8.744606218442966 0.1877790505365845 0.005923767265632315 2.735585886484734 0.5616250896830715 0.055473350476956076
Ni 6.507500610991541 2.4918986413629614 10.10821208573294 0.6690383235624284 0.5379840532253637 1.2755713295017839
Ni 0.7798606816825244 8.854438182551606 10.878650662193605 0.45490271122315207 -0.45732417618045107 0.4683269550488579
Ni 0.05791611879678556 0.11924496144724951 7.641038615028054 1.6771501324908147 0.3496872563260623 -1.0109973580062974
Ni 1.0605856807827279 4.77830522084524 9.121156168002031 0.9620039588267303 0.690583653833372 0.26410320250665487
Ni 5.945944961345438 0.018639283070597375 10.03247001783976 0.49984405182053276 1.1770471705819405 -0.5738272881762182
Ni 8.816239720202187 3.7002506199895064 10.847311346719568 -0.5053534116745362 0.4105038733928027 0.03534649782009396
Ni 8.23047531687827 4.493110072646063 3.7741164639332405 -0.22095623480553558 -1.0794221264375992 -0.31487889039762545
Ni 3.1439320032120044 1.4178606170203645 4.133568184267565 1.6659200681029502 1.3147937653375164 -0.617341152298453
Ni 3.583396477895314 1.9221914362083383 6.749041674774704 1.030223296115445 -0.3194685666508369 -0.34019114391016897
Ni 0.66996951633276 1.969716371005493 11.983266582970561 -0.0012104753683333993 -1.5284053868525225 -0.030774305068379252
Ni 5.555526437961989 3.3178470338658315 6.7769819282199375 0.3351378977569776 1.9673713722407602 0.08673642225629578
Ni 1.1985427883665725 7.508657353569701 6.204191704585277 0.11930304333840745 0.03414399287156055 1.1219106346191132
Ni 2.750453231056642 7.250567265921757 11.214614973203496 -0.6283143634805051 -0.15413557763656036 0.12795197726265703
Ni 3.0901863841552757 0.8833572022026447 11.358928472507337 -1.1946556276923233 -0.42757959792816685 1.0524502258344455
Ni 5.270777576042049 1.5361538046680159 11.910510079206649 0.20170021478940103 -0.5078206422681061 -0.931195458086306
Ni 6.401457526314793 4.445767295513903 11.372991955033264 -0.805149182486794 0.6278942452239509 0.8505134695542061
Ni 6.1465825214540075 6.901352806360142 6.803429399600539 -0.2686705101623631 1.448133489274648 0.1788827026742532
Ni 4.192185610074581 0.8002723588335215 0.5839036627759964 -0.7779417688340666 -0.2738597676727864 0.6751194967595018
Ni 5.133366941453189 8.931062804331686 7.613752307600151 0.29483816969666643 0.37770045370953664 0.7287897325894481
Ni 0.29813836108538555 5.263737182289999 1.7780100012116196 -0.39828187740531407 1.746193765453038 -0.4314599068191795
Ni 7.296516536916706 7.800528580190939 11.358008576299111 0.21568367355268664 -1.119551390358317 2.0183648325694916
Ni 7.301871972267555 2.6348013295514163 12.737215336807571 1.5287735688252186 -0.4521768276515567 -0.517464078895141
P 7.1623665245312536 5.1544699069428415 6.884837481663385 0.3290528679051623 -2.819661474079415 0.750273870605153
Ni 6.671606451385395 6.10376636229697 2.7237817057480975 -0.7196044665457543 -0.8436378254802955 1.4100986459891134
P 1.8743295097309431 0.7099203354194292 9.127821316964193 -0.16060267341814274 0.5075900143145388 0.2578340816684914
Ni 8.5296328500993 8.866770256471757 4.911832254016409 -0.10375583963242777 -0.28931903965065014 1.0172713639404674
P 8.69605209283859 6.907491519670469 3.2256415562104164 0.38674867995473394 0.4351795217626118 -0.05141332147496952
P 4.420465595846119 3.198806999791701 4.898448219580914 1.8352079279999167 -0.5766552445433166 -0.3555987367144908
P 2.1314177302214157 5.670203795959493 6.837861752226189 -0.5395490837196385 0.4350597083552959 0.8321647918436894
Ni 6.830730279641641 1.768067835856201 8.048453359343846 -1.0269176287809798 -1.2315920957073565 -0.4898576300317821
Ni 7.840330029992312 1.905806354242052 3.866576051531323 -1.3077183465479736 1.0786135144933746 1.2203167799038532
Ni 3.4483721087178867 5.301753486974422 9.942996905159266 0.11138867358733719 -0.05060033865537092 -0.8842250028740384
Ni 5.989717448243699 3.4892118572097304 3.4489367974793703 -0.48970413517305345 0.193560359291086 -0.59971212636278
Ni 2.829855757227895 2.9444238206264015 12.776713494096727 1.1747578603271316 0.01667848909694547 0.0626176748312212
Ni 1.5925042783341707 0.9665285704626404 5.621937479465809 -1.3808382064620994 -0.35339118754021076 1.3592900479776784
Ni 1.9063983666532853 4.90053301405678 11.696211605011788 -1.266679940549425 0.9571785124136291 0.05217822466545208
Ni 1.3709003709846939 3.3717474869378052 2.472945136320248 1.2167969396760527 0.5303260224594738 1.4875562140466447
Ni 2.1433217336288286 2.8427707356760292 10.336907390980667 0.4663202090314743 0.2068989853815211 -1.2396440194775553
Ni 8.861779136450899 6.40296943493425 7.736804364245793 -0.8393350843398834 -0.7934989998423753 -0.558476773862077
Ni 8.199590484778392 2.016667509157914 6.292184786237686 0.8767196956359288 0.16062452779501368 -0.6894374560440707
Ni 1.0600574235542428 8.261469443577141 1.921497415504708 -0.5331280106846432 -0.1552563215045649 -1.6896737188791222
Ni 3.374525391328977 6.308939648263912 5.190822201357538 -1.3570359618361791 -0.3421133006335463 0.1730612108964697
Ni 8.672499106754756 2.3008152507833706 1.5527010069561475 -0.6078180432993661 -0.35759468409859707 -0.3790307424851859
Ni 7.9948179456744395 9.266269339455198 2.556126523251818 -0.8821532079466743 -1.9741313166724128 -0.987042389852597
Ni 8.5685235115757 1.4052370908362217 9.613551106191217 0.9272228465918031 0.376321571084139 0.6148163289940702
Ni 5.36580012198661 7.58961732777666 1.3246833282222021 -0.9565259664312944 -0.6983427289535006 0.7830173835847611
Ni 5.132073622031726 3.0653218628834793 0.2034965246606646 0.2919297378006198 -0.20370696080678463 0.04247153890064944
Ni 4.86839129406844 5.055521863317642 1.2521089821232814 -0.7048193378167797 1.2687260244451763 0.9227164740810174
Ni 5.291780354815955 6.854893493903208 9.719740827788288 0.712369896470528 -0.20448137707896397 0.26978945425815476
Ni 4.237242308511055 5.252470730710067 12.307019954907524 0.36045426503457917 -0.05435620615337736 -0.5939050327626997
Ni 1.5305888880024234 7.838271648377871 4.074128316603098 -0.31052729829714903 -0.35485105991518884 0.0994546411539126
Ni 3.9519469735961317 6.6343643167772 7.6279888399078235 -0.4644409897308905 -0.0040739129590575 0.6484754118094121
Ni 3.805146111376787 2.6464047728115876 2.044615959698073 0.28683612532779634 0.6169336324473891 0.6764433577772478
Ni 2.9552804174600946 8.936527534281533 7.283267299153307 -2.2501346130507636 -0.7201994198172758 0.5070490542094042
P 7.183287332355912 8.849774946327738 7.155842547759463 0.22889425870568966 0.07674382981995816 -1.1702244912331523
Ni 3.1796349055509934 7.039656013507478 0.21985155061222664 -0.3816447830692653 -0.3485806535254448 0.14567613401529747
P 2.579461830925983 4.758413603827803 0.861266031380395 -0.10492080647480641 -0.4406695983429056 -0.43899786706743754
Ni 1.9151419345730376 1.5290678714997166 1.3402423251777367 -0.014604894397368397 -1.9926730842303426 -1.8842396366165872
P 2.1439592854563108 8.893137578479761 13.184273964544516 -0.32531654079118166 0.737433267197059 -0.5156159699428088
P 0.4528676356736306 6.494357935462164 10.649822381850433 0.2637982696717263 -0.027133108771366175 0.31889263954270886
P 0.4373778586307941 2.8845759197923457 4.719768855199146 0.4459874110113932 0.18437457902675988 -0.4488649896695044
Ni 5.749888666511487 1.3336855600262472 5.754987259554693 0.5177571846555277 -1.1164262144657742 -1.5385887551434276
Ni 3.1520471271875246 4.082754392828929 7.782687147693019 0.9646699356946677 0.18144866362921655 0.5197091661755759
Ni 1.6631268050526715 7.3301519497580045 8.801429391249782 0.11588810411958753 0.11130202741080186 0.6163350796314417
Ni 2.759123935910397 6.4207480230377465 2.298891665841025 -1.4559303596112474 -0.554248337603026 0.7905067499832708
Ni 5.5254339917048405 4.399763377219455 8.826449657325147 0.489037448123332 0.9073911565778566 0.3138666470830272
Ni 0.7053727693128329 3.7074367398735526 0.059285944437546784 -0.6182618643405094 0.4904746947904907 0.5299287870210551
Ni 6.658946493668254 0.08621795520703442 0.3866979530759287 -2.2582749827697106 1.7715016480902073 0.008360713259869472
Ni 4.38617441541084 2.132146360881395 9.052971821629487 -0.3115146019110828 -1.1449793435131184 -0.47021260210734506
Ni 8.186721045746507 7.991120145075044 9.326803063897959 -0.2873117794126342 0.3940801806191407 -0.8256730134717587
Ni 7.582449423659113 5.735944497256131 9.841446739289617 0.6158527406783846 0.04753429813553749 -0.16018949714012412
Ni 3.727437651489987 8.65932910757563 9.637932909650777 -0.2805916870799813 -0.37815322497623904 -1.1007609971246912
Ni 6.207878575724773 8.198379136306176 4.5547531372686425 1.4707733381613508 -0.24668680680242033 0.4619398205755915
Ni 3.634956204972105 4.693091865160652 3.325098730509276 1.2528085818839714 -1.5796371884443052 1.2945278159996285
Ni 0.6871442517767989 7.149888724479107 13.075258977563376 1.262031128923504 -0.13554110246382464 -1.2382003450524934
Ni 3.2863064341719737 -0.5734523667469171 2.8069230179933693 0.7799744829933792 1.1397409779323144 -1.2236795257284991
Ni 8.33251093292513 5.410629123341841 12.615643311190011 -0.766005679518113 0.3144299757856649 -0.5621508802795544
Ni 0.9472289658564366 1.0753859910635588 3.389537004501202 -0.11947402169863297 0.17045256962902902 -0.009886920096408779
Ni 3.9910380085040247 8.531336024267002 5.100935590777508 -0.5099171197858186 0.69416674319894 0.893355761530713
Ni 8.13894109021836 6.26942965072653 5.284693510859331 0.1853873365619904 0.989703738734844 -0.1856387904511642
Ni 5.477125778948208 5.322528568667084 5.060811721909093 1.37846790645771 -0.5318866820783743 0.05408469765954556
Ni 8.191083721823134 3.812068102646591 8.474236882597719 -1.3049891205422688 -0.503961673533332 -1.0037249927146004
Ni 1.4672708836502157 2.4599026475066172 7.710236668806295 -1.0550557817780926 -1.1150828130640023 0.8919689084855154
Ni 4.710879561147398 8.255786124429303 12.406797726696773 1.2376496147553457 -0.48869343452035185 -2.1377686631518213
Ni 9.63777989721218 4.305724482665867 6.41289156294652 -1.5530861774286542 0.40067634577941963 0.579285483077312
Ni 7.870131023985469 7.258154132668792 1.140664011891111 0.11841395586523476 -0.367398043342264 -0.7665013882076089
P 6.230775794214625 6.513530029702871 12.760956856074673 -0.5843083902132001 -0.9416917296319396 0.8365729482137141
Ni 5.215428969533367 0.6585637141391079 3.077381611094463 1.3122707418053465 1.1360175063341402 -0.6386234587159969
P 4.733713024454502 6.945817492385383 3.623684288662224 0.0656952853152804 -0.08349117584612072 -1.42558362899859
Ni 1.4187622974620888 5.193679344332981 4.056332423521427 -0.7334462575248529 1.0632714848196656 0.6761703066215193
P 4.427241860983927 3.484721670767607 10.68628123849915 -0.08760108424943623 0.3274395006714554 1.0518529585700787
P 6.546883098163426 2.0490915735269963 1.9215101665412575 -0.37559651999265636 -0.2682434499272735 -1.001508444679256
P 7.567958781408772 0.856216620906738 11.60274013158466 0.11090273508985417 0.0626636975778082 -1.2671985320570565
Ni 7.03251543303968 4.238544735815768 1.0036550349535645 1.07027439850006 0.7128789748964626 1.4427801953825345
