# total energy = -340889.1043645244 ev
CRYSTAL
PRIMVEC
9.08093379246597 0.00000000000000 0.00000000000000
0.00000000000000 9.08093379246597 0.00000000000000
0.00000000000000 0.00000000000000 13.29086452012860
PRIMCOORD
 96 1
Ni 6.645972241644441 1.883585459386185 11.277896879767468 0.3883273372957635 0.8577974048101291 0.03300190884731735
Ni 4.912957746293327 0.5458322309111624 5.882523604048953 -0.6215099389641618 -0.4934885419161501 0.4045818514814129
Ni 2.894738361764874 1.5629195235556321 4.648666247754235 0.7266454325529356 0.8957273470866831 0.876070234977388
Ni 3.617671504930662 4.09747172540934 4.267643885142481 -0.40202283250498505 1.5064695060113797 1.594322558370622
Ni 3.581838139989923 2.6566544382939448 2.4951073495239857 1.0661526630222027 0.2631845473471274 -0.8761514818372846
Ni 5.217359729612765 4.80960763823693 2.6079197906438023 -0.17092616683133788 -2.3349223962211205 -1.6509945571413693
Ni 5.040308762494269 4.520997398868821 11.333519415736808 0.43215024801798474 -0.673872254615962 -0.31529283800659247
Ni 5.707503133737541 7.891304265941977 12.305932146251916 -0.4415424878661622 0.3807050448638153 -0.14293276694220544
Ni 1.31628136040549 7.015629815552868 0.7565416793152243 0.9244781939671304 0.052656706963767376 -0.865395014651729
Ni 2.465891261073951 1.5482628963345595 0.23761716347144735 0.8001432446317703 1.059639287383717 0.12105242192934636
Ni 8.160526711557303 8.759232679763816 6.9509490480760805 0.1244820164361856 0.5330020266297402 0.7162882576883277
Ni 8.603149588886618 2.570730642280445 1.384376559006888 0.19874061794044484 -0.3954107265051061 -0.5738496567737215
Ni 7.12263045901377 0.665569792178928 4.990587017335496 0.1566244054966851 0.29140189032160785 -1.332408650205802
Ni 1.0059676891548766 8.007267791104985 2.9178102903773757 0.6345348904689201 -0.7137091841072418 -0.1391164785199088
Ni 7.605055069372802 3.927703667232172 3.6058118053329418 1.8101692398637341 1.5455104219639255 1.2483937406457273
Ni 7.736828500354824 3.9579976625292588 12.561448738419433 0.6192586810361399 -0.43985815818520374 -0.5072994796573134
Ni 8.18025049986224 7.096359317408712 9.107724413073184 0.6364688742668394 0.6548265508384207 -0.23584934986728415
Ni 6.984945340100572 0.714585948778174 0.08190275850823867 0.35104171347142765 -0.18380739366938023 1.1524707667941572
Ni 2.020044652230706 6.7347837746197134 8.686018558755652 0.6644352775727783 -0.05842009181010584 1.113796747262727
Ni 0.07522463976079335 5.019976551621913 1.250757882268161 -0.9952372669585634 -0.7102340810744477 -0.17661267569315392
Ni 6.568203124221106 2.204605551636578 7.041965431788203 0.08874368249431168 0.2968958235566435 -0.19086095808205195
Ni 3.4824564000225027 4.116514443676125 0.425962996102687 0.40582909362495273 0.2556393880100178 -1.020634109765113
Ni 5.909690125730837 5.771796145339271 4.725154953505841 2.000498236701716 -0.847083875047367 0.6123408708703841
Ni 5.5286268989167935 2.921599764069664 9.47429991803562 -0.5644196217090731 0.8158958794803367 -0.45399639735879876
P 0.4381477931319528 5.721505933721985 12.381649880720333 -0.21807454238236634 -0.02835489699360923 0.03392467777190287
P 3.964481449292484 6.100507788553882 12.409401214541644 0.4315491240988761 -0.14813873662317711 0.6371769560774575
P 2.5723652103720145 8.79943397388258 1.298915890619333 -0.8042151007082988 -0.4704512004807124 -0.2841606353781622
P 6.382897588240185 7.825422090917886 5.917664093737542 0.2619522176019231 0.4670367754825247 -1.9632370383574125
P 4.957336269979437 1.0481940315204201 12.394289632535086 -0.14115999131249884 -0.8450768719196673 -0.05268267510569636
P 4.135884075561222 6.520446493145752 7.773893239924545 0.7954430109426237 0.0922007878049767 0.9285731899721105
P 4.931809764949428 1.147911766039997 3.656648689167519 -0.04451736568608462 0.19911162812661837 1.15483618170254
P 0.1551650084657645 5.765239711105309 3.351384925226471 0.09953511668286084 0.4568212684021035 0.20306855589183737
Ni 0.6908674576761175 0.38645003676914874 4.893257568416379 -0.43418707594235545 0.13478339836219366 -0.6519713407778126
Ni 1.8925755838898168 6.420093093257231 4.522721868205426 0.8750433363747703 0.1638900859201629 -0.500080593311371
Ni 6.36411821705482 5.45901246008362 8.713012542694537 -1.2390403244552854 0.11907035850231107 0.9582588899620011
Ni 8.89442054187045 2.4801483272059732 10.180098247134836 -0.3610638735941201 0.6507773204697115 -0.7016378547650045
Ni 2.687656746430711 5.465904888869737 6.622611539335762 -2.6326360876933697 -1.3305772534240181 0.31937009339975964
Ni 0.8177054011149838 -0.23491286137328415 8.909026315862006 0.11803034727357092 0.832116197993941 0.14969219715322607
Ni 1.544176476105636 1.040048433864099 11.101407114360413 0.4921824215102168 -0.3870613260991463 0.42229186716666633
Ni 4.154182157252958 7.142445056657128 1.0946066843871496 -0.27190598638052527 -0.1781422249638029 0.5406523440861463
Ni 5.732602834876974 8.10440654041342 7.955406577933023 0.05910271969942725 -0.3424904814673069 0.8634880274370031
Ni 5.58493776967136 2.8662968769715653 4.861067474133072 -0.2678014772938484 0.1485241449870539 -0.03448954913643738
Ni 1.2274879892979018 7.7363835345965635 6.584785817510077 -0.9942916152158424 -1.107662609340531 0.7232322931063286
Ni 4.844469343256567 4.582720506193251 6.593199302714739 1.8531241461587054 0.834007501479383 -0.07407425340759502
Ni 0.7023221476244823 7.665061880201084 11.522980387043852 2.2491609362835847 -1.2317723300389625 -0.3350458522638036
Ni 4.585017982455289 0.17178130120995194 10.335933428518144 0.9075359096858371 0.6206794726430666 -0.7039644460156521
Ni 8.517561787425276 7.455927973818619 4.744891455118158 -0.8332891352561198 -0.5381946265742731 -0.30149321311933885
Ni 7.484714534097924 6.303412174320701 6.848157417450969 0.13313866366991908 -0.7637503078250331 -0.7259023837393239
Ni 2.3065299530797736 5.2988429489775 2.118683571809847 0.6234009853392877 0.445481160798936 1.5073783909788945
Ni 2.337613989621119 5.7874335134152854 10.99687466871778 -0.20927751291602667 -0.59133418671173 0.4468782982567787
Ni 1.2681978157118226 3.6774512924128926 3.827450157615914 -0.8499537403959943 -0.46050051702590367 -0.84195529557155
Ni 1.6520216464138497 1.344886302007955 2.720294530752432 -1.7167443498436692 -0.472066110376316 -1.1101560651863462
Ni 1.1669908080421492 3.373639569793189 8.130260867155126 1.8883513447921154 -0.6154393072900498 -0.21602665871440213
Ni 3.531275500357376 2.940978476888604 7.275764970672452 -0.5094486647898323 -0.45781140022951483 -0.15144080441321658
Ni 4.151603172041814 6.893572983781841 5.5533352118076325 -0.2569732763300929 2.3568019699030316 0.3226891304706636
Ni 0.5632494620202187 0.13724469362185837 0.2969029481526704 -0.7481714795501696 0.1916536291866764 -0.08324872081801148
P 0.3572648234941766 5.7758553227666685 7.705365788872265 0.8770102302931541 0.7014748468245791 0.012728760420578078
P 8.816033920945854 1.5722547235452617 8.07240623764741 0.1267283892682011 0.30817268202204345 -0.6765184339895575
P 2.1875061532119933 3.6014438761549146 10.137939103679726 0.12971498270035078 0.1788248528531243 0.033244106765110484
P 4.115370246012025 6.278975381351738 3.4572195767820544 -1.8514390451467984 0.9526441148783853 -0.11500338752178904
P 7.180058284630909 4.231960355610136 10.345621876834231 -0.25608727418071386 -0.559180741907637 -0.062305542907441086
P 6.510857027008544 7.887226926646894 10.19308307443559 -0.4212893940440809 0.6118510757181592 -0.4146415497102601
P 2.7528578514166475 8.639146410636515 5.532867695021031 0.05390214933509427 0.7430814666217719 -0.46659326018720293
P 6.824022111485562 4.212082191429883 1.2943881370056858 1.550260535054401 -0.7153222942306325 0.9482783817105217
Ni 5.582050032709587 2.790316703515113 0.13228650374409778 -0.7970802894357304 0.8529513895717376 0.4184390690794794
Ni 1.7484248400810776 1.1871141574361372 6.885531816864704 -0.5969420198168107 0.8530377786379567 0.5970852302628943
Ni 6.950719300449877 0.9365711927339124 9.000281528134174 0.2178768245492635 -1.142667150440174 1.2128322986013498
Ni 2.9222263485047657 1.643712591948372 9.235582145382514 -0.1448086438086796 0.12638951787154362 -0.25214680147572704
Ni 6.517204599764139 2.3036785398533692 2.6643269192970944 -1.3332797399568457 -1.7251672838000418 -1.6747101555907546
Ni 4.551663712453432 6.758975382374941 10.245422852821026 0.14372338116430086 0.8535851665009945 -0.11011623463281682
Ni 8.014950261135361 7.253986167039058 0.1588591323527114 0.6784948409896379 0.48109171091369407 0.7142899963113764
Ni 8.153370935689765 4.053283901333914 7.869374718806804 -1.8083162458153952 -0.5955507958962389 -0.007563414169554716
Ni 3.2130250929288087 8.406810718287604 12.227435646027832 0.47678511311854016 -0.2631274688569469 2.510408157398683
Ni 0.26594332040496127 4.96801544817769 9.88590414154725 -0.08756071792980404 0.1555903078052159 0.5753408966072673
Ni 8.654020980269795 2.405285108612093 5.806924829813867 0.8855830595638298 0.7671917294064142 -0.005081014067333185
Ni 3.4763721743483273 2.436341902351912 11.552073882887019 0.5878104898291877 0.8475366463140694 -0.14713960593470143
Ni 1.2319467278143497 3.689501691621296 12.408059052519791 0.2837297184883307 -0.7266788568940323 -0.37956296083957214
Ni 3.381312958889723 8.686984770116446 7.779833986844015 0.07535877654697344 -0.2582439155124004 0.29294583776995997
Ni 5.7147678808111815 8.035800085236714 3.6890521853961142 0.534321259661796 0.3228140860843021 -0.35845034723067304
Ni 3.412851042123171 8.534488648106862 3.234251775784606 -0.4481376245851766 -0.8357993032724832 1.2113274319210492
Ni 3.965979803376422 4.818961000094243 9.003922982604838 -1.2454050903310487 -1.396123414755944 0.4579908632301725
Ni 7.575106149561712 6.286503475506799 11.384383542372913 -0.22626247750979742 -1.129575093142906 -0.9555939415353285
Ni 8.171015190144873 -0.08909031764422311 2.2904276411910467 -1.6210584317035694 0.2630487931002115 -0.11763594004862966
Ni 4.914238157965056 0.6192406839035453 1.6219637553966564 0.04395609386597591 -0.685541206313458 -1.7168507935145465
Ni 6.041926684338803 5.690085902628484 -0.03303280494384967 -0.6062676680931107 0.24376526228025117 0.9399122691340135
Ni 8.116211754408088 -0.10709508517286033 11.396477530063757 -1.8767464135633356 0.30448983385381756 -1.281843792774057
Ni 0.1368278787585082 5.003049690940328 5.526739880864414 -0.6064874974134007 -0.2974588951489651 0.8780021618927782
Ni 7.125808785858488 6.2043119433023834 2.7149776439879103 1.1333235044417447 0.7955805649617524 -1.4506997073399273
P 8.542997483116864 1.708051008219313 3.466177918017239 0.27877006049021025 0.23509087443470478 0.9995785746463947
P 1.649133909452077 3.2542888563070944 1.536862691989247 0.6291337740580069 0.4538740128483216 -0.8821508939538292
P 4.8584267385718025 1.4213296030903515 8.077456144956976 -0.5299239019250486 -1.8481912276334622 0.14594275741312285
P 8.947734704457138 1.6674138292761285 12.192082662487339 -1.5373826506504684 1.66094112683112 1.9995726395636533
P 6.308615549412197 7.8932839095195435 1.2340671258664688 0.24008549943581878 0.057188276285533766 1.1069745821345711
P 1.8464626018398749 3.4481213891657023 5.905702687680791 0.633727049855644 -0.8598082645925709 -0.2836731542187825
P 6.967037738564045 4.1504771362454 6.018408881874656 0.43174941303514025 0.47730319040553926 -0.7240421906021337
P 2.5519240282935547 8.3201513666329 10.31244831741583 -1.1054355197822252 -0.5117603436421444 -2.8434405787768835
