# total energy = -381166.8627580096 ev
CRYSTAL
PRIMVEC
9.21552850784436 0.00000000000000 0.00000000000000
0.00000000000000 9.21552850784436 0.00000000000000
0.00000000000000 0.00000000000000 13.48785749112526
PRIMCOORD
 96 1
Ni 3.2744062854421627 4.6719503945782765 10.00360637540294 -2.4793957681775685 -0.44927199529993594 1.30718329998011
Ni 0.7325266922753177 3.7414031910377243 2.837548765732151 -1.2195223090270157 -0.7975268900548458 -0.5426079251506204
Ni 1.9386799413328863 8.17614588260604 12.343466839498179 0.5349298397800724 1.061844779675468 -1.2029140110463734
Ni 8.292473498577086 7.959258419888891 8.078120306191241 0.6991482555739315 -1.677292314495634 0.8753297572669376
Ni 6.075134407142601 3.2016220415271404 1.2313107202482014 -0.756939969771419 -0.7936447813916202 -0.30222957706473114
Ni 1.6754936635449502 8.229835551515754 2.9234393342478247 -0.2571432262490539 0.41969916673882557 1.1598084381061509
Ni 7.01038153020666 0.16702868899551823 10.574264153077271 0.5767737723990518 -1.7738243826861126 -0.2326922922955412
Ni 5.100675210406925 5.876908389592319 0.9686884328030863 -2.08877552108257 -0.9887747991626713 0.20260935686723172
Ni 0.29372746071510436 5.159903411931595 13.062881677855756 -0.13232619507095275 -0.946921096351679 0.3177487557462528
Ni 0.5180573842306551 4.979057881089814 8.77799177330666 0.22139563633579934 0.046775565592642024 0.7976747284866198
Ni 1.0854694527752242 1.939407968082606 7.091389711734972 2.1051398213732067 0.04748621850642144 -0.6766603588840604
Ni 7.530966733898684 5.098076431376279 7.692151856286641 -1.259040421726296 0.5375842466837839 0.825875616400868
Ni 5.794493918418344 1.986821862099166 5.219800660823729 -1.360759176324037 -1.070436377999221 -0.6650947655336481
Ni 5.2559937273661275 4.560046232276414 12.052210061967882 -0.8825427300756091 -0.10011155801162112 1.5099682631932576
Ni 8.71620349797095 0.4732155442121559 6.647652800016533 2.1566153635446796 -4.002777733673572 -2.6630082722273234
Ni 7.287298945426019 4.8239789678710245 10.228125217252279 0.679150729406082 0.9967066524152381 -0.32175607713343296
Ni 3.832553983208336 5.936090513474602 4.863653661072209 -1.682072766603413 0.7304866606758968 2.2159240286073256
Ni 1.6961364473344729 4.004266925328949 5.518300843737314 1.1470462533444763 1.2632778568464114 -0.6280711371214474
Ni 7.915309564579858 0.9988987782579136 8.551328477980615 -0.7066965002348344 -0.5199863310963626 2.587823045143737
Ni 0.7197014412932291 2.8478655498626737 0.15487801469798002 -0.398345640763714 0.3344293017257272 1.452553986939847
Ni 1.3481304454399448 0.47433246626362474 0.5447464762542428 -0.8071852390802163 0.44530426890143954 -0.0823794308391807
Ni 4.607561497106226 7.5844813077673265 12.776628932288725 -1.061006600044889 1.0234612948012631 0.8303717044990088
Ni 7.416325559639014 3.796336956291896 12.76465243147941 0.2723423025869955 0.7630525104270601 0.934874706710106
Ni 5.112222267589189 4.53842660246828 3.776397317325204 1.049216035167864 -0.5224728449636421 -1.039118541722546
P 7.835927002274971 6.865172447987237 9.977925462194786 -0.21081477549615954 0.9826041515755852 0.0985347004428045
Ni 6.735583686537117 8.241769660894072 12.669266182420557 1.088411217310087 1.1425632778724581 0.3415502290412247
P 1.32542338327147 7.005976507594432 8.839159843575837 0.04882602036376752 0.7283405608671714 -1.5871183273126988
Ni 8.930086698404445 8.111093467083613 4.1452497661886065 -1.150975156085237 -0.08040816604542281 0.643126488792673
P 4.418191602422788 0.21622118000822885 8.070918370686101 -0.8197198812121173 -0.3630626491917038 0.011108708318651836
P 7.4901050806296015 3.020500044831034 8.724027481648317 -0.4450170766783239 1.8330407451452688 1.5024660412789417
P 8.15586250442714 4.002893811585807 1.3490556844990822 3.9652224011276167 -3.2888849728006133 -2.327508363145237
Ni 2.8312591675462806 7.857122717773142 1.0747757535299731 1.7647892690670381 -0.6888319612495879 -1.1219227188039709
Ni 6.134463979480523 7.965506548196613 1.7476623101576778 0.6978408496164176 -0.47418907025658985 0.42396951197940536
Ni 3.4214861199425113 6.802635871739156 8.199916416760814 -1.311909758921502 -0.01687517848878384 0.7764556712068434
Ni 3.8813502064965153 2.602843078703822 0.21038222116490674 -0.8157356997533888 0.08822817631047386 -0.0884336074530606
Ni 2.593332653315078 1.7254326123643355 2.0224776633313275 -2.6522248084585742 -0.6156493664183268 -0.29305510965431464
Ni 2.6582468359103446 0.5662877740703183 10.364258847027093 -0.6045802530883588 -0.3321579891930473 0.3948695092896554
Ni 4.120078471705257 7.830462193887834 10.407986529652668 -0.9176382882271615 0.6603341109202111 -0.40760469746813677
Ni 9.137095114593752 2.558000317132475 4.988875183576857 0.5227399825820997 -0.6399056678625302 -1.5380832762619188
Ni 0.6399447285321566 2.13111860699932 9.311112860386581 0.1675395097472921 0.3290986335414332 0.7252896898559896
Ni 1.7732888517478138 5.726114697115551 2.6824246964238228 0.7800786126714113 1.2820628507633984 0.49004274945939474
Ni 2.4496994264653007 4.56704081839081 0.585734382263466 0.68202188030629 -0.4283365306988494 1.200405899912539
Ni 3.3710034549429553 2.607828679610131 11.19574464875198 0.7704814559012796 -0.0580627084706871 0.052436363422845175
Ni 8.883437693251516 7.212570225002252 12.344653799566075 -1.278142946883702 2.1291266712061074 -1.1941941146748722
Ni 7.488676673715594 2.4551918814378704 11.023666771703658 0.6206316501242667 -1.831772934176439 -1.963089971256587
Ni 5.604156393244773 3.12417474020252 7.4704925929238595 -0.28148977341421844 -0.3706294057953682 1.4696034862229657
Ni 0.019328649428636057 3.9716439545187217 6.879427948989028 -0.6030082806155486 -0.5510982220098187 0.031246102498475217
Ni 3.0595278079331 2.5639443330004403 8.592344952128117 0.6796448954336811 -1.6871352687279848 0.7810011244856808
Ni 4.100679784260193 7.853943360448415 6.394417449878564 1.1405380199123132 0.404901953824993 -0.04471456929855525
Ni 4.569704106120797 1.9678470889640645 2.859398783752222 3.7743344464623707 -1.613990726223511 0.7417156966224967
Ni 8.68398601041373 8.644322375846718 1.5797111467615652 0.04961432059301778 -0.9494073531086423 -0.24282783806764632
Ni 7.829282606242718 1.4356226728050019 0.6820633798855646 0.5583518182484384 1.0274614170995917 -1.7276846509052568
Ni 1.969220202707207 9.01108197819289 8.265831405748735 0.32101868474677614 0.6074030672491346 0.7959232930131518
Ni 6.965243871724034 5.10923643636249 2.3161083609974185 -6.072190791069129 0.45169680269134466 3.618404495929549
Ni 4.209008321512799 3.920479340411833 5.924365596592723 -1.3892824805747106 -0.9048277667260546 -1.089721194370762
Ni 6.701827205724161 4.0447046642880675 5.461355328616512 -0.39967078733304073 2.223936614499157 2.197880026621421
P 4.022965232609726 0.5652547133279944 12.192173665377933 -0.572057340759989 -0.7674560388113945 -0.6994436753271631
Ni 5.873913342837142 7.628153697222034 8.366490780202394 0.022373482599193726 0.2629426065396504 0.7383125844782188
P 8.342707344307751 0.473436716895615 12.254365580860954 0.5751557771796546 0.3517073720798846 -0.21162750120544202
Ni 6.96573229473334 0.913692001955268 2.6494469277672126 -1.419813302173716 -1.2574936460644666 1.1843213356458508
P 4.17151955166647 9.032931996212959 2.574723736660532 0.2114773487808229 2.0218581904347306 -1.6990847277803771
P 3.99870074612856 3.86664222304648 2.0636425074873177 -0.3423395577117394 1.3747362073294196 -1.9140976005182841
P 6.512420448926814 6.668448561578781 3.8251566784994737 0.3253247683212978 -0.47989306261990256 0.5010635260499305
Ni 5.489349339472509 3.612026386742587 10.015718344480874 -1.3171720357617056 -3.45069477915298 -0.8011973969278976
Ni 0.48421059123861987 6.245050321210108 6.527705324459538 0.13840016917917455 0.8178501749932302 0.6681065557767785
Ni 5.420168367192175 0.570502956795911 0.39408548738755095 -0.8517596832564814 -0.07451005539343297 1.9255297536146259
Ni 1.7294321517235556 8.339435831698252 6.148304781700829 -0.8474302026431922 0.19453943537490367 -1.6074246429702188
Ni 7.182969947532633 6.928953120579775 6.1762517933615895 -0.3625599985236724 0.21312953967226522 -1.3332712553164134
Ni 8.567501730458567 6.276576644131517 2.002474437218141 4.321901001169847 2.6411143003677093 -0.2952084085518916
Ni 0.07300449504563364 1.379675199418309 2.8724009728810778 0.7371188212804338 -0.5183763062967653 -0.1318212304100762
Ni 2.687589078582594 4.529561264072958 7.707433967160822 -0.35293147429497285 1.004686071076289 -0.9724220688362607
Ni 5.003737066352466 5.6479670156266435 9.350929472726316 1.3512183267131375 0.353479633488959 -2.0140556636711766
Ni 0.3313470910658139 8.67522204283166 10.465228784790444 -0.3281776643890606 0.3474072020426339 -0.9738757705636517
Ni 5.024573376240015 1.0323511466311133 9.97681959877749 -0.6817172045816775 0.6453180971273531 -0.20220055146458726
Ni 6.175731116002613 0.05603225624868549 6.665779744531707 0.5444861160099397 0.782179203954182 1.3164513555455972
Ni 7.058486588859029 2.9769198106611 3.615568835889325 1.6814503025280658 0.22879964210935436 -2.0354693534602624
Ni 0.9178389897701275 1.6426403045227858 11.692772196997057 0.03211102160193179 -0.4809299885248492 -0.20674214808868266
Ni 5.683806205875507 8.537800082175695 4.619348158028903 0.7589261469635123 -0.45553211727703485 -1.6743301465435165
Ni 4.228453086600252 7.087810400474325 3.0315577574511448 0.31234815355597173 -1.5155562988039963 -0.42953800720611834
Ni 2.95630467345701 3.2381155342979038 3.8180754664173895 -0.5279729488462649 0.4606123600134196 1.172541055181471
Ni 3.66190082686263 1.5393987389897403 6.309498198064416 0.43122773620371535 0.03688787416528486 1.6650749464938355
Ni -0.022261030590165563 3.919935624231663 10.974610670512414 2.4575982126865026 -0.01031860831718868 0.47980615933305104
Ni 8.514033234232311 5.146135412386262 4.73720555172721 0.7391132260026432 0.6771370414101628 -1.078743869423652
Ni 5.77563894715345 6.535698873860891 11.105281335005786 2.769702625662785 1.1023473677752047 1.3466996129071773
Ni 1.0431609615351802 6.259030277910424 10.726636465582228 0.39210325939842794 -0.8287624510303598 1.2330532536339152
Ni 3.4128235231736936 9.123188882121255 4.595286413174241 -0.4673257674778532 0.24682204682870393 -1.3586650127991697
Ni 7.654141487528487 2.3002143390323337 6.683759240591243 -1.757828778588805 1.596135957430277 0.2291683383026827
Ni 5.252759076870538 5.584849861084482 7.014440970500983 0.01718628197129943 0.7346634177614056 -0.22153473301682494
P 1.9545398658426043 1.4163530027586215 5.020059610391752 -1.4243587554525534 1.0424103250999401 -0.4071105314405376
Ni 7.13960167051768 6.211035805599783 13.516451558459652 -0.1379913637765301 -1.2296709674252435 -0.2233825848588411
P 0.9222163657969235 6.986255276652655 0.49692249122043575 0.8696954417992957 0.4965450693542869 2.037911644353168
Ni 5.576961368707773 2.093832578779495 12.235536413075797 1.003138266973195 0.6233945575813844 -0.9736567125743103
P 1.770404391334367 6.571418262239547 4.772017210550835 -0.5154683886213509 0.1934279474782798 -0.5905250605468733
P 7.602506881469248 0.6728607531479677 4.862615071012799 -0.20256821921665114 0.1402757889353326 -1.346550746034139
P 2.0107177274412336 3.98481294471302 11.919165477338712 -0.8446436410369904 0.6804679055556087 0.4752205968448976
Ni 2.8882111335370175 6.109757147632439 12.437517758480647 0.2323696188487998 -1.2243220444085043 -0.9025659672750713
