# total energy = -340864.88904218737 ev
CRYSTAL
PRIMVEC
9.27426815113669 0.00000000000000 0.00000000000000
0.00000000000000 9.27426815113669 0.00000000000000
0.00000000000000 0.00000000000000 13.57382889657623
PRIMCOORD
 96 1
Ni 7.133470327431934 2.0782058423932486 2.8245646328155103 -0.16236053664951391 -0.8887486017760048 -1.3706458393101297
Ni 0.8608329377419087 9.008699535869825 7.268282944927223 -1.364433796962147 -0.7914194916055273 -0.4849601927301647
Ni 3.772512626669522 1.3126706476015495 12.80055550373649 -0.13354361241782162 -0.5488572484944418 -0.8447611404514612
Ni 2.4776949453644206 4.866978291921548 6.1480756208427705 0.9932477473323605 -2.012794537570566 -0.6307682243376362
Ni 5.460911702098607 6.8682726280828765 11.291104360767976 1.6250876074676206 0.15196608078906731 2.1745500936462294
Ni 8.304736207697408 2.818783981442744 9.741597653417976 -0.9635453351719213 0.158675631598759 -0.5318709983490904
Ni 5.45413221204006 5.233348983129282 12.898585446100173 0.07591104950601765 -1.298945999671982 0.8397729432082505
Ni 9.28817960825604 3.6166492752003743 7.192867378156922 -2.384380393741932 -1.2335600180670048 -0.4362447298023326
Ni 5.846211174714679 7.3396187611137265 2.9801887081649445 -1.085456505557137 -0.7221202909890725 0.677403407697672
Ni 7.566374618749133 8.640511088093723 3.8527276272363995 -0.4793207350562003 0.4442598867973252 1.2085346996672606
Ni 8.02263151740891 6.328871914956786 7.531425466441842 -1.2308346487160415 0.32717184883236555 -0.49517261448679234
Ni 3.5880938033942633 4.289822032929046 9.135349869917059 0.2627564586707733 -0.12669187960331085 -0.6839910882175189
Ni 7.256168895796615 2.242620069148279 12.106932057186885 0.9066416800063418 2.576247167380679 -0.8178627733987205
Ni 9.332603352962526 3.604249578609023 11.589212728272656 -1.3155095604576181 0.6601325364323664 2.052382327165517
Ni 2.234764763977842 1.5192642461572274 7.933577211814943 0.6686832542158548 1.7361258396940746 -0.5838376212243687
Ni 0.5925061003001643 8.028771082961246 0.1567536812169182 -1.4788543153972724 -0.8577400692096324 0.772421867457102
Ni 6.378331587299103 -0.1279107070964227 1.5997166679901775 1.1334620869021381 1.8529511109159509 -0.2975748519015391
Ni 3.030181650929103 8.697575660364917 8.708697362797487 -0.3233874420892689 -1.1965495022809265 0.2860048876757526
Ni 0.2865257339422745 0.7868270597389125 9.351661974125749 1.408434113802497 1.6938016250045669 0.136273609754475
Ni 5.7572060227422055 5.3294767730839245 9.490264985036807 1.1389863591544773 -0.8959278931332635 0.6545869240237888
Ni 8.966724197969707 1.249114087586194 4.388731175918652 -0.18593652419724108 0.36152487239093867 -0.23268894986143152
Ni 1.6142420268543318 3.2984955043953588 10.01747189032572 -0.04673468505237758 -0.18934940653353197 -0.95251761660285
Ni 5.659167733537139 0.3174081196412578 6.992639637297807 -0.5132518405860064 -0.9106315178920252 -0.9762159886610541
Ni 7.012951212095651 6.553160817249411 5.301014971386693 0.12667028233675603 0.5984594849026016 -0.11426779490734514
P 7.984477178009643 3.449137442864558 4.093676824934188 -1.0653813320738168 0.9146013011730506 1.8704873200275012
P 5.4145310868006655 0.13368022934734236 4.384495617628995 1.7267739661655293 0.18226113222818288 0.22431898063018144
P 5.864490757348602 5.534067129707118 1.8027674960911837 0.1919945574658629 -0.2492018599147902 -0.8044341586976403
P -0.1836768818187827 7.487867938385792 5.770316128278132 -0.49463448259513526 -0.6891878019271099 -0.6356484352480731
P 3.6836558629883425 6.425129544666311 8.911354034499741 -0.5709170565079587 -0.05896747967314361 -0.23129052685200813
P 4.586422404423441 0.9374894015981645 8.803225341486604 -0.8800065939173168 0.6769105272216536 -0.21939428963505442
P 4.475724739117257 3.969776311410017 5.552130621891841 0.033068757529510794 -1.1620746084325084 -0.5248644851242703
P 7.119095211712716 4.501201153878993 11.232981594494484 -0.27939355300682206 -0.05996352503782576 0.7796677503862379
Ni 3.678851792057662 8.247625264085187 4.2140902136129235 0.7817416021961311 0.431462735032657 -0.8196818288853303
Ni 1.1716553995301235 6.4161427787747485 7.2030876217198765 -0.8751914319168604 0.3085848298587976 3.0803417669474498
Ni 3.950541479150883 8.715641934830101 11.143502527416686 -0.09481534260968832 -0.08827394194674475 1.1079595717556598
Ni 5.576626746504209 3.971019063349614 3.632872752573038 1.8840406332319037 0.7956106468687394 1.4868478751257104
Ni 7.994270805235122 8.899059137139117 8.406964611277923 -2.4511529712817914 -0.5277502913124975 -1.34991580585163
Ni 4.318099276688979 3.5136121554323023 11.289869028242943 0.0818757517298848 -0.1996559306658626 0.9787829780572821
Ni 5.1019140541146 5.18911999805512 7.164823845955779 0.42058979687389497 0.8582465765324058 1.0721693015299278
Ni -0.03187287754337847 7.160653207543565 3.2412537936014325 1.2888953003041996 0.6307186020466233 0.9948729416406091
Ni 5.541801869390878 7.5132608847336755 0.1699129403743366 -0.37712066994666665 -1.3587925395159695 0.04190589620516654
Ni 1.5613323267394037 2.442545468863881 5.1635387840626565 -0.5150804091543129 0.6964946200011682 0.6310903835637454
Ni 3.0649137853603747 1.4806740161522813 10.413380198342574 0.018319367134478126 0.035189917637571656 -0.20432119735201587
Ni 2.0694231104022167 4.55566893105252 1.5374260455849338 1.0339408541763482 0.9857336983435024 -0.0013017495305590486
Ni 7.045911961299588 1.9981967305805428 7.761800143531211 -0.06154501059233271 1.5201158931502208 2.1680688567972597
Ni 3.1193630139974897 6.381484838489124 0.131889368156774 1.7525215074432785 0.8218297284662686 0.14799218374298384
Ni 1.6342651719109718 0.6362825010858758 1.243411340066357 -2.5036962925961466 -2.2614610938071764 -0.5162415193419496
Ni 8.6596531776708 8.732233600650542 11.56916454269186 -0.47635496755965706 1.0884585256082546 0.9675009773855596
Ni 5.969948461118427 1.7891918222913186 10.249719969592688 -0.695332224261951 -0.24667909349293646 -0.6729119475852217
Ni 4.70454875856259 1.7047959816171998 3.107144165636155 -0.19012356569539515 -0.5858479667861781 -0.5821342653800168
Ni 8.67646742592818 6.2883897342378265 12.01468462104961 -1.2901302011525653 0.16090117849516805 -0.4311020092591285
Ni 0.5079683633224945 7.827519462892193 9.78856347503971 0.5651940379812525 -1.6789082528325021 -2.1176214987799855
Ni 1.6462846235058792 8.939754626026813 3.3362705262250016 -1.6012802206353776 0.4707725883758731 2.2889328168648837
Ni 1.5770707598848959 2.255817352805342 13.049173593813777 -0.3971997000847288 0.6837527469544675 -0.5863228495400676
Ni 5.3004483135993095 7.7611064282694056 9.349096711539984 -0.04314413948764182 1.7094329037839204 -3.3771781980210673
Ni 3.7632476327317805 7.386565106772231 6.632199840607775 2.3494157047412894 0.2110811417836687 3.314554095431943
P 1.8550947721627786 5.258268941798662 3.5811158439961086 -1.421960944644338 2.669325986915235 1.948925763941063
P 1.5140428331572793 5.4380877280437705 10.787175868675991 -1.971677712925598 0.16144908057883808 -1.2600230973545397
P 2.2017112720918464 1.642612013296324 3.197329004524426 -0.8212663997636308 -0.15779322899380566 3.488480482542186
P 2.6198138313523542 9.01937421857487 6.138357115189758 0.2964685062112378 2.2309246157812157 -0.5213857825470505
P 2.696512029415537 8.617900422207624 13.44005895817029 0.9786713921800824 -0.5895015043783653 -1.1124762286790906
P 1.8041975882485408 3.887513552423266 7.92491690016423 2.1412036569752995 -0.3241464317424804 1.029773610172536
P 6.6033995281210265 8.982258597214669 10.611679818841674 0.8341975060030021 -0.4238011047223411 -0.7175033610423514
P 5.9967603705018195 7.510729009513451 7.182292857548502 1.0826563171041808 -1.6452021188293087 -0.6080849238075076
Ni 6.3765880248763835 0.3049694711234415 12.537005841847629 -1.3634236105300777 -1.012000088239199 1.984060659970983
Ni 2.1276655147355648 6.932969923087564 5.288662573563192 -2.918031623919897 0.5729397433649424 -3.810441990818206
Ni 9.16582418781498 5.236242554809538 9.214498329640254 1.0106389462256142 -0.34881513813375414 1.0860771698602716
Ni 2.867501712328584 2.3270159098223977 1.4890078735621455 1.6659825459097695 1.6056863201228733 -2.3107144315163493
Ni 7.738059871777628 5.488706683911831 3.0722191264261993 -1.7730545943996239 -1.1849096040491527 0.5058699462996384
Ni 7.169213357097655 4.205120141404131 6.00802118695748 -0.7286694049614999 0.7147738779263303 -0.17619435720881269
Ni 2.2204545681360655 7.347501889088782 2.002397974077837 -1.9186587375264053 -0.5848033275717477 -0.8877972936063291
Ni 3.159937937398509 3.6073564584580153 3.662273110212711 0.23773242582260995 -0.42236565782739516 1.3047536074926949
Ni 3.780766725372815 1.7324889464801576 5.344260884031025 0.3150146446445413 -1.2629091606530831 0.0663254627001116
Ni 7.550793848163142 7.109626183874444 9.914623038202226 -0.09907643187888743 -0.7389075377497403 0.18598871759141516
Ni 4.019189612411303 8.805824918864731 1.5961330907553994 -0.24099849816839142 0.5724998276140463 0.5116598135085382
Ni 3.6881167859954034 5.985343746340299 2.895025885510194 1.9457969885040942 -0.1486069345088473 -0.7970113838710081
Ni 3.45155802686631 5.870277900709112 11.393722283613139 0.27388419315281864 -0.3703442704547815 -0.8425083398615427
Ni 8.083609830863011 1.6050697755986503 0.5748627324651704 1.5160219255865053 -1.7258301141950212 0.18001347384458674
Ni 1.681211517569476 7.662947573577661 11.666447906464965 0.9476788004533097 -0.45401645196345675 0.3683030716550367
Ni 1.252425001335717 5.327723936393 12.886789504369027 0.9479971030246772 -0.44250125223500564 0.4863925543013171
Ni 4.867330714113374 2.611531909844443 7.270115540324718 -0.7345006669312963 0.7655251403372687 1.0597369893038457
Ni 9.23985139663485 5.671483961714636 1.344460984157895 -0.8054638855137354 2.0247241991286162 -0.47956653251841924
Ni 0.46508414713819496 3.7769828239447882 3.108909058875746 0.03136411613357824 -1.1531670215302334 -0.6897336471282508
Ni 6.607313269303937 2.077102204476741 5.285418434544752 -0.8878919102026644 -1.6842533191944993 -0.4381347477361938
Ni 7.398862786413318 3.6558516069069134 0.5804235836814563 -0.6939631118285661 2.2003860808727267 0.37074921920268405
Ni 0.1126665924463074 5.16875370507486 5.368395312183361 -0.02535339116312408 0.40237275964523606 -1.6497347165923395
Ni 4.474491261445865 6.088751836836609 5.005621182185892 1.509995259776451 -1.060713494284502 -0.764859995949444
Ni 4.463306493989493 3.8513439064200723 1.693932103840753 1.721538428798203 0.8474664551977663 -2.3472631771746606
P 3.2173549318615273 4.095247885968275 13.299624279288556 1.6286118185707952 0.06613648661775706 -1.4305728546830652
P 7.661788290051918 7.6499914208939535 13.797932564847738 0.5353756690682392 0.268652255329918 -0.9499159173139448
P 7.240680867892683 4.142546653818606 8.177091672098497 -0.1613935447505543 0.9169752007218659 0.7238778971101276
P 0.9306542659303817 1.1765985844838933 11.261160531011434 0.11970927763789062 0.7156531952074902 0.6135839992488659
P 0.3617354119584027 3.7878244434775405 0.5839190553682778 -2.334515133480373 -2.301050426064024 -1.3050117462500879
P 4.9321671231411495 1.611413375051518 0.9193470781336909 1.810705057762546 -0.1012011915313741 0.6428966321700542
P 8.556931383021727 9.535802569354829 2.1804323911201213 1.1411807957026348 -0.1955485933657084 0.42795009389370814
P 8.230031977298504 1.0383656168742514 6.50402203458702 2.2692713338802144 -1.3064780463829693 -1.3161651917637462
