# total energy = -381168.0645889148 ev
CRYSTAL
PRIMVEC
9.22932573714252 0.00000000000000 0.00000000000000

0.00000000000000 9.22932573714252 0.00000000000000

0.00000000000000 0.00000000000000 13.50805113085139

PRIMCOORD
 96 1
Ni 1.8859388752175161 3.918088728409193 5.210677022218718 -0.3481214545008392 -0.14469731504179598 -0.09166522701648085
Ni 2.437363398700799 3.7552649641483584 0.1376129381382352 -2.40912186235267 0.17128920659771144 -0.43278325361629344
Ni 7.726874552377785 3.1524792430621087 10.507467345086983 3.001357992053379 -0.9694768701650077 -0.796483793502312
Ni 5.1972640431573724 1.6870745940403142 8.171695749192052 -1.8447773168559065 2.364569529663592 -0.09864474365810753
Ni 4.1244933686954015 4.547639494068417 3.6385287607770436 -0.051903373737510604 0.7860718541403687 -0.024264786084635632
Ni 6.763139131910685 6.852451316852988 4.86310061579864 1.0726624391162625 -0.02262467937805136 -1.6221953735214902
Ni 8.161252767145735 3.3610896921941595 2.3387434387751016 -0.8992561861755481 -2.013066303174714 -0.939537659403414
Ni 8.897485308742551 8.909114259143223 10.025607941246575 0.17607402958086452 0.38956712324013554 0.10571604868259213
Ni 5.743344787051774 9.194051231936825 4.325966780252183 0.8759465649153302 0.8260820759847193 -0.4539485748399989
Ni 3.6326902893298487 2.5703210649484793 2.292965060297029 -0.6461393074770679 -0.5067898870107466 -1.2868679854615257
Ni 3.401006525910751 5.648605758589159 12.223489719231825 0.29522666338433673 0.20133151859607262 -0.3936353797722382
Ni 4.277395607812806 4.52328330350701 0.7299362955941661 2.0217437763440538 -0.14766951029624245 0.844320967590249
Ni 3.567411268548935 2.757704064936447 11.912980130747604 1.430318315470098 -0.002321963264957291 -1.2520423931419085
Ni 3.972837088549498 8.8867423736105 8.015677689713327 0.602075484388634 -2.011909306752135 1.0728979521658362
Ni 6.510587863050382 0.8279305072363983 6.716567954353709 1.739106005368321 -0.5866966879397186 -1.4175157643887912
Ni 2.807459359865035 8.619230367766477 12.479588740896906 1.0452200266345935 -0.301045584058959 0.4232814847734452
Ni 0.4904112970477581 6.832479056006119 6.6716802058071165 1.414848244858957 -1.14296694106878 -0.42415694539986304
Ni 0.36017997361623505 4.459564038771901 0.7959942714654106 1.2565518509764877 -3.5419946524102417 0.9457975242701968
Ni 7.416307742074131 3.5293495293010224 8.296590676495267 0.11952878619596834 -0.8014966733358713 -1.1598097236577316
Ni 2.7693145566856887 5.896985372226364 1.8052561098185695 2.199871860240469 0.9147627664515793 -0.03493820663808176
Ni 2.5101458612878607 1.3387321535859056 8.363536513500279 -1.7581841050456946 0.23145122079958846 -1.1307616572518397
Ni 6.555848476355853 4.043810603296455 0.6605899109707316 1.0513503079020474 -2.1617002342667546 -0.6459842699564423
Ni 5.2074347600951025 0.11483127054377629 1.5868985697990987 0.42317966908825827 0.8888560738881466 0.7272635257529089
Ni 7.960874876551302 7.895069784204645 7.444867890498638 -0.6115831667687531 1.342951715828971 -0.6652220351401318
P 2.1252460616770543 4.231036704747271 11.183963998927204 2.19870895028062 0.3131559941692478 2.747738205576552
Ni 5.777373310962312 7.787169737272697 11.2286219372635 -1.1173926921441015 -0.4178286891889901 -0.7620017005650426
P 4.700661714420114 7.565222912482733 0.6804772620210233 -1.2467518341669301 -0.37859236939618673 -0.48629382393992376
Ni 8.921804582001098 5.592703732734502 4.558183998697597 -0.2680279914823578 -1.0417963456650252 1.146684242019367
P 3.3557828299081383 8.00813825353689 10.19185117068475 1.1795979620282524 0.0028053306592790398 -0.12928586558273217
P 3.987677844298927 6.704828252044459 4.553307222989887 -0.04831668482751679 -1.2836890735129118 -0.051197863030053754
P 8.787093343867603 6.8674212831624235 11.952288751899587 -0.1473712623295333 0.8795029148080209 0.8919794500084767
Ni 4.642876906119633 6.514805664902053 8.264509540310558 -1.5002276388667262 2.359545079865807 0.01345895371838327
Ni 6.800711716895713 5.846584024497739 8.809207731212881 0.29781910670186124 0.06561455267601603 0.38838133046215045
Ni 5.011108543489476 4.4010131964370895 8.258633228627932 2.1776780977522496 -1.7169862906511462 -2.497018109245022
Ni 8.10650440700543 5.8549827108982235 0.45186870993010303 -2.073776476570577 3.2503675334517053 -0.3439223288178271
Ni 4.633010756930491 2.359292532479146 4.5205098911297075 0.5982612528488664 2.003408982590608 0.8367202724248557
Ni 5.039774829159703 5.263133740784035 10.34747790675317 -1.1289942809387716 -0.017200165928370377 1.113444763239947
Ni 0.10988250609549041 1.6490866893981198 9.053622426522999 1.1434083994815727 1.5071984137576042 0.8971661364157387
Ni 1.4287642259339637 3.231897590838125 7.587066880584567 -1.205304108545105 -0.1264558523331048 -0.5388587425208332
Ni 6.035074543571484 5.530138133713744 2.2429310397318525 -0.2428576628643172 -0.5244628788104774 0.01948381975622451
Ni 4.834828422336435 5.49442987252311 6.034154379797716 -0.19148599326056054 -0.7241974852330754 0.43526436816693426
Ni 5.715075362387284 6.071807259916463 13.176469283510876 0.025218922467788826 -0.13035081651213679 -0.7804395955552559
Ni 2.406371322950437 8.279120485849687 3.7883871682737005 1.3308217653346563 1.1838107145580192 0.857549293355065
Ni 0.25845249972235856 7.813473315559931 4.536043769240319 -0.9427232562202473 1.4578633149679021 -0.34723879478556974
Ni 7.755771571190883 7.521623577805928 2.6749179362070925 -0.6760558925308421 -0.19710745321239603 -0.16109118301878705
Ni 3.3987914877391945 3.4874022439271704 9.23981761229147 -1.9997469603579883 -1.0744095037143562 1.8592428574619335
Ni 0.7472514335677378 1.686982300783166 1.364758852101695 -1.1352600593428255 0.9371632456339666 -0.4825348711181238
Ni 2.467497147159682 1.4742555723823059 13.484762910890971 0.9731954566671756 -1.1013366671225033 -0.2563274152159779
Ni 2.1925278461380837 1.6202173585621664 5.124751999813755 0.28436838051359414 0.4919631064105592 -0.8863705884621315
Ni 5.156922660457899 7.32665407208038 3.0851716164890775 -0.41046787794854467 1.6281798732396993 -1.8856699413052105
Ni 0.05631549964668174 0.028307264899920935 12.428339218135088 0.7536456152908633 0.3259521174926515 -0.18405499090381205
Ni 3.5892570825159114 2.9705876918744583 6.779056027038461 0.31538256950692134 0.14492228656840847 -0.8773969242086115
Ni 6.533974974411732 4.44584926075968 4.6544283301843 -0.12669213671362697 -0.04120655614529677 -1.2834540746839702
Ni 8.981785969821706 4.660791027332095 11.95182913147899 1.3074905468078837 -1.1876884523458708 0.21031135349717972
Ni 7.370890230231507 1.1994985458521483 0.5109917704592326 -0.43248680542179707 0.3720329710111141 -0.07469568904167782
Ni 7.173354971957239 0.9423510727858652 9.019650201499323 -0.06776425202916717 -0.6479835597746583 0.5804846455917357
P 9.224194209721423 5.044195676177101 7.749555620321953 -0.003753296394845149 -0.5243119550549099 0.8314991332352325
Ni 2.4311243745175815 5.9705800154763295 9.70980348859976 1.4157638146946907 -1.5159208812322666 0.8966470306874751
P 6.93584750401209 7.8923379037930586 9.26126841111785 -0.27763748954766376 0.9650296330269316 1.7835192413763736
Ni 4.146671438388111 0.5253719828554919 6.031668922382717 -0.8245458418458508 0.4065220059269192 -0.6482416985320513
P 5.790811209203088 3.0048008022992923 6.355240775551122 0.3682835312710109 0.8669201930470037 0.5720696820551632
P 8.645367818190843 2.6416822113754588 13.16458191199019 0.3499333108985973 0.9333045340095087 -0.2676454113319584
P 5.778056281065209 2.340427790718056 10.122501094331032 -0.4269028835761164 -0.10925645773568281 0.7703788688851441
Ni 7.1455008669499165 0.41987340647454047 11.497512804369318 -0.004579906061198564 1.2589874570011736 -0.4577157551919149
Ni 0.8943631937316645 4.036030281718863 9.724311065690886 -3.3268971903783284 -0.5913295587260397 -2.3415296171249933
Ni 2.527330865768853 5.273498273561776 7.260307218314262 0.21712297710237444 0.32623442461976077 0.42919733603724786
Ni 1.3821192137712692 7.6331046031152265 11.059541613100588 -0.5798518971037433 0.0929104122774916 0.18422725481561822
Ni 1.8185555681736236 3.9535385684798117 2.616536913465435 -0.5613384116805881 -0.4109797845879567 0.8561809522526287
Ni 7.732633651623833 0.7927557010720806 2.943376870869458 0.4738720532368032 -1.1243886638459604 -0.04787599774567238
Ni 1.769972397610817 1.2535362479124128 10.959689538191963 -0.42967427567366645 -0.24332354675714224 -0.018773166842445087
Ni 3.0234994161975153 7.418125919239951 6.186930177152829 -0.20020049031542292 0.33593262574413113 1.3836219398548235
Ni 7.269746049722808 5.371227603555993 6.671977390095133 -0.06365820028059359 0.907853955146888 -0.17523713550186595
Ni 9.274180237792883 1.3097613001670894 6.894820382412006 -1.8886033129019215 0.9519483743629412 -1.0437141315130283
Ni 2.643768038987008 8.452761019848289 1.519264225095763 0.2651283013370595 0.07938743809039232 -1.4916512100516246
Ni 7.180083150403342 8.145950545110566 13.477131181457388 -1.125591683015126 -0.8419462967104854 -0.8596331724672872
Ni 0.7114591855130987 6.293661791449279 2.472891688039994 -1.6329724095323361 1.428346536455708 -1.6593426719957485
Ni 1.4139603874873943 9.081471916867464 6.202113340886276 0.7917755893933653 -1.6314924825527 0.5158265432917181
Ni 3.975199795932492 0.9966656546175742 9.958432294031267 0.7682309693042059 -0.5565692724267189 3.121061099043683
Ni 0.2113552505996379 2.2606218112620176 3.673204260420189 1.9165260074541184 -0.45336853396681276 2.2936808730728306
Ni 7.1538441773961114 2.250192673204272 4.806678055973666 0.6315302993146414 -1.1503004986157157 -0.4738856800835581
Ni 5.9794770854654145 2.303233608087336 2.3826178073582076 0.09376196164450949 0.5897976954625456 0.6153099808010372
Ni 6.215960098256219 3.552395155610925 11.913560655335065 -2.6808445290777962 0.45015619767710213 1.664951533542094
Ni 1.4799131490454898 6.220823952907928 13.431446942101605 -0.7546028369978102 1.5101706090120506 -0.9023713347657621
Ni -0.0033040986059051525 8.334404146881452 1.0079318925176537 1.3468060565780546 -0.0035139266905294324 1.01844404409233
Ni 8.746022844436657 3.750124229725204 6.004085236618836 0.8553761969631462 -1.6029650645369684 -0.2273402839550085
Ni 7.107540650284866 5.707082766318251 11.139171312435476 0.8248975687583148 0.5133256312467354 0.39905860767033857
Ni 1.910701156110375 7.706717705016621 8.471600842429948 -0.6107398449318514 1.5944693683611313 -0.9934606346741148
Ni 5.674254054750641 7.88280401032965 6.371032151849176 -1.5322923806117545 -0.17318488095852755 2.2040365331411205
P 0.7388010629432497 0.17000879432982086 2.842188389597327 -0.23512224189327247 -0.6764950369507898 0.30221080801165373
Ni 2.0032620637042933 5.983076522494194 4.180579981064356 1.1378177927676727 -0.611472866443134 1.5602762674191901
P 7.764751705111402 9.023041055766946 5.218592091951747 0.43259119221014525 -0.02219196271600694 0.26220624259425807
Ni 8.972685854666894 6.704855940021604 9.552569926924392 0.4229315576331942 -2.083679851727218 -0.5805558651493035
P 8.067787385631764 5.294411925631556 2.7159155239648896 -0.71043051335597 1.5838080319925434 -0.1796458060925229
P 4.993406696768453 2.1558597350731086 0.41284250614499146 -0.17995485269250944 1.554327248924607 0.13949443068461784
P 3.9409866855076583 0.769277219386153 3.4577641102591725 -1.4293837194709704 -1.8234919251145691 -0.6979730043189076
Ni 5.073831041047384 0.5625292481833527 12.561461166380493 -0.6126388617267771 -0.2739196743764444 0.04381648296431809
