# total energy = -340859.57733025996 ev
CRYSTAL
PRIMVEC
9.36140947899558 0.00000000000000 0.00000000000000
0.00000000000000 9.36140947899558 0.00000000000000
0.00000000000000 0.00000000000000 13.70136903827766
PRIMCOORD
 96 1
Ni 1.9748735665382466 3.0326472993671665 7.223786799204018 -1.164251561479169 -0.08123914658715041 -0.38318153142876593
Ni 5.652475166820057 8.641460852725203 10.477382083333323 0.689774013447883 -0.2753553783817064 -0.7559837765057368
Ni 3.741661724835972 5.985254548326898 13.06933822656656 1.0366073452649178 -0.7257979969509758 -1.6166158225511835
Ni 4.500048223503469 3.2195197538973663 0.3495531548776057 0.37633854036500347 0.25862752410406425 -1.5724962065241497
Ni 6.705820953000707 7.7016408783914505 4.705927147547379 -0.3294483035713681 -2.7238585707454765 0.4682392804310581
Ni 4.074413022114599 0.43861947623274194 5.139615969446834 -0.9020139514263433 -0.9330960175431285 2.0724796121360245
Ni 8.328508936336837 7.175473501408963 6.435560808060066 -0.8759162258980271 1.95851392185013 1.935645759002705
Ni 0.6176330275679663 5.862423495532051 5.875681123530531 1.2155838932045582 -0.7002916251497552 0.9987792186735509
Ni 5.487620747208956 3.4743373178845447 8.87410217397435 -2.0067753279596796 -1.4607072121746003 -1.0116707299242382
Ni 3.818724847052814 1.2976224031784966 7.519654143429396 0.35790244514700303 -0.029455586256955723 -0.10243095017341713
Ni 7.5230064641371035 5.390936110880537 5.260380023045196 0.7449941102634525 -0.5465507118484523 -1.0149825679062907
Ni 7.996216348119024 2.5056842025853063 4.201839590786056 -1.292387372617858 1.2675705706844944 1.7057760237576236
Ni 9.172262127362858 2.906118489857589 12.746041016645412 -0.4321862434622428 0.05365866586572049 0.9584406669555041
Ni 2.271218342643247 3.6315715502404826 13.203050045512116 -0.2147529342083011 -0.009304051009745266 -0.9749193813368178
Ni 8.210573900660478 1.6039277188897554 10.788854897035797 2.031333734025334 1.439829854504959 -0.3770571636985829
Ni 7.61709799006051 2.6475563621086597 7.249996873254397 -0.9973414577857598 -0.6848390380401109 -2.258455988432265
Ni 7.041155999274943 5.635980363449543 1.7363195791092951 -0.9932120089984184 2.2288319949182456 1.9512058182244914
Ni 7.060655815064262 4.576746250753541 13.602280455534995 -0.913858252359439 -2.5229847085121127 -1.3050127746913525
Ni 2.31642458865699 8.006073912221833 13.422079877487295 0.7102747045043961 2.1560453499738226 -0.9490605112921849
Ni 0.171469191496236 4.694185131731466 10.060969742489647 0.9300294628026627 0.556081534157023 0.939055577560673
Ni 3.563626440783505 1.957957499744535 9.788765232815717 0.41309811648254025 -0.6215433633052586 -1.1691307439483414
Ni 8.7194975615201 5.569673500638331 12.327532656236096 0.814892635026803 -0.0004070056304315571 -0.926058908190689
Ni 5.83253251530387 7.300729159239545 8.160302196018026 3.603890361473774 2.065970607372913 1.4643666633040586
Ni 7.718042067667922 3.399090309092151 9.306311893187914 0.005468479313738969 0.1259794269173185 2.088601200288235
P 2.090936320333729 8.518760859662017 9.505763273534777 -1.011952265720399 2.2557007942846314 -3.2980846370220105
P 6.3145702083541195 5.239197025844968 9.602577097312977 0.4723643583430252 1.855669024067746 -1.6882367293222795
P 0.10847252305041251 2.81424561796302 5.812736878977372 -0.400475285512207 0.5315557811015167 2.4210106433704563
P 3.1341249773106274 2.6512822030516023 2.761346165700759 -0.6297094440558187 -0.4005053674191941 0.5125195904056722
P 2.7013376591368132 5.392799031352007 6.8424769352039405 -1.6454618002485986 -3.5952578826097565 1.6620670129054471
P 2.1661739677167176 5.140218844212476 11.199649456095907 -0.15814881256101151 -2.4628823439035776 0.6235665643828745
P 3.331894112387524 1.9778411333194346 12.05527291424668 -0.6475814392402331 -0.6005950431883657 0.9249867581724328
P 4.6128344840074185 5.2195942345522 1.1376640006858845 0.5282645119447548 0.33878757869442294 0.8298590265286483
Ni 7.737953785471034 6.801213714831322 10.316938759833564 0.20258698826972854 -0.7287442240634933 -1.8778324475386627
Ni 3.2471546344590916 0.0064724784621871725 11.013434172505894 -0.11008615272582975 0.33905805874699024 1.6424392113721908
Ni 0.17786490640130725 8.207100817771455 9.994120854073921 -1.417420119351191 0.5550469222449215 0.2572260157708473
Ni 2.8146575199768127 6.961836777391644 5.636249972040389 1.05211521109253 3.1985472063463045 0.1707256207847576
Ni 1.0470549190609066 2.5246223338103633 3.995743482043966 2.8400834893791926 -4.245893535295282 -0.7027012630325123
Ni 2.5921087342065268 8.913990203305465 3.397747882983564 -1.1575949753946 -0.5049438349409433 -0.049511733576882475
Ni 2.0966093344327823 6.091216341375056 9.045492729631588 -1.3330154305518656 2.224433351629917 -1.7069643876387701
Ni 6.236524138149817 4.4631455476314095 11.454920112298257 0.5880120643170325 -1.0253538838382859 0.9376661534123142
Ni 3.209315817646594 4.377114195205173 4.183795474159117 0.12481497429557215 1.2524964499601912 0.10540237409691523
Ni 3.0894804158611473 6.948627828722067 1.5575990398884278 0.8861289047649706 -0.03724602883565198 2.0758333590996054
Ni 8.729149174616015 0.6262801614347907 6.1900185285107465 0.4448080459913114 0.19258668252390704 -1.1727189755202319
Ni 1.5871427118277053 5.883102848906321 0.07379411805283345 -2.415669690773517 -0.8275224079756716 -0.20358020542093325
Ni 6.536884958889296 9.209015020684447 6.439629276587209 -1.151702521169565 0.7718752509250126 1.2670666344648824
Ni 8.747946884700006 7.275453353847722 0.3255214807956261 -0.5055202762697036 0.3922498122786212 1.347330304512641
Ni 2.8383699699981033 4.107692832547165 9.024461387263713 0.9377088337247915 -1.781913073231518 0.4752010564608719
Ni 4.850370886234114 1.3893922995696175 1.6615097481360868 -0.8377602836535959 0.03497111675854623 0.1659405406912884
Ni 5.372615832676167 7.8983334513868435 0.6184306196492194 -0.44155277227880724 -0.2507301236338585 0.23695389578537257
Ni 0.8396613189753688 0.2585331073797757 12.413933784333807 -0.46250212083696474 0.7333506124872532 0.04239337736454634
Ni 5.849223908271877 1.8227974707641208 10.765439203692626 -0.6565026529892629 1.135996680398534 -0.673438252402337
Ni 0.3657352871740141 6.2902211824933305 2.3281918802782933 1.2216542677683542 0.640879087519393 1.8947101971306077
Ni 9.25024266770133 4.308045716619669 7.773238809798017 0.8344764706960016 0.64416804268331 -1.2522221132528821
Ni 4.912792764142509 8.896858824095453 3.3743050415531197 1.8226434610713447 -0.37327584227927973 -2.164941624022188
Ni 4.643642882357228 6.404636328233643 3.721812728475869 0.523598216817337 0.012010908417947056 -0.35956723444393557
Ni 3.394053870832596 2.5456106136949797 5.452021179525986 -1.6572765334953392 0.0495785822590759 0.2516518641171795
P 2.471159324701959 6.570436250194588 3.6792426553503983 -2.0292827650335763 -0.8191228710580668 -2.6239185053147134
P 6.598389418676061 7.634603825646698 2.6060825100244425 -0.17810083020290618 -0.5089506421074913 -1.816615766820026
P 7.072413745276162 0.26680672101136527 4.270442807324162 0.026638685633450895 3.2294585512131797 -0.05552451542986567
P 3.57484140924995 9.23044328681107 1.2619151792873766 -1.6219331209990389 -2.0978481728078 -0.047412427845692544
P 9.167749928029949 1.1424195966633086 1.0650728237415137 -0.9834284472490934 0.4097862785004878 -0.02202998321684593
P 7.004318853268714 4.408737036173163 3.4541971816919648 0.06000543401935472 -1.5488999072614487 0.7905430025378449
P 0.21130198851186577 2.0988373498710247 9.231928006342605 0.4482060159292668 0.2210786193160128 -1.3353001128209843
P 6.946615125700126 2.4607307146254818 12.698360550126093 -0.24160245030097743 -0.22326457122373805 -0.5854270771986756
Ni 3.9630590572495192 7.994016416908995 9.08088353788484 -0.41134565256780775 0.3169316591615961 -1.3146950349761228
Ni 6.993581316681891 1.6929359995065847 2.187369134749171 1.0066280252940083 1.4389405099214703 1.8358949267646123
Ni 4.535387544004997 6.192665935090305 10.49112463233895 -0.06969643605487352 -0.7791424740103872 0.17569787718836838
Ni 7.167488219187028 0.12952446051897848 11.82999527763502 0.219203513780487 -0.9315343294829634 2.397118410133891
Ni 2.197852977141134 7.177795130941248 11.020764156069522 0.5265398159441642 0.27419143998059226 3.5892427867639283
Ni 5.130333195881453 4.763824656290637 5.595364952607707 0.16850367343277428 0.2354402873543235 0.016246286655533314
Ni 6.771678468160508 5.302779718519505 7.405959826213221 1.1395139495231728 -1.2861948706539013 0.7270467817564124
Ni 5.400774952164538 2.344574346735955 4.390001111391239 1.9981153382918364 -2.0714719968071162 1.6532782109692237
Ni 0.8948093817765616 4.54121034065452 4.1196454800746745 -0.9296057450016829 3.996309095230092 0.1770533627749983
Ni 1.455324706004654 2.575127137546985 10.948969635065463 -0.19065398427756844 0.40935921826539823 0.10897132239509622
Ni 4.007535113329721 3.72656177146671 11.20799421643897 -0.16332187212151872 2.018651253461659 0.054802549662176576
Ni 5.078470987781197 3.533838436058773 2.696799247857571 0.9001496445240948 3.0037871703201624 -2.123178424042472
Ni 7.226474459844016 0.13352552689840977 0.724906354073678 0.19806441780902664 -1.4549528261893263 -1.3855916619866846
Ni 0.7764409128447808 8.704435053788457 1.6868716784944284 0.7279695506809979 -0.16683657014299655 -0.15939939713866097
Ni 1.869969612752783 1.7077831948219289 1.1733094392749357 0.8413731978158348 0.0055106454055840574 0.17033532732487439
Ni 2.364486064539068 4.509905787606279 1.932633015023811 -0.21843629659715927 0.06090197769169511 -0.5747354018127844
Ni 9.129040500142844 3.4960464262932978 2.340207249248813 -0.8153387214252861 0.1531369611687169 -1.9872570554210935
Ni 0.42425720192454475 7.9175430634846276 4.504585698641771 0.5221249747059201 -0.16813626279102656 -0.019339066648244113
Ni 6.645748788852811 7.048785547939511 12.189189748058194 -1.3071629882651359 -0.39929386360959623 2.1013466728793615
Ni 4.487017141612574 5.579718292929229 7.943820539682718 -1.4030746492627966 -0.6514928584794973 0.3993198317515252
Ni 9.059176301757969 0.6409897440318904 3.473584660568432 0.45372951685065727 -1.242454749453473 -1.1872300246522134
Ni 7.62079574677524 -0.06594551240820266 8.869088203097364 -0.19921704335623108 0.25007166411425324 -0.5017934622374197
Ni 4.90473259064534 0.6268671218044453 12.65304945632702 0.44188624435882606 -0.3181619320242714 1.8762504477635233
Ni 1.0826095519787355 0.4471261889585005 7.735162213186648 0.6781053188607031 0.3124219442167006 1.4267118290657623
P 5.509479638168179 0.5585222801659003 8.732828208511936 -0.17812191324882873 -0.1622155264312174 -0.2473658351473159
P 8.71042635580726 8.072876929731478 12.153374867958922 0.22470901697974852 -0.6641606837551529 -1.6117325263169533
P 8.968333184897881 5.113417129087741 0.8352436698774427 0.7350315997341019 -1.407094569055467 -1.9019735635612405
P 1.6839303236595728 9.356513387259833 5.658212774644001 0.6653914708384605 -0.2509039302075614 -0.5504826999130068
P 5.219453813411134 2.8143298706476596 6.579561752081975 1.034297980405451 -0.0828550849240186 0.8011169213989493
P 5.08842216597805 7.26105550618379 6.264403351496996 -0.24267588587081435 -0.16735079077525372 -1.7644480836775356
P 4.47954673690788 7.762770881802042 12.037844778358549 -0.46816857509412274 0.577002086359774 1.1214246961216299
P 9.062583854781163 6.545375757219066 8.516839898452238 -0.01239117457550124 -0.630417525866437 -0.46723449331562755
