# total energy = -340861.6703553477 ev
CRYSTAL
PRIMVEC
9.36040148220056 0.00000000000000 0.00000000000000
0.00000000000000 9.36040148220056 0.00000000000000
0.00000000000000 0.00000000000000 13.69989373308374
PRIMCOORD
 96 1
Ni 7.833523297783658 1.1296225919157126 9.5000407247551 -1.4452492257483174 1.9668124144134966 -0.37264000846749373
Ni 6.280033652813039 8.184903403002574 12.332219224771304 0.7456877938963673 -0.23678754541083735 1.589971737601094
Ni 1.4564503644675562 4.323803380570806 10.723235504524284 0.9597598999875601 0.7494423758427932 0.6991078892542991
Ni 7.222055081437307 3.198271284032719 5.559800381227809 -0.39622936575165957 0.6706437203763354 -2.6931025205095422
Ni 3.923964477708951 3.556016462150456 10.370162102706255 0.6500738666447836 -0.13990760696263646 1.1549112579148497
Ni 2.9043359617256685 0.3037805924173163 13.688330767269862 0.49619539932435186 0.4159160455473095 -1.1232203545694721
Ni 4.867764382584361 2.761271587923332 6.4419779560814385 -1.3810809186005246 -0.9358183015702979 -3.2028900566960323
Ni 0.31049668036570527 1.5494833932048904 6.554261586177179 -0.4745009450700538 -0.10910836219359274 0.057950351262538904
Ni 5.132813506412348 2.2754199573154894 1.8694322068253457 0.14494774048970518 -0.7444665198947565 -0.6580849098747182
Ni 3.05414918488102 5.245877793978327 4.591300249344443 -0.8628629922584946 0.5708787470708555 -0.089922019073129
Ni 2.4245966731809587 3.2781529489129295 8.467492982867475 -0.7314240848885016 -1.631778903444867 0.920324319699757
Ni 8.442286358148008 9.142210366985335 12.100060679107846 -1.959998991036089 -1.3263071652937546 1.386810107774818
Ni 7.6244493738600125 5.766568838305896 6.322131121717685 -1.0867346009386123 0.12492758861403647 1.5252624703481668
Ni 5.52069917678627 8.697020319719377 3.1225344048577997 -0.9899436226597917 -0.3891254077170266 0.5038428885672805
Ni 6.305634350428151 8.36876976616662 9.764502951420212 0.38162421424397497 -0.20490226666646646 -0.31523987328147
Ni 8.64310440810583 4.870759711007336 4.567845891752418 0.949632581745571 -1.4889479521878486 -2.743770993398688
Ni 0.9129433419181082 4.021434336672817 6.075546325537074 1.1329648355507456 -1.6382357148138045 -1.7574577684026313
Ni 0.8918038115729633 4.063322132587856 13.675343210435871 0.668753445332158 -2.186472299005112 -1.4066600526212096
Ni 5.0471845551205545 5.690609181579518 5.855512307705737 0.5304810599800992 -0.6863685873107598 -0.7553062908227379
Ni 2.8911190750592914 0.503507219581015 6.616965978591761 0.5376030157368612 0.9268662345833328 0.11629562397065132
Ni 5.074891343033072 9.049317744267828 0.5631863302883924 1.486763285831704 0.38361836185586834 0.3852661818719365
Ni 6.775666902802158 3.7971404001999316 11.635936412048158 0.00756829926556116 -1.1473010496677596 1.3353965291895322
Ni 9.06933964269515 0.12436510008178363 4.1652877923065805 0.09713499188180046 -1.9640150541740173 0.8072829410003451
Ni 4.392658492693941 6.763329893860031 13.939367370319122 -2.388209023459403 0.1336631687148214 -1.6504751943027898
P 1.4458356693686387 6.736119207217568 9.46790085077658 -2.4021184344516437 -2.2126700404464024 0.7376381841190135
P 3.3779722686085667 1.2491923584003397 9.076645435926812 -1.2033297584275535 -0.1071322123038284 -1.1893550414150162
P 3.1420246324900445 7.791551258256722 12.34579648688857 -0.1378566379708787 0.3468788403429897 0.5065114365383793
P 2.8905761717826275 0.8287980142358194 2.054682973344886 3.215656869443397 -0.6032867310879159 0.4587699074880422
P 9.531041437892759 8.224722550225495 1.9026279340729646 -0.9253989060091871 -0.7455142444329805 0.33618922183962746
P 2.718157579435138 3.2238251796412234 12.473684842027877 0.20852520813103442 0.6683312701930747 -1.3159823863289786
P 8.5098778160927 1.9532536646219003 1.4653951639706644 -0.44827029350829894 0.30803512800291466 -0.8421208746151367
P 5.958382182192148 5.017399758114598 10.20283088847716 -0.6918285819840666 0.4797732492125866 -2.0011091308128375
Ni 1.6378362212813267 1.6271372825705133 4.542350030632109 -0.2921634510779807 0.7124732548176117 0.9076454386805078
Ni 3.434574615401469 7.90815377752234 1.898805146173143 -0.513073148916297 1.05231112915342 0.5985227340403693
Ni 6.361824839562894 6.05453222456964 0.1517732911921357 1.8979754981454409 -1.4151601196724208 -1.5040534403707195
Ni 6.85535199925461 0.7590134142614307 5.824427350956184 -0.7692259862276237 1.4155951503273103 -1.153114571025743
Ni 0.9474785425948762 8.611185439598502 13.421812996474488 -0.6719413561418363 -0.41732706696222316 2.059843668539569
Ni 8.136875183820436 4.488368596209309 0.250479659170611 -2.4201989461024382 -2.3210178703248863 -0.016015401591649835
Ni 2.6327345569724234 3.423463819032497 3.1367687671478555 -1.0461674781495274 0.1444378907328222 -0.3722569140964621
Ni 8.381930490425065 8.713513346848382 6.673998903845466 1.591261402946795 -0.3649110152543522 0.27967534591329896
Ni 1.7099581134657682 8.123695738759345 7.924415602738697 -0.620334173488506 0.5170971824740256 -1.2739350794499413
Ni 2.710238679916898 1.411389392504428 11.034620486975427 -1.2188371100345332 0.09516526974993933 1.33676744139513
Ni 5.392480399480303 1.5090745406986954 9.179175527845242 1.4332843400769575 0.7122670523440766 0.5515005996545599
Ni 2.7518269429896396 5.5420408917999655 12.265980344817612 1.0556291377830593 -0.5765925096261811 0.6855219230397483
Ni 4.102149077270667 4.325366567591547 1.1139495359424967 0.5861783535424034 0.9833364017559194 -1.159794297038764
Ni 2.7319922525887526 8.691310474913081 4.135216567020177 -1.3081739460281534 0.13236399028742363 -0.7270982038196381
Ni 4.729595498673324 -0.0517330660253044 11.43053363752292 -2.9870580304909393 0.9229951816637008 -0.7760671775191731
Ni 8.426626406736643 7.335643551477306 3.992752194942568 -0.8984141498902269 -0.5299352147789583 0.28705209799334436
Ni 3.2394757706512665 7.3728698675340905 6.10476856242359 0.3109569296354 -0.41765693949781624 0.29177495739031045
Ni 8.380938287884955 3.602444052706566 7.492198135664616 0.8937290857097316 0.009343131777796812 0.9703723853960837
Ni 4.86296249670628 6.573875371106871 11.180071763114821 -0.008943839456849113 0.47363499752533267 0.25592426624028825
Ni 3.766990547542425 5.645651174030929 9.06294555255223 -0.6202588401658802 -0.13618079293035257 1.0813849065909247
Ni 9.049561114702195 2.8898928624861364 11.601028667398783 -0.05277214949570912 -0.2063873358524252 -0.6702647397703618
Ni 3.1127827387607523 4.729866950311656 6.993193269119384 1.306097523115099 1.290119659629604 -1.844171564951108
Ni 2.473720059317746 2.758051609868634 0.8272872454624816 0.28449616434071 -2.3199236088194435 0.6316992207923379
Ni 5.930694115082274 6.2584579277662975 7.973269409317417 -2.120054790811826 -0.22151082175742495 0.9089507877554927
P 7.637488412901275 7.313946141213383 8.12122833697092 0.5520518441723397 1.9680838249267523 -0.20154671993067222
P 0.06875027562833028 0.8235571255357457 10.822627989919646 3.657806394765939 2.2257315016160506 -1.802494754037612
P 6.113418509285062 2.3139286483533597 3.8197766587164317 0.2093795857115297 0.326824749905592 0.201286267180434
P 9.170628545398309 5.698191106650174 12.603162593311627 -1.542994340410291 -0.9727177456998086 0.010829743625652316
P 3.954956766485419 7.60895790967244 8.255706414640773 0.8197216809843301 0.30472637534465585 -1.0546513472508223
P 1.0688455061332884 8.920771352915597 5.696470664887227 0.6692825783627505 -0.05740990537803661 0.7388489165976629
P 4.586203510824725 8.914827498076257 5.067001460758929 0.7702986504665121 0.4472703914888748 1.4594998221300606
P 2.837184442643101 2.775209225491487 6.072573462077271 -2.222976050358101 -0.045040842289722424 -0.9620458678082594
Ni 7.095830069612882 4.315631750216879 3.063529243045592 -0.11563845000262665 -0.818331742615339 -1.0822819644838975
Ni 3.891231154286629 1.5670154248806152 3.8682607294429405 1.8810686950877733 -0.41036991891809965 0.8086389408076073
Ni 8.536255427017522 2.109169869439063 3.673654241802265 -2.118253475937029 2.4303002962024984 0.19983256545304295
Ni 8.981211464250437 8.582308601520761 9.258032228780715 0.7436465950966226 -1.9563503385399084 0.39305996688474243
Ni 5.249790441730838 3.90441995974904 8.233293869715864 0.4831228824111099 1.482334817746705 2.0323302936106478
Ni 0.9646642394216943 5.219453381046896 7.916647405681739 0.1648208252645484 1.9070499496428834 1.1681555245192654
Ni 2.9023983586520563 7.953626607143627 10.111699893288415 1.3074159848162064 1.5843191673010069 1.3631235627911555
Ni 7.435650079199379 6.543547670824251 11.344457259047944 0.7236572964588892 -1.4349236754525934 -0.1719024147016781
Ni 0.5320227461677356 1.5968376634918584 13.441705721363569 -0.14516499870683386 -0.054315068502796784 -0.09973643406038953
Ni 7.047979698055859 1.439058738811658 -0.058329340836774324 0.06997900029229884 0.2414366141470745 -0.720331831630082
Ni 5.589750857337162 6.2774408216469 2.2833613217969013 -1.5659303803811742 0.5163927002078332 -2.4959364461450693
Ni 7.338105337024938 0.12306026013752522 2.08894578634319 1.1601511661575503 0.4693032029191982 -0.0992497242319581
Ni 6.3737219096428985 7.7788117520577575 5.719966208245069 -0.4000384550851046 -0.1102537886519456 -0.09389565900889636
Ni 7.821036522420381 7.850952365044842 0.38019797276833 0.8001399021976607 0.4430779506740821 0.18544955725849352
Ni 8.192485328073229 5.5184058784624295 9.018448076748676 -0.4871476872997868 -0.6067345804272003 1.26207920855262
Ni 1.1466678827227037 6.379366231639941 3.4386052042106345 0.44885650502907215 0.37143904618085705 -0.4890598167208352
Ni 8.310183014293496 6.058117258275889 1.8517045427619956 0.3856446482572778 0.7218372125310148 1.183666732780987
Ni 4.671298919241177 2.010024498638596 13.006390897492103 -0.5530219213950928 0.08132219321925994 -0.8746790110568161
Ni 5.2662273064519125 9.222597493536922 7.4894162243917775 -0.46929960337477244 -0.6319121081340924 -0.5370803104641718
Ni 1.1785213284207767 1.0650171019926737 8.735051630289835 0.1407756113898866 0.27649154886867866 0.9785515787727663
Ni 0.9717968652289032 7.093695898111513 11.794142171028632 0.8306650673697114 0.9687027110031445 -2.818601922466649
Ni 4.832026370337743 4.377925221013433 3.332471357783314 -0.307809899365986 -0.6601942429082372 1.4370052405719702
Ni 0.9412632361172033 1.1225274077137908 2.3552445237476367 -1.1319531064567794 -0.1937349371957373 -0.5984533142550145
Ni 1.290331322209635 6.059334110447723 0.5619273563106107 0.7859147597372143 3.159803509919203 1.344543228685807
P 6.440274363040871 1.2000596118622304 11.427081521515444 0.5877428698160458 0.12347208711443251 -0.6559357247421994
P 0.2633923327940292 6.140226698670687 5.790835678732654 2.508170526317416 1.429076729753513 0.24728176007394184
P 3.0100242530500716 5.8484723498716145 2.2402342087468563 0.020665241658835376 -0.6567037132564755 0.8208182564826186
P 6.403497346247533 6.448848490651636 4.015794694876434 1.3963041633081825 -0.6308885519655844 3.101116794711272
P 5.979106110718605 3.5259227719008805 0.07706980032314292 0.5514594620039793 1.2145662505733212 0.858938460393108
P 0.24668495247475475 3.5825812811017146 9.268553319866413 -0.9181085429953608 -1.3395375479410996 -0.5036760239721132
P 6.645903659278095 2.4194110108486835 7.334648540816799 1.2801918589929309 -2.50166049311304 3.7685222106559677
P 0.39730223410364857 3.596827811913488 2.7734064121969086 0.5290759521024565 1.605337678534203 -0.056077559719858255
