# total energy = -340893.08829166985 ev
CRYSTAL
PRIMVEC
9.08097866986911 0.00000000000000 0.00000000000000

0.00000000000000 9.08097866986911 0.00000000000000

0.00000000000000 0.00000000000000 13.29093020274756

PRIMCOORD
 96 1
Ni 6.217546417968102 2.091976010271827 11.390633159536053 0.4988066116949538 -0.8781194041969329 0.0753052976012187
Ni 4.787301334463801 0.45921874234918364 5.939810129281007 -0.38934883658174235 -1.2174736540281033 1.5232084160326154
Ni 2.994961301406483 1.7028288248077297 4.639638262131035 -1.7913369376485795 -0.030805672526946947 1.9371927917748506
Ni 3.6953862789350405 4.372046334886123 5.556260459162861 0.3276343902910809 1.3500834417777459 -1.2522215990322496
Ni 5.138989482286674 4.454719566082659 2.740735666889843 0.18037291406653452 0.23319777117705 -0.03137131522242984
Ni 7.175989246769416 5.96430516155578 2.4912521195141113 -0.023308592818953405 -0.029063235914543496 1.3849547997336342
Ni 5.249986286429387 4.385413535712276 11.571110348842533 -0.0017141544776293057 0.6573909691314873 -0.7638639505847619
Ni 5.400458105511833 7.745947801560646 12.161001652148306 0.5010113326557565 0.4829297925636974 1.3378604173489927
Ni 2.1277278238944937 6.361843171451511 0.35476841583933394 -1.23533819301335 0.7518975222515051 0.12989521703195694
Ni 2.5713972062065698 1.4026843127791822 0.4065572380618562 0.45548198076538976 0.27917243813495146 -0.9879584739089631
Ni 0.6887822545807238 9.17787286614704 4.58780312691652 -1.5544069531226068 -0.3767028656829577 -0.15387949576169627
Ni 8.94529991753385 2.611980100562602 1.5326830651071706 -1.2192520860847647 -0.8763733680401036 -0.19286281900342914
Ni 7.061923071784829 0.7520921146348634 4.938337990428984 -0.3125510135953972 -0.4859253848569115 -0.3850684640388336
Ni 0.5720735147589009 7.479993174797362 2.4753431527156478 1.258684323938458 0.48338256383039974 -0.25822283246647787
Ni 7.7815815624586255 3.811332216535806 3.7248095584165757 -0.11225693512490346 0.27651880256218825 0.20169070170770428
Ni 7.6608408680397835 3.7315194936682365 12.614222407985483 0.4122810198978835 0.13209402445548862 -0.07971988172914658
Ni 7.903057816162059 8.68898020930083 7.223833291791611 -0.423606986433664 0.2426157220568402 -0.4413164878982851
Ni 6.860161884315075 0.7052233667381632 0.562752798095882 -0.295723143404781 0.027451668453049496 -1.4258204275997444
Ni 1.7763030244574627 6.337560634081176 9.381695435809412 -0.5344410730691119 0.7606539282878964 -0.3410712325222771
Ni 0.14963182854140109 5.111010986535738 1.371757223204705 0.21984577535017621 -1.1733386113821018 0.7551859631947896
Ni 6.273058441507692 2.0970795203698556 7.199883118246166 0.8739989542706561 -0.41552266676363275 -0.6973348565142764
Ni 3.628395898164298 4.349997718306027 0.7376052291199433 -0.7597159898546594 -0.08768978730850059 -0.10609580061951406
Ni 6.052481465918517 5.424495456453971 4.86354977314369 0.32195816584191006 0.9839519238527312 0.36829844366934633
Ni 5.138971320329029 3.1225762967936666 9.235707804069325 1.2251607382597158 -0.659588233893122 0.3054552830908804
P 0.17830047868281837 5.642157437841247 12.618702054838433 0.7952512066467916 0.5968949686289591 -0.9791686435314749
P 4.113202114540555 6.001355555150009 12.650293872062688 -0.3006396068697919 0.6626486179860007 -0.6733706323891951
P 2.490458441965058 8.412255541654517 1.1676268083602628 -1.056310223010484 0.17523816394313046 1.5143774480045467
P 6.3423009050263195 7.685196053240697 5.91333453552513 -0.5722974817952531 0.9987673915990087 -0.734740036635612
P 4.572745047833688 1.0408890355272957 12.663691948216837 0.36462202325902365 -0.2151316577039585 -0.679584731619707
P 3.9468476634982292 5.886045286066792 8.165402753843553 0.6210242575769949 1.076330889106785 -0.8540798467492258
P 4.841378563349497 0.9864304055310718 3.9132217070178195 1.243360291986878 -0.1250288900785911 -1.565644216599323
P 0.24280357935418392 5.673350600095212 3.552904813118173 -0.36802307852077265 -0.45823820335428816 1.1812097866000626
Ni 1.604064099138406 1.0867025736848663 2.5864017075143506 -0.3122777053293525 -0.28778846193873664 -0.31686815291351234
Ni 1.8469076347994076 6.7220492774095275 4.803780586732294 -0.1033622037384349 -0.9428088739555183 -0.8190035718713831
Ni 6.067973615789045 5.675811545356006 9.190372833495681 0.2424496287926212 0.35106202518640184 1.1348556248155552
Ni 8.470718883311294 2.336445041141987 10.154084446209586 0.550985093470722 0.3737216715674467 0.3586339239963888
Ni 2.0916036901401203 5.585973421868822 7.084877061953488 0.9210953935378267 -1.5488716251266743 -0.1832137259494393
Ni 0.4156127901432693 0.18909503820866655 9.334393525222897 0.19607541240345586 -0.7073194785308141 0.20534783884431732
Ni 1.4619831044875937 1.1351768386373167 11.367001728347264 -0.46364908995721443 0.4785506896593952 0.6820411635799997
Ni 4.099044868556878 6.796395251026183 1.630584189690511 0.4102470201869902 0.30430831397063074 0.4424238620298509
Ni 5.471108120747888 7.6899454051646625 8.021302149502702 0.818323772195539 0.6259471487999091 -0.048144163805394505
Ni 5.477219619495172 2.9274260619064134 4.931373787770304 0.10062757841609123 -0.27184710811813184 -0.14624949002026427
Ni 0.7716443701367595 7.37741443802275 6.844948520494387 -1.0722135245043016 1.158035148255812 0.48823115017195273
Ni 5.4946006129607 4.5032937218021525 7.1987271096421095 -0.8668212055752942 -0.03172381346584214 -0.34041791520899434
Ni 8.270210870918994 7.25938895627172 9.337025192885546 -0.7203464869181013 -0.23308464263795345 0.1902462073161885
Ni 4.601168511546908 0.33288688926956544 10.282873612158467 -0.7938877506403618 -0.48236003610315636 1.1397108960253273
Ni 8.191960076408828 7.32061291549042 4.732953492409207 -0.014460141289387999 -0.47160973956518776 -0.23378783935256509
Ni 7.402496101529432 6.237969539339039 6.991733462175055 0.3147541918943031 -1.0652723172997782 0.40671535288464794
Ni 2.37853537798249 5.335156786802003 2.737985038404624 0.3366792741021686 0.006670212931323996 -0.0880551410677193
Ni 2.447441845284699 5.108214045058525 11.658245973032257 -0.0736587631367312 -0.22610589732727512 -1.1599549909863442
Ni 1.118150003345851 3.481456579843654 3.7005143076758893 0.13555472931057946 -0.2436757878902384 0.2835605399003181
Ni 3.779512466743115 2.519808165518134 2.6179680979979048 0.12735625266018713 0.6166713799249379 -0.7596900217127303
Ni 1.1425233505044077 3.4431711731296164 8.146569711864368 -0.7197954995106378 -0.3652370311352032 -0.29886297458534333
Ni 3.6267249980610288 2.707148758618368 7.252661767160298 -0.27386542409974124 0.39756762494710884 -0.8536291323650523
Ni 3.968269692539599 7.010352193054036 6.023768318980871 0.9691266859144407 -0.21900810994022923 -0.48186664140650554
Ni 0.8505680651776437 7.532027183448081 11.341190862241167 -0.6607778833258491 -0.6433645729454082 0.7576022859457662
P 0.06958844881175 5.59313831415947 8.258625358137738 1.1293172114958294 0.41843341265252454 -0.7426407795399275
P 8.517749272631027 1.4768940717135068 7.999532318972445 -0.010576747074581784 2.108660175821639 -0.6796852617533132
P 1.7596031044035931 3.2187801864351533 10.557756657299656 -1.0489273002828514 -0.5064492158418762 -0.19393162658757568
P 4.168587004376635 6.099312073704164 3.92725726788528 -0.9062593569662586 0.11500518729400191 -0.3914666542556936
P 7.015791699368483 4.0188507445787796 10.250949431109321 -0.4380357602644844 -0.17192041242380715 1.116034378343994
P 6.2795876652807925 7.8514960184100895 10.197147355881937 0.5186213324280359 -0.41552292387394885 -0.4060046999708685
P 2.2905951790691277 8.64385682553374 5.686245590022616 2.6991893501335706 -0.38636378581148945 1.4653907336931988
P 7.086296418943385 3.9162901697618118 1.555663390114415 -0.7123084471049732 0.43615062742662947 -0.23867602068280183
Ni 5.354544676587219 2.8692442305931225 0.3345968375817697 0.5368707655565269 -0.47783540875992536 0.4413247154284013
Ni 1.5091678704473037 1.1029030399035196 6.958878480796642 -0.49318720862564736 0.4204103338732372 -0.19341226374899595
Ni 6.705694434550899 0.8034949952574457 9.2004336499327 0.3509373266830795 -0.6878071195294994 0.400315105785259
Ni 2.5437365447144074 1.574859671246484 9.06654097388579 0.3469372043847509 -0.4859462107925179 1.305791047618274
Ni 6.319916292229806 2.1279276054285803 2.637345998706416 0.7051034447161018 -0.6118433624086753 -0.0757549835441276
Ni 3.925916007313254 6.840238216779355 10.127396357549271 1.1704831442111776 0.3639723054901667 1.1856143434256614
Ni 8.034795575934481 7.082664027414539 0.6387233588238145 -0.3835792810878168 0.38473499195881483 -0.9317585296786275
Ni 7.739273282126391 3.989210429703396 8.115056899155864 0.4170864117063268 -0.9894648832511604 0.7812613201256029
Ni 3.0332103842052316 8.36765885465911 12.27526397627545 0.33026154350128284 0.08498447256219557 -0.028970933311053326
Ni 0.18119640282919086 4.8652252137363705 10.530629957362232 -0.7917879306885396 -0.7528076927706002 -0.13918898362905707
Ni 8.824114255152724 2.366148922869125 5.577578965045658 0.6885866780080012 -0.5337792711153969 0.9445795927026958
Ni 3.7125402479300162 2.646433334213707 11.273406803921372 -0.3381813125689918 -0.7007806489710318 0.7781461715353889
Ni 1.1279756224313793 3.4024429831124308 12.848821322973885 -0.27608788567235676 -0.11167098071444641 -0.5816221016302886
Ni 3.2090817010531345 8.272099714513994 7.986918839388528 -1.3467757175607518 0.7266346339196582 0.1734049673891336
Ni 5.834901213340641 7.879329218499872 3.608075391854051 -1.240799473238237 -0.12852456193667544 0.8813155425367273
Ni 3.191827841291116 8.445591814910502 3.46879951156139 0.16641285234201664 -0.3939673091903602 0.25557691020319856
Ni 3.1620785546698666 4.24485814550358 9.260468909023588 -0.019516215656056712 0.12389786179794147 0.27926268385591263
Ni 7.409161539984865 6.3875150985816305 11.661249960826611 -0.06176175458882912 -0.6797395120300165 -0.9642202497517588
Ni 0.3235307567891403 8.874014233780246 0.3315247424462482 1.2118750768944033 1.1636782054742023 -0.16179463684371492
Ni 4.64342230600621 0.48253687976861076 1.6420017043635562 -0.12541429844246788 -1.0784772460258265 -0.27845587168390107
Ni 5.989305096253062 5.433667245064308 0.32300950860475086 0.1406408855842352 0.8505810895673481 0.5021048228302514
Ni 7.8854952031200884 8.990014657253944 11.51552749366813 -0.3947892908710233 -0.7974255885902912 -0.8449760846757447
Ni 0.07589155621218008 4.823243848641733 5.845922797337041 0.0838398174347911 0.7143758711569632 -0.42824397098504313
Ni 7.70706305024435 8.839524676213854 2.515693574013834 0.7308283602860317 0.2677559687678937 0.6631438124548644
P 8.64226765423987 1.5672407300147295 3.495740959530841 -0.7719385000627802 0.4167701660174887 -0.33357261015238676
P 1.958240435158538 3.198647656386524 1.6874692572280043 0.33586192040719576 0.5401782326632052 -0.6733660044035048
P 4.59954301633775 1.075233297432535 8.285738436606927 0.32571763288434225 -0.12430820986248269 -1.0073103960730136
P 8.506615992595115 1.607369575429656 12.55874670836118 0.5077437662835835 0.9297669531698955 0.4266185195664782
P 6.049775334229527 7.662302905630145 1.3551163295131792 1.1776940601373203 0.5103884029952823 -0.2537771379902984
P 1.8520656307703687 3.4530966829821885 5.8178525837000015 -0.4235221400293416 -0.9721688151748741 1.0512718892556283
P 7.241299646458067 3.789973754346191 6.031570695984833 -1.497994121550517 0.5440323163019727 -1.3719632725699726
P 2.344463545441914 8.500295631334923 10.104642148914696 0.3100513871019951 0.1717167810534333 -0.2012276460283567
