# total energy = -381163.210158987 ev
CRYSTAL
PRIMVEC
9.27598202553608 0.00000000000000 0.00000000000000

0.00000000000000 9.27598202553608 0.00000000000000

0.00000000000000 0.00000000000000 13.57633732500374

PRIMCOORD
 96 1
Ni 5.148262886885472 3.7553906740751883 8.949779310102706 -1.6128363009040936 1.904551608701062 0.8199173419349041
Ni 2.498226081010737 2.4289808738061818 -0.23751801769828168 0.31636293114231967 1.3684963970672948 1.3340027341657992
Ni 0.08631208687443583 3.340383229958405 12.40784970916578 0.5249714430157798 -0.9433266941322012 1.4302604656489692
Ni 4.2884813717370465 5.795151334310958 1.6241103905517693 -0.26825399145023476 0.18715214177189704 -0.6523775750772959
Ni 0.49580588716504553 7.58552721280601 4.589168828291728 0.06944472505538363 0.8151710854991704 1.6167942571105767
Ni 6.6143504272865865 8.546389106106885 6.346217957899368 0.6785385497433798 2.105870014671012 -1.494211257469317
Ni 7.318926208081815 3.5653443505377576 9.813438185815297 1.057590118164172 -0.5761574789712915 -0.25626236630599736
Ni 9.431818712068516 8.51775414902176 13.034831898766619 -1.6689408572071451 -1.549650412274228 0.6316624540171316
Ni 3.96781066670537 6.301239647756814 11.179692967671333 -0.7234472373306121 -1.0441010825388017 0.035829350993783454
Ni 5.2493247130734995 4.810357406905897 6.669688154362302 0.994274388824662 -0.3637784443118057 0.03752807885244505
Ni 0.9611494487494134 2.326564754215359 3.4690661483759033 1.9971370335389669 2.9709899212844832 -1.7220935299707245
Ni 5.493709740402529 4.471997403797986 3.924105021322155 -0.5177831527974567 -0.22469950389805174 2.0461823690023917
Ni 1.65989063673397 2.8507319569903076 5.981856449056014 0.5439562116483987 -0.5994372754348385 -0.043731122339363396
Ni 7.327627079395663 3.6828339412213333 0.06641788782666502 1.1197825325325166 -1.1446420147783578 -0.551194895488683
Ni 3.330522860868191 8.058138506452638 7.975854051054185 0.7325911086134093 0.5949874671936012 1.451530687881655
Ni 6.0337017688293155 4.295401254466396 1.7832111098353334 0.5780462113535721 -0.016927114772641815 1.2142368922583604
Ni 4.692793608364634 7.192726470102182 6.279395637248307 -0.5250555180891538 -0.6163847019224546 -0.6787228978400439
Ni 7.17476816854183 2.052329616131573 11.618942263698148 -0.20235507476458053 -0.13881488811908996 0.12750023443721914
Ni 8.059038276727097 8.862598063695106 1.8168263417695043 -0.24780806489105706 -0.7743131709425438 -0.2033935433314239
Ni 6.935920902592723 6.3329449549537555 5.371994012223656 -2.1490198105856084 -0.24634330742007252 -0.15271787135342732
Ni 2.531359889468161 4.707876355439598 4.61156939773289 0.26815063310315107 1.2181125731636828 0.9830098716544362
Ni 1.9886128943247294 9.197219845972013 6.359400983817535 0.8693082336632061 -0.45925995975058326 -1.8089898748436524
Ni 2.3213238242661864 5.836197555594301 9.02932364035605 -0.011994453357714827 0.6518654113275677 0.6237663390985064
Ni 8.662663543120829 2.5676753598239324 6.686509220503593 0.38681989951230156 -0.8997158994207859 0.9685780124998222
P 6.539539630755477 1.4785730124570198 5.412776795612208 0.28441568881176177 0.25351308569563435 -0.048770484535483744
Ni 2.7937681502330176 7.143396796704482 4.422179813735993 1.1094667524288053 0.1658281834831402 0.1865445900948852
P 4.659696903836053 6.320431654951218 8.959717597443491 -0.6162885426642225 -0.3236327253308556 -0.7390558904021466
Ni 0.9908233158421624 1.2883226173109483 7.743196648034428 -0.7226195992229942 0.5514967429998179 1.3293043002488654
P 0.6321841604247278 1.186722784154687 12.322644246969107 -0.028076703631558095 1.1963024192671268 0.0963592900580405
P 1.3608979021292253 7.196436862986551 10.55649816160721 0.09232805741146034 0.4831853602179292 -0.9613490988515506
P 2.6517157586549125 1.690083958830531 2.1518219461295125 0.3760878578067781 0.7431190047279267 -0.3704003205036976
Ni 6.220130459304486 2.2827913941620044 7.757831365168605 1.4345953455788971 -0.7893104156823245 -1.9388357266949126
Ni 4.130938089866697 8.455623620172984 10.359614511582109 -1.5006809243540606 -0.6271349984604232 -2.005090741168405
Ni 5.216070316847334 2.2205866574555415 2.987419120457614 -0.14307006385101811 2.8741686039883594 0.42644239899993003
Ni 9.199056490449777 1.0397541220047917 10.300014470680473 1.5623058962547092 1.797378258746653 -1.9110001925398832
Ni 3.3222579607182574 4.1144824974245156 10.389876475947029 0.16504965344590283 0.1475414693588104 1.0376866943720258
Ni 3.0016429115798466 4.733329650626376 7.029012804865124 0.16548494121110854 -1.5544997699467293 -0.04225196669067562
Ni 5.644398071419006 4.0186059452923955 11.461198620612041 -0.629185967452181 -0.12335098815553597 -0.13642170529656505
Ni 1.315686764833177 5.988926602697181 2.857520120772263 1.0948880832836823 -1.2757999005728222 1.1373632217287575
Ni 1.0300328926477424 -0.28419754297831945 2.6825212955773945 -0.9261116158054953 -0.4456269423481809 -0.36971743550406005
Ni 5.493236665309771 9.53283415834549 2.4316579222722545 -0.11883741655589856 -2.43201959288645 -0.6501008632279771
Ni 8.02968906901173 4.983818274250194 11.47978490616807 -0.4240954960343083 1.3182048479015942 0.9620517813455302
Ni 2.2643600175088965 4.806925293487855 0.7237668603914111 0.8633964961644613 -0.06266164069527919 -0.6244587371798407
Ni 2.955958699191041 0.2363483163414841 3.748277850915851 1.3190957351469799 1.2104272887042833 1.4849704555973393
Ni 5.354403039558858 7.944275824813533 12.09955780239458 1.8604433055279377 0.5038966246233516 2.2466098877269567
Ni 9.004047516429502 5.549003870361853 9.325260866420518 -0.22500752205677377 0.29905863553591716 -0.039309339122583914
Ni 5.982730246580283 5.542788962280533 13.228891939806719 0.6103222977784585 1.672113855618488 -0.11838438817887997
Ni 4.794718100898278 2.907361828388005 0.5307438741624945 -0.3214503729675561 -0.46840588791590937 -0.5356626041810387
Ni 6.337184078824148 6.913408093766808 10.193087440940477 -0.08106431157218298 -0.8444163555175328 1.0504432227067457
Ni 6.688651044796096 6.876879275820185 7.786246481475331 -0.3434816417359826 -2.639227624867958 0.704961776931915
Ni 0.3154056575287555 4.6524338097649 5.07612450082933 -0.26123282293739525 0.11329360391953393 0.32520469780366573
Ni 4.4738804281868045 1.872078729808879 11.87243908835297 0.1465852760931282 0.7807023622983393 -0.33593468262666015
Ni 7.160288360310576 8.911232038426986 4.0333538294095455 -0.0838048504317976 -2.5240362897050788 0.7975284327167426
Ni 0.7761232867845351 3.443383736428516 10.283776863820249 -1.2274189381662732 1.5533723412105054 -2.0166308805975204
Ni 3.3860674423472106 3.9865945306824933 2.735238557678523 -0.30601398380782785 -1.591355762432814 -1.2909809791886349
Ni 7.172143065576138 3.734269262580912 5.69430934890133 -1.1477571633685717 1.1356426394932249 -1.7639639449522655
P 0.6707481288684274 7.133276700112363 1.3672593707294776 -0.6078602093912112 3.28315912606043 -0.9005589641473717
Ni 0.8716909487090319 8.119972203870663 8.13640738915198 -1.1762426724027741 -0.5014247660440913 0.017226391180615495
P 8.320018036231472 3.874995188702855 3.5880899865171667 -0.38590175857340636 0.5878035478506523 -0.12037365069476688
Ni 2.1450152303831356 0.07676617358117294 9.623831543834665 -0.757116090337967 0.4748835252204531 0.4321674744091654
P 4.917096134207011 8.301410415916356 4.308287448953814 -0.529460589135385 -0.7954738641805591 -0.490057404747414
P 4.030970829579559 4.841747330707667 12.907173048785207 -1.572775942548098 -0.6170251637199309 -0.16094051637353574
P 6.844719445494909 1.759820793092265 1.2283942066390465 0.05271301412299953 0.6691964464068475 0.5075200803085517
Ni 5.4997391288396305 8.778594768792969 8.25936888174178 0.5019073621074647 -0.061727816027100146 1.456535340185098
Ni 2.15879933994857 6.745540643695699 6.740352586845128 -1.5184917272832363 -0.8540430799740195 -2.1393285514397737
Ni 4.36573175158963 0.3507443669577164 0.04210832124649394 -0.19314178369642868 0.02439231280143541 1.011524177044045
Ni 0.8931203228127107 4.145798213368598 7.877262418928927 -0.7924713299088094 -0.3834201298021332 -0.42634366863853673
Ni 2.681723561107255 2.605419331440186 8.743310787659052 -2.1516402789275912 1.4782884155914735 -1.019603868728386
Ni 7.776612446351065 0.6215928439362937 8.292508255788531 0.9266836862588814 -0.43752179674254327 -0.5232835137903956
Ni 6.897768787759189 0.2248581571768113 -0.27422029651224855 -0.5864012681864867 0.00020157448784481412 0.9855364947310317
Ni 7.884334427766536 9.029890402869137 11.315850472554393 -2.3968229903806595 -1.8217536022672238 -0.22576548326872087
Ni 9.3734727839618 5.482513629873943 13.85492426882916 -2.667401259088696 -1.0388287783962689 -1.1977838889086598
Ni 3.710235192672405 2.738446192327061 4.760270813359787 0.5133683115592126 -0.7151307470451168 1.10941995835127
Ni 7.4526951475455645 6.114430642010996 1.4813548795220761 0.5013198650351108 0.597778656785493 -1.1963188743273592
Ni 5.89926495864638 6.57125421393463 3.181125746575476 -0.8587096322117534 1.5326304806774635 0.7033967464376403
Ni 3.2349616921312423 7.871756195888522 2.051357493195868 -0.1169376284300244 0.1685826062998258 0.2767188343881363
Ni 9.144996066124506 1.7917951037733233 1.3809034129635271 -1.1167188060055284 -1.5164214750177691 -0.9492890823632232
Ni 4.547318379350697 0.5991839261111411 5.86351161281259 -0.19227403637949467 -0.10936521539940522 0.4641440273157619
Ni 8.69927584490735 6.2081829942168145 6.639263860308689 1.6947233654878875 0.32060833668223493 1.48552761365239
Ni 0.39247886612111005 0.9332009143478964 4.79117096530082 -1.048600513071052 -3.518439233687805 3.72654535200355
Ni 4.350305793172862 1.310380903008528 8.955114855070429 0.475736874359684 -0.6353175342712155 0.725994429232498
Ni 8.211971395438617 6.408841041403544 3.5600820858294995 0.7789319006614779 -1.2024427278369099 -0.6900455219417148
Ni 8.184301140503427 7.809069108107091 9.330934984738938 1.2577458712845888 0.5625589143512505 0.0002979908563930352
Ni 2.4318749802559902 9.107994173085126 12.048769016995104 0.4347331782538125 -0.6017942057027894 -1.193419441292377
Ni 7.766149138417141 1.6830898682434936 3.5799447465377527 -0.21179822245535135 2.18988003913508 -1.227428194137654
Ni 1.735935138899133 0.45621228469593333 0.5470139469604569 1.1555188095918616 -0.856819614277892 1.9986303302550417
Ni 2.2967331954250243 2.1854306848761356 11.142832997159779 0.2697683712122321 -1.9286505586317946 -0.6445565363709802
Ni 9.504171373313731 3.884234066984936 1.7556104247667261 -0.013301087984280318 0.9094269560609628 0.7870982385223542
P -0.5412359376412716 8.65976016068881 6.360106886063786 1.6160512082969651 -0.17802086889459018 0.21111919411045577
Ni 3.499503428804612 7.395313921588783 13.444756104631816 0.27440664131519193 -0.808634312821917 -0.3417253211665083
P 7.434783225896268 7.123750266381743 12.442496430321805 0.07374360954105365 -0.26352521851599775 -0.10188690474448904
Ni 1.4778587618267782 6.571922084653816 12.630351766861015 1.5187310969875523 0.6941153211357142 -1.634590147641417
P 5.518884756122979 0.6226298987474751 10.579659361589671 3.2260479828697344 0.4293140641207703 0.6921186024206597
P 4.141531261551573 2.4274225087947467 7.0461464716069235 -1.0410738656767038 1.639208363139719 -0.5614677381696008
P 7.475690307446448 4.331169441871723 7.878063863791951 0.4968070647664219 0.6578977335645766 -1.181288462356798
Ni 5.693050598115307 7.7477734176572985 1.0970685608896549 -0.02154378760904677 -0.6915570734902348 -1.3097202074693508
