# total energy = -381173.0237742349 ev
CRYSTAL
PRIMVEC
9.19472538547263 0.00000000000000 0.00000000000000

0.00000000000000 9.19472538547263 0.00000000000000

0.00000000000000 0.00000000000000 13.45741001872567

PRIMCOORD
 96 1
Ni 3.2975135875393233 0.3129479979702072 9.55473390488586 0.2657520509639875 -0.39195362119444116 -1.4633482493418732
Ni 0.49598280040042536 3.7125543002159676 11.837918480353101 -0.21557851543339004 -1.670431839930375 -0.5819584019237848
Ni 1.0865499026941603 7.984763955191441 6.237011230251297 0.20706199332194664 -1.992584638281594 -0.27800130064498574
Ni 5.842282585595078 4.32238527182734 0.5546138867881143 -0.6118695876609205 -0.3563947502532249 -0.3949877800350746
Ni 0.9360230521385579 5.554515262777982 7.663982051126713 -2.8254891365047854 2.245387842394398 0.2927146955957604
Ni 7.158139746612259 7.040842633880121 10.296291271898536 -2.160636054668298 -0.9297543547644054 0.8951570764055099
Ni 0.8318229063559899 2.243090055613062 0.6431590929972921 -2.3917903130527582 -0.3801067491581841 -0.266722899517689
Ni 9.008375962091018 9.066624547899444 1.1887639877767093 0.17726676433738503 -0.7234757765757024 -0.1962304499240814
Ni 2.8771859077214255 2.7351549834936817 10.260346331645831 -0.48792184646165 -0.6922039630456144 -1.125585769477855
Ni 2.9439488093086363 5.461832430110431 6.3528932747346705 0.837470520327319 1.2979286141510615 -0.7646455659457927
Ni 2.719615897461126 6.498169937050871 12.77490422024764 -0.7776062398715189 0.15804648265519233 1.0939205771640903
Ni 2.3543462337159755 5.7644032609230385 1.7696361715422035 1.0320840034732677 1.2817512330602505 0.9917930171637048
Ni 1.1699184784676406 8.422258187448854 8.461548168825017 0.6124995079354354 0.1131655629821019 1.3104311174934462
Ni 1.9840102762406835 7.914341552869934 10.893423408172888 -1.644885358919838 0.04840821610005856 -0.5212140328558765
Ni 1.6502969102847227 0.9658875204425464 2.435468538058833 -0.04216429207287577 -0.6515406809982972 0.36912042535000944
Ni 2.973638577828827 0.4820960065335799 6.692733086266663 -0.22940796511731457 -0.37355660674449215 0.08287051154298632
Ni 3.887612678306989 6.840719434176823 10.760881440623011 2.9132707121961436 -0.02220558956276176 0.017291697200912157
Ni 6.413339399928765 9.301108436658163 11.07242080665228 1.4281346775552177 -1.0615131073676622 1.423214357435465
Ni 4.008302644734992 2.456251376022966 3.1402598758349534 -0.37414667492000725 1.0962242855966025 1.281639647183051
Ni 9.135768883381585 2.95978212655601 4.049402148082282 1.928651072852427 1.0353781008435072 0.590020610106629
Ni 0.7399823105408545 3.8630903454970333 9.366747742793788 1.3866638120049408 -0.31738160221482115 -0.02675181417254748
Ni 6.951754938868624 3.1857333100850167 3.5540749316073725 -3.5262823838813078 2.2715022800932623 1.889018546062469
Ni 0.6505847532812518 3.316739758482562 6.42267020732867 1.091073080412966 -1.0937447137078582 -0.3011923940494684
Ni 7.4687651569305 5.7826272067908056 8.298310529789292 0.07611468087639149 -0.9807974373841496 -0.5954417811222003
P 8.596369508817181 6.503962614092593 6.43628943468454 -0.4047548867241675 1.2372323247122692 -1.1426627795647997
Ni 4.316298363570801 3.596047933873652 11.824582450541493 -1.290193450290333 0.807228690723642 0.41998764451352183
P 7.730879195705684 2.6150994531226295 0.010426818675099456 0.06999545535253106 -0.7267745019316322 -0.2293071778733922
Ni 7.556675927082727 2.107624165365937 5.844136242248429 -0.03616693683886029 0.4755178163703423 -1.575002003665139
P 3.540024471627285 7.723440662806077 5.601458933629587 -0.8093596210237157 -0.823476520041072 -0.40766691816463985
P 7.125461692316576 1.4546791260583196 8.672130368742533 -1.0407092832484337 -0.34096761706487727 -0.1816947182017516
P 7.17122384094618 5.408953563972426 2.632174977780061 -0.6297570094643025 -0.30567202708737684 0.6346397914779005
Ni 3.886582869055127 4.6589306132259205 9.156422075716689 -0.8675334011509704 -2.202846369487761 0.7778363536044539
Ni 2.068987928970198 3.3895527894244606 2.0950632509108633 0.13160474352389592 0.7703302750353959 0.4090784538001858
Ni 5.294019495684293 1.6730630505312363 12.775253619815235 0.3049960840662747 -0.4364432189663839 0.043810826537363255
Ni 7.895317665886883 5.199332212865797 13.137850376868279 0.884049910748755 -1.9037010877753082 -1.3969983611617296
Ni 8.025285110307104 4.578761801913582 5.820127894591858 -1.6164656701265647 0.39453757987153343 -0.9224328814023275
Ni 8.07829270260159 8.089758525254016 8.049858933579653 0.49503146092323774 -0.550798945601845 -0.16246492343786212
Ni 4.604929990581424 6.618501309185815 0.74435072460835 0.11573435215054262 -2.8939617274548866 -2.1050256643928456
Ni 3.8406184364653373 8.643832681657448 0.5615807302714677 -0.11022139275211341 0.6429141156715509 0.7344746987893674
Ni 7.82071166347969 7.87321354587371 12.805694597405756 0.9214656323930517 -0.35979503418402553 -1.935761458644963
Ni 8.420419242356244 2.152439257272846 10.249997668137167 -1.0012837302629594 -0.29326696855480455 -0.008901416254687896
Ni 4.481187375299688 7.515557114811965 2.6759657772703855 0.31256078378741003 1.0297124179172976 1.8667291385366498
Ni 5.99663444194331 2.128496192167062 1.58279291382519 -0.020111940258526653 0.25626159497504897 0.08325000636959212
Ni 8.906029472961801 0.9583662350137709 7.247434322946676 -0.15042187623039902 -0.284720107426058 0.6454541084845852
Ni 1.7684951061122391 9.11109943496422 12.972942975688465 -1.0393288579611393 -1.4243592696731857 0.1479140222068807
Ni 6.528190715687732 0.26787085638760133 6.810270181333385 -0.2716031104281258 -0.1555838800473127 -0.10835682873954887
Ni 1.5936941803341829 1.5791113457497845 8.285606177616994 0.9684728543805257 1.8220575066608877 -0.057487809803823585
Ni 6.844047924794449 6.626040984065517 0.8681485082428642 -2.16756209236417 1.0728347030280685 2.172169252118878
Ni 8.738501575025017 0.8113508501125075 12.407153819572558 -0.3826315724625668 1.5580949434971554 0.15712319950997455
Ni 5.164888771281209 1.722558257698838 10.305846430599736 -0.22116835081634167 1.1132262194712377 -0.4062749229131196
Ni 8.757516267282607 8.560822700177027 10.491571609700443 0.9813257990837937 0.7213790419476738 0.023247143453398674
Ni 0.42139426797161206 5.844985834881214 4.140239599349399 -0.333998899056528 -0.6638081855117406 0.42523423762444185
Ni 2.609251607728129 4.809071285312075 4.058781687527141 0.30770936923237974 -0.9992286475061436 0.13470112306103255
Ni 6.133994445635823 3.8226703323614624 9.382425669180837 -0.4747490565251178 -0.9445891057843926 0.34791962290267825
Ni 5.078384794124829 1.3994372154763115 5.288721494872483 -0.004307883346734516 1.2611469265463378 0.07243800335575266
Ni 3.628514509483684 1.7047388797514458 0.8766398372079914 -0.33466969987130746 1.0258773604419236 0.7692115880499204
P 4.9998434492194495 6.357058485369433 8.868150881944217 1.6914860894975126 1.6537952598149583 -0.06388368602783837
Ni 0.07727431173657041 8.112156876482008 3.5362169358130355 1.1878260063649995 0.27812677047925644 -0.46298934488602844
P 5.813070942798966 3.4421282296221842 5.547117186670411 -0.27003010951405104 0.6908559336581521 0.01376542921520855
Ni 5.955442071868843 5.465740188432227 11.712670688513063 -0.6447352280406897 0.5158689664938794 -0.5426341504028654
P 1.9765717433410757 2.364883389096631 4.253120485441633 0.3210006870246472 0.5314765911241491 -1.6314495451299063
P -0.07957942941015721 6.441364923140144 9.749960913280082 1.6743139485936003 0.047821233248336995 -0.5401412087776826
P 2.276614024651345 4.044906846803396 7.710288527503729 1.6051106501250614 -3.2335885142211533 1.0105695264402594
Ni 2.29857102905711 1.9686091110900736 12.486794853643318 1.320413682627455 1.744178791905538 -1.9695791785253565
Ni 8.066036133559345 1.5232349991108256 2.7089766806278304 1.1252368707788685 -1.8313756987380203 -1.4638796963653111
Ni 4.354493253144313 2.2169586458470723 8.166884801910632 -0.25304000271395777 0.19730259994233762 -0.6441472167477035
Ni 6.508854208038937 9.234170835287152 0.6498123963423555 -0.3295598894485679 -0.3703419564619364 -0.408701015856109
Ni 5.03311916067023 5.763456204200344 5.0933602434865 -0.6322802901067884 -0.9347677488185967 -1.5367342184331922
Ni 2.67938897356028 6.602870275898629 8.763344803753634 -0.016921201235370862 0.9161107958390416 0.01174942722644428
Ni 8.025358668110808 3.3444802452045863 7.884925787168544 -0.6492241170499787 -0.37573973043874004 1.0696557910794544
Ni 3.064059508032467 2.708278800965185 5.95221288428622 0.9789164183113528 1.2961339841444839 1.0983495594697215
Ni 2.3965684130423037 7.203157122479356 3.8677272455480494 -0.7098155054797904 -0.6002530864679146 -0.3366923867282911
Ni 1.219910200810247 0.9927637029710434 10.50836669523125 0.5298174582541714 0.25791095765301386 0.8193311304141309
Ni 2.4189759589957585 5.009691000190378 10.984812542967788 -0.930219981546914 -0.3938197278689024 0.1539918529698445
Ni 0.965832352089768 4.780999788473381 0.2839956464321533 0.46794000402308444 -0.5588177021412634 0.6334462853904317
Ni 4.358428595642499 8.00384301052727 7.511388226287017 -0.9625279496510004 -0.5734387944885478 -0.3045232581949142
Ni 8.966797413547104 6.480368948554405 1.6614114944244585 1.3599811605074321 0.017271899706570254 0.1433505712059144
Ni 0.9149027677499304 0.687172404843823 5.12238799177335 -0.5934831147339328 1.3128602957602291 -0.5726337820887492
Ni 8.252321271440751 3.691259316043542 1.7598253994731288 1.3892079185830333 1.2731660624944008 -0.6838831018847448
Ni 5.481288469190247 8.35048416048428 4.834856973400654 -0.19957108426154016 0.14960015166005203 -0.6576020567010288
Ni 6.9542099305672584 8.658295984810827 2.896155545824245 -1.4743574559681834 -0.7617193934379334 -1.2214177262775159
Ni 0.39630737901822455 6.163665824705088 11.921489340086767 0.06940333029448693 0.951867898833993 -1.1942879599402594
Ni 3.2128945291028685 0.21123778384303338 4.152054821569419 -0.13221743740723035 0.7246803384067648 0.4786977567602208
Ni 4.01923517331056 -0.007889074447297473 11.73208902921848 -0.07740074667766669 -0.3531446187470434 0.16114054819948379
Ni 7.998215838543883 4.6023738569026955 10.386429004557913 0.2707001389978822 0.9837040695079834 0.9068445400457672
Ni 6.542893081703149 3.2848800347530918 11.7975058229979 2.2793667704430036 -0.9458445754580486 -0.46404658250594916
Ni 6.35768372670092 6.989011966444905 6.4331402412134455 0.9955892509813433 0.1398243032202108 2.2315380809954988
Ni 5.378022507514723 4.817815469227436 7.337801004270084 0.28651987963895814 -0.781017579545913 -1.4533929379013744
P 5.6472164848964574 7.479789632760697 12.249405431638277 -0.4496928848874384 1.378722445670677 0.5612311966787625
Ni 7.375365135676831 6.8261182101415 4.356527126416739 0.17569222076141355 -1.1731972007082312 -0.24960166645637014
P 3.269754711366373 4.298957111347487 0.16408723166850955 0.1205222604574892 0.401552834847102 0.6187747994211859
Ni 4.7145770917283025 4.772706146105709 2.5930413067367706 0.21220368542388612 0.565850954838961 0.29384289566293265
P 4.8967337978767995 0.6152310338758221 2.8855779336515517 1.460142340810066 -1.8224621982984743 -0.858499058862844
P 7.9790264465024965 9.475348484182973 4.506227371153214 -0.3714853260377602 1.1918304995387023 1.854229206297426
P 1.7558339691496183 7.8639360678814905 1.302351948257052 -0.1332337944868867 -0.1991458237986635 0.5841821490479809
Ni 5.940160438149252 8.49940193408385 8.866347796280914 0.3541936288368481 0.8996549642758636 1.6697358423046147
