# total energy = -340867.3361665643 ev
CRYSTAL
PRIMVEC
9.24927513938072 0.00000000000000 0.00000000000000

0.00000000000000 9.24927513938072 0.00000000000000

0.00000000000000 0.00000000000000 13.53724909753945

PRIMCOORD
 96 1
Ni 8.60462843512424 6.583032860555272 5.21781117324212 0.8264875389532541 1.1157353590463366 -0.2060932016507741
Ni 6.172790509824917 3.4617817121782473 1.8152636690845099 -0.016287167195797755 1.0357069449378355 0.768071046687574
Ni 8.571922998135861 3.2526186035653546 5.811486998927484 -0.9242311109533308 -0.29297720522852766 -0.3624147311950597
Ni 1.681684712203894 2.7067448817949615 3.9723296773056225 0.9332513121740702 -0.9458764571372485 0.19469395867489694
Ni 8.023283743090715 0.5848547919591719 9.830507017273078 1.0278362839405073 1.2434731634156586 -1.6790054405319987
Ni 4.56442480186505 5.2869226822129525 3.303291682491975 1.409502150055695 0.2307814484260735 -0.09908234541615839
Ni 3.2670659713752666 7.057927644698737 12.803895553130019 -0.037668975305683514 0.13263369900904254 0.8672688346356741
Ni 1.7933604605629663 4.624119623788973 10.712011961789052 1.07907605595209 -0.6678828698017466 0.3325148583118338
Ni 5.951131630462224 7.035525900245726 7.463775664797537 0.15802951337432783 -0.672294625716197 -0.11465808836722835
Ni 9.252327427201493 7.710464007688016 13.018813560751443 2.2170504289022848 0.687680621253964 -0.04405302445515639
Ni 0.9639132114660198 3.6961028492437387 7.6506304466365975 0.38286374307803095 1.1834695291685167 -0.8156310558547244
Ni 4.947798008237022 2.7257798900874057 12.280410626827404 0.306698154359046 0.7807509561480875 0.04481972741785185
Ni 7.447118645150374 8.643836112554595 11.607988322230373 -0.2602601746114808 -1.819968485342343 0.44991991329658
Ni 8.32348746716645 2.023972638286732 7.769379115715413 -0.7493485305774062 0.22097706074114204 0.4639751058380655
Ni 8.315893812254838 9.214386900468934 4.122944874115224 -1.0756325774881799 -0.5364740443387406 1.6003399682092954
Ni 1.5483656599554534 0.015841233577487426 11.201681538083323 -2.5066396914951867 0.08312659341785039 -0.8298497705572676
Ni 4.409980405136559 8.494996776576942 1.5495005460183704 -0.10447137764221362 2.0050794283144953 -1.1020583757798763
Ni 6.847996846247034 0.34189853159833306 7.694653296718578 -2.0501899474998884 -0.42503909089450026 0.5131099156915033
Ni 4.6050568676710295 1.85361948827204 1.032346748567155 -0.6514704898819942 -0.23377549805739095 0.7874880177616049
Ni 7.381726269723949 9.195934596511973 0.6540791420870338 -0.49729557436706606 -0.6296634213092317 0.009669404768963993
Ni 1.5847060620842257 6.99552278515106 11.097295143482887 0.7871743431759283 -0.6672488357621734 -0.046857840893803175
Ni 5.586626945429701 7.633251058598939 12.250411527752714 -0.5616166050426392 -0.17929407918005896 1.6367239061549683
Ni 7.059102302644871 2.3496118690700567 0.007062746517060431 -0.38134910620571744 -2.1567431473717953 -0.04474130877143262
Ni 6.435997133235065 4.415196996330407 11.037853751698522 -0.4561286132104531 0.620928355429079 -0.45428873178823703
P 3.096426093830416 2.842394751385334 11.236512458504937 -0.9184003632041667 0.019921421514275367 0.04073064495014275
P 6.023747689793604 8.712271499510763 3.002588497557256 -0.24273990633953033 -0.5887396865116765 1.3214943172861435
P 7.476892061911004 6.846405970918415 13.35297969831067 -1.5346865918755441 -0.8246543423992571 0.3981741481828562
P 0.8403465949530281 4.798459211400382 5.730655733393312 1.449313368515362 0.7688076677432824 0.8212692279771081
P 6.922046543229206 5.227190863188364 2.936310966497408 -0.05655192825311551 -0.3417170936363921 0.4207841722728882
P 7.185160673887689 5.738666530614928 9.122697910816928 0.46109881273153497 0.46578670512550746 0.0447878457386519
P 6.39232205589934 2.9969593886909873 6.512783690738973 0.8268865741638856 -0.5083173793988665 -0.3001863213824572
P 3.7178478951599367 8.497420086670537 11.254976786519615 -0.20246203265609 -0.6782773256621931 -0.9425795315535316
Ni 6.040063411187127 6.936401418287454 1.844653240925735 0.7838252241980372 -1.6152271697337732 -0.6869650832441782
Ni 1.3342171920278734 8.58820172242872 8.556110437311391 0.5122599089863823 0.9335521312439405 -0.22308742221592548
Ni 3.007429568179348 0.8999295006474383 12.516229221542336 1.9643444124889784 1.4256185960015835 2.2263040862900687
Ni 1.196375244223065 6.338602265732909 1.7531686602549066 -0.11617272523954185 -0.2977836254782355 0.6457520993409782
Ni 2.1871391014971344 2.986026745444306 0.08736772829426548 0.90244718230902 -1.2668169803479212 -1.9502578524889251
Ni 3.4264402317674456 4.587538740505875 7.0154623725547784 0.40343128281673746 0.22191911293943717 0.30683467993691027
Ni 8.410393656629912 3.8201541277754494 9.222332027836869 -0.5768563048105291 1.5906798194117122 0.39619619852087895
Ni 0.8878721455405236 8.36263039967064 6.065892012089289 0.6757931257877587 -2.1647228231431623 0.7773912956472353
Ni 1.3644623218219905 3.9942809820580316 1.8649590996260421 0.7393441110665266 0.7269693915512576 1.0139399855743891
Ni 3.5896621906288466 7.481812676299526 8.45579927334927 0.5216994571327274 1.16613695142734 -0.37176274806886295
Ni 8.446715560208352 7.55051629223552 7.935697731902524 -0.005277703459171556 -0.8361793123197212 1.2356608664600914
Ni 8.816834555266878 1.0274742304094973 12.070623192140783 0.5656396101591032 0.7257213780767695 1.6351390781663517
Ni 4.657916475246986 2.1614168672593856 7.443686239136124 -0.04016037426896955 -0.13083161280329725 0.38038134297580944
Ni 8.89801544340234 2.4854189763382575 1.3007079930275354 -0.07791393886865937 -0.6402717929526973 0.9882595500891498
Ni 8.461310916420924 5.194836898656308 7.1879539549879405 -1.031366665691269 0.927134657753371 0.9958887844996334
Ni 0.7811308854827239 5.881012875425771 9.138076680636097 -0.37393610157109797 0.8469756316042767 -1.27081710264625
Ni 3.5963771643996507 7.196759264946351 5.856430151888523 -0.3288636347124917 -0.2862864234719134 1.0371580755620653
Ni 6.212738129268584 3.028582660484897 9.05471388848888 0.5329639743029531 -1.368341102436353 -0.6400897588488782
Ni 1.43307344500632 0.043630680814925965 4.0845539076820625 2.0530582701866185 0.18682869699420726 -0.9646668503708741
Ni 2.0328149453458075 8.379917294956636 1.1090102907113497 -0.4312642458686056 0.37709675868726666 -1.1480464124742165
Ni 0.4807689988016446 1.2467837938799267 5.9503787394636785 -0.4026072442535454 1.126807043479466 -0.20691518333143719
Ni 7.002959202384844 4.521841138998959 13.351585832543092 -1.3400479119186146 1.7305635151149483 -1.7741663394065639
Ni 3.9947989414673497 4.391167379448109 1.0913663734039314 0.003535523957084234 1.6129669129446864 -1.6999594170758463
Ni 6.002428110535059 7.7060151063329805 5.185808681166388 0.5923317747383089 -0.3677356291873409 -1.2812670943349804
P 4.950332309632615 5.557473230105219 5.646711161838129 -0.41480044388562753 0.02779156829097149 0.17101281300787322
P 7.222167023828442 2.4144400387113305 11.415068790664707 0.46403912630678146 0.6006716620625719 -1.6475557066631499
P 1.0214807001016721 0.9725150373707687 0.1260981431260345 0.17051119078110635 -0.8906409337027112 -0.018787050799516033
P 8.86418159484366 2.4482738872700094 3.6438351952784314 -0.6632122037989546 -3.6060107502508862 -0.6627517192227683
P 0.1968976448147338 3.7866717516730937 13.157015305360225 -0.9285814175022266 0.5711934500977969 -0.3877259562663387
P 7.992455908961116 8.637472611240113 6.20229384775069 -0.9525952639183207 0.40337291877497633 -1.0489085312297741
P 3.1097912964458594 5.56314303578222 9.166748508724408 -2.328386909095448 -1.5433111003197615 -1.198230746638091
P 9.22610573210476 8.053269893180174 10.126051881447498 -0.7129846472363914 -0.7699340680382417 0.8032149415785587
Ni 4.149853790356822 1.0403492214411212 3.4649939854435368 0.4644178498024389 0.2397432856050516 -0.19846859522598076
Ni 6.964176991612143 4.991593326149909 5.1037731600055505 -1.3219002944753104 1.4383617545998646 1.0849579686541637
Ni 5.8650671250389035 0.852141270645217 5.330860438963403 0.10369850403193108 0.5113821343671193 0.018755683340948345
Ni 8.376014100836416 7.502309070068261 2.235094743379867 -0.5032787885336946 -1.441597230818027 0.3302664285972893
Ni 8.378483657305845 5.185633869865743 1.3658811606325156 1.291913518305233 0.047206482482473534 0.7019345600698169
Ni 3.3133863414085805 7.684159069114785 3.551361867092315 -0.5447679089164166 -0.6080453288188238 -0.43385668918613024
Ni 3.2477534848278307 1.0130453611499186 10.009035601607346 -0.1997351206432302 0.08435223829483537 -0.6294266227080773
Ni 6.912066575324664 1.2865001814444335 2.847073034764497 0.39367985985692844 0.11413049799853248 -2.298710465076938
Ni 8.751062959558631 5.606984600070939 10.977504081092818 -1.2967217383271539 0.30649503720930443 1.181568455491062
Ni 1.6463524810682588 5.301684525378522 12.858707682693602 -0.345073925923767 0.5573385464925756 1.275853379518577
Ni 2.675861552014363 2.153554983367948 6.2711445271618285 -0.6499000600710807 -0.46211054182550093 0.055040890925227785
Ni 5.759255417135326 1.0681987889671414 10.450580274283336 -0.28149928649591516 -0.5265251606561449 0.8462966032593812
Ni 2.7769468803079116 3.262737310597393 8.986662346452118 1.1729406046127349 -0.9345672027720163 0.24854777127055905
Ni 2.2774212763963315 1.253554263301729 1.9128675702054265 0.314254112329433 1.4278989073953279 0.43187848241383686
Ni 0.352150428192767 2.778297274482205 10.786845997305333 0.5131227712073099 -0.3774819099408273 0.981948263159141
Ni 5.178030965678965 4.987236917546537 8.868265149829625 -0.08814153013393852 -0.2111320496262622 -1.264548753139035
Ni 0.12823010105188895 0.16598194257105323 2.142851722145394 0.638597747684384 1.8967799351754433 -1.291791390905072
Ni 1.7121610738771706 6.374628192506024 7.1185760668923175 -0.18075446577566934 -0.38445834125866046 -0.47643030088228266
Ni 2.841673307922355 4.643718837866568 4.683427826010941 -1.2124718299381376 0.9400914750243551 0.4156175404702842
Ni 9.186842559023406 4.440345775507839 3.860972104012274 -0.4160502571323286 3.0571876974284895 -1.7434066896262037
Ni 6.832717043672147 3.046489257207041 4.103411329891311 -0.21067310771197267 0.0831474193534568 0.5510791958464251
Ni 4.448133665197945 6.315960040125571 10.576313995967816 -0.9007487115606745 0.6317066769915057 2.0090628384422757
Ni 4.598304896799561 3.0049322638844207 5.051668293283171 0.14987397414672898 0.598416547479808 -0.2683758617400797
Ni 5.956634949186229 7.810642907015258 9.754102454833541 0.9881708470300852 0.9633597015236763 -0.7256311323558083
P 4.734657711302579 0.35272758296315015 8.647472927550021 0.7045419157856769 -1.4250498679823072 -1.3633842726517098
P 1.132351761521268 6.9632798119210015 3.9005959988251173 -0.15871239837396536 0.9983161629942032 -0.4329421477916608
P 5.595913217696762 0.6959173133747121 13.068224113617852 -0.00091505561510165 -0.8087883219012781 -0.7153446628281358
P 3.578239335798347 3.1933954946749177 2.7409681248381457 -0.5428758341000264 -0.7455942057412966 1.3154008027938957
P 4.573674077031446 5.3467192461637065 12.50277337603026 1.072319711064863 -1.286506745467365 0.0853883928688336
P 3.6422258213994785 9.216107265649885 5.2858358923809 -0.2742570031112051 1.376190423277443 0.39126610820911323
P 3.319944077501556 6.660717522677837 1.434988969893281 0.8669903841633068 -1.6519389233325097 0.6797356553752745
P 1.1205774342344452 1.699998277033359 8.142831549543908 1.6559207907983933 -2.25213184598645 0.1322112667596433
