# total energy = -340896.60622400267 ev
CRYSTAL
PRIMVEC
9.03589383443997 0.00000000000000 0.00000000000000

0.00000000000000 9.03589383443997 0.00000000000000

0.00000000000000 0.00000000000000 13.22494398885473

PRIMCOORD
 96 1
Ni 6.312123136181882 1.9935712175308045 11.238689517830345 -0.02658314980516712 0.22367903305333733 0.6086060864183002
Ni 4.6208116082535895 0.320876341974281 5.883394363634657 -0.48319435907899366 -0.2391295632804527 -0.014692054794535989
Ni 2.5552514233656596 1.5560532309069783 4.667003098291198 0.9157780950899712 0.5879701553355036 1.4136238855335523
Ni 3.506821418643544 4.259502351476631 4.942545456566792 -0.4224592459824659 -0.08863749593375057 -0.22476815235245806
Ni 5.171865602765239 4.615868974245261 2.6683175647664017 0.26216973292936785 -0.15902967250406802 -0.08097715117501537
Ni 7.208673573001434 6.360781425276663 2.6205493112288787 0.33000520451610266 -0.962083148804098 -0.34502481785338646
Ni 5.182753855013932 4.436542622272183 11.535880974498175 -0.8823118450117257 0.02268561452297383 0.3015819161784032
Ni 5.719648603655289 7.7468875621642095 12.436182210909786 -1.1339608809154278 0.015009328924638665 0.2018652796123556
Ni 1.6911669536245757 6.510379686047917 0.32380848957154307 1.4625684337530553 0.44786791586355773 0.10685324761082889
Ni 2.7560741671226716 1.6331022988942019 0.3738176448166807 0.24906096346155168 -0.7587232869240869 0.3361051467662534
Ni 0.4819827173214138 0.04033351996887182 4.656384115683179 0.3562268572167929 -0.17534949271001413 0.9390923443358795
Ni 8.564229352334763 2.2958399430272984 1.2031482591229736 0.7252539515220476 0.05277549192981879 0.7506081140161202
Ni 6.85962602435848 0.7671754103701237 4.853554551092538 -0.12686542906669765 -0.24928182122310616 -1.2174219748545614
Ni 0.6343125288435215 7.3277485839004175 2.3381044335401917 0.25517170434497993 0.4451893405901301 0.7926322809667059
Ni 7.595057435579324 3.881485726726367 3.9546683356785572 0.7642182486003871 -0.15849951103221088 -0.9648571120048092
Ni 7.709225956045909 3.8274872242880362 12.707504806695637 -0.4526450255372269 -0.2296401357327787 -1.0434508505493125
Ni 7.838321773371283 8.878705570601369 6.746903246929066 0.42600659701409216 -0.05859261283222812 1.2872107135129252
Ni 6.86215607467353 0.6014516931980264 0.22993458698924377 0.06518492133776516 1.4454587706559623 -0.2630855598754179
Ni 2.012121907876503 6.4064217257813505 9.285629827379863 -0.22207826422512075 0.4178106914668611 -0.06087086734344355
Ni 9.251851848495162 4.945389955992426 1.4305021947908674 -1.7344911323041288 -1.0246355176150226 -0.04438366832169775
Ni 6.3949371045298244 1.883794141539626 7.0055177614181865 0.132692577271436 0.6275836559620676 -0.2637422196228103
Ni 3.3409133692342072 4.185380913139679 0.39053224150517213 0.529872479861823 -0.23671632585326974 -0.1662030503240557
Ni 5.988773670024641 5.428557279014922 4.872148613729351 -1.0305799081239155 2.2886628510329485 -0.654665342670208
Ni 5.236734285664298 2.861450762744462 9.106670332702468 0.5457863228786021 0.1228182555805175 0.279969223004634
P 0.10918612852473498 5.586179413642473 12.425813522565075 0.22922515968254714 -0.6927418378269553 0.3465808494865966
P 3.8439777308057663 6.011562194648046 12.654512902846935 0.6920954624922081 0.5629985729918303 0.8412649543727446
P 2.5098099125285835 8.417612936577676 1.5060702797543892 -0.3996088237468537 0.3368777632662198 -0.416084967025006
P 6.188972937096874 7.652308859851289 5.680510532460278 0.5123280432201563 0.143625679244172 -0.021620920703885344
P 4.654786569627105 1.0331370102562667 12.452514589282824 0.479571931835058 0.5152254193726095 1.1467094388303476
P 4.053041209874652 6.199906368815478 8.183251665126493 -0.1947752055347936 -0.10043243168614961 0.8738071499748241
P 4.619284542170577 1.0947708431096561 3.682763828320244 0.0985087323008755 0.3402783043073365 0.4078594937914201
P 0.19482652451034635 5.662659220308811 3.684733653208389 0.291862117787478 -1.1619668792100506 -0.5357693049622321
Ni 1.3980696605201344 0.9915809338315873 2.6794931584437323 0.08388866839485552 1.1715272692049759 -1.4931517058565509
Ni 2.0048299414327726 6.311391228769315 4.865814452047747 -1.1608628475125942 0.5789862066693383 -0.5191445519213574
Ni 6.022025759879571 5.604748175776137 9.107622715928201 -0.7402121154937767 0.8582836004179284 0.04283406444639075
Ni 8.564888972595472 2.1522957312241986 10.230208751483628 0.29931883117583935 1.4120429141996778 -0.45224624743691144
Ni 2.3708288271865534 5.31705434727312 7.113617775486247 -0.49465016632441905 -0.46501177463269594 -0.1704836799772806
Ni 0.6662146561374925 0.052366619985124395 9.159913434403878 -0.3809487854435052 -0.43767272049811073 -0.01382739280139554
Ni 1.543791522772973 1.1004092409546224 11.498771461502194 -0.351584216238459 -0.47228131171091564 -0.7413318309205168
Ni 4.162221916862998 6.766375598460961 1.5906037787271667 -0.007460827153419409 0.8023834468161988 -0.15745307204556755
Ni 5.699426272922862 7.781088420887282 7.896998158124259 -0.8887719988147725 0.06613365840427965 -0.10337197393044777
Ni 5.356405665566115 2.843397046567791 4.8271706442535685 0.2392339500688009 -0.31316833546442197 -0.08415734867520991
Ni 0.6587564292444874 7.349507016609838 6.841805434246553 0.7586500104839903 1.150737071932502 -0.35301297826518563
Ni 4.933209570904262 4.552509285641249 6.995095761298981 0.8840807639866904 0.8793051969749179 0.2949798374808532
Ni 8.011178425253021 7.192905938002289 9.01520630304525 0.20543808456527848 1.2214213258219415 0.898764077030478
Ni 4.4836467376020055 0.2982061875620439 10.442138416123706 0.04781583393169829 -0.8154929876149632 -0.5204388452527489
Ni 8.237509497722117 7.2065320661276235 4.737135189434958 -1.1700123752223464 -0.060352018725496066 0.39188651540193153
Ni 7.422679686078648 6.213071666347715 6.927860577765953 -1.0835374341575532 -0.723844729879347 -0.4411735345625177
Ni 2.310595557900424 5.232406092446767 2.439803420311178 0.3443015665341167 0.14451913759271884 1.2458568331564865
Ni 2.1752649737272503 5.165847697373015 11.47542994016707 0.28111284969077394 0.24708044269641316 0.12043510006032161
Ni 1.0251763876578448 3.391387873019434 3.9045724358511893 0.2338626584545585 0.45859584380402313 -0.5692828633386454
Ni 3.561958443723647 2.8716793947324453 2.6749300319826617 0.29631269735966387 -0.7567188548995484 0.3654576317864416
Ni 1.2455437700986103 3.310769626909195 8.224235769462092 -0.9683648680477516 0.6076383231883923 0.3845766120040796
Ni 3.923394203016357 2.5759345846911845 7.003573237033192 -1.6918558141321054 -0.7150600417081815 -0.7235446821404248
Ni 3.9904766799410845 6.871508224945229 6.05059725665166 0.9758760888231323 0.696608005650581 -0.3732904975672991
Ni 0.7485126749390446 7.358434479864368 11.308305659427713 -0.3572211028092622 0.2579238131688203 -0.09539641192413893
P 0.20696444089679378 5.758439696521378 8.078867210663962 0.950228563458357 -2.322366413932981 0.4830537197360713
P 8.558030729062894 1.6612581445431038 8.114137919234542 -0.5947874353676531 -0.7334976795880788 -1.0344535321467088
P 1.6053349966865391 3.2918755725921685 10.44404227898578 1.3922703595584411 -1.140585585320797 -0.7850123025276029
P 3.8882174677431944 6.074939955040024 3.834043668961606 0.7648255431670827 0.47060932332513145 -0.8410232706755838
P 6.81455498517468 4.033740540328422 10.272832870577018 1.2748511635063078 -1.5401239608410315 0.4364781859693773
P 6.377931552055103 7.573353218233796 10.373064428165277 -1.6359422907939376 0.5474871076197926 -1.4837129290411544
P 2.2667082208283063 8.51603189383308 5.8480838971305555 0.8198219540076204 -0.2788477078056811 -0.15227409894778934
P 7.049668946594588 4.013979040189093 1.5602124529070391 -0.08432832703543541 -0.15434692231641803 1.0863275953081806
Ni 5.423009240109779 2.8125936839820698 0.5088120937337117 -0.4316982480822307 0.05211240442452316 -0.40168550377022433
Ni 1.4818414336302024 1.1391822620327479 7.001166074876303 0.08163792468746586 0.23178983508592982 0.09834289614697257
Ni 6.68411281964594 0.5902896533616693 9.075181145763487 0.8009390010601883 0.05478660882257661 0.7425389638547405
Ni 2.8820435651301635 1.6711885920296712 9.168483076256706 -0.86456146300684 -0.069981314285144 0.16816480203611683
Ni 6.517924657523152 2.0333201151590203 2.606531025304711 -0.43893924591536015 0.38298612758850814 0.3662724143782531
Ni 4.090883533872599 6.800386703410405 10.705327803736074 0.5961881723699216 -0.20183956858074267 -1.6526878856833924
Ni 8.110600366740464 7.359482643566317 0.17807216988833274 -0.24518631099749383 -0.7504890719397527 0.14974233366487114
Ni 7.592373775066576 3.8146562548331455 8.142333522816966 0.7570852371000315 0.10501773706398689 0.5275258340065172
Ni 3.125316938816105 8.284206997822736 12.466321435287806 0.20371544544721687 0.3217277949986588 0.6266686003469659
Ni 0.10978159393816973 4.868024631715821 10.210939707566336 -0.9375931340825336 -0.2557571445348047 -0.7255316306634666
Ni 8.731393391007641 2.597891807068217 6.06532937820043 -0.4501672534206957 -1.1677750012513954 -0.3693893627406799
Ni 3.545567332039722 2.659100952904437 11.330325229473225 0.2848538047904449 0.1699794866473524 0.6488615915042374
Ni 1.0310587546403336 3.236928301285694 12.58118029805464 0.025682235257452543 0.3387307573145586 0.4566338349816458
Ni 3.0849807080790383 8.383927123811594 8.046452748181194 0.15386612602525757 -0.20902811590938195 -0.027173732201314492
Ni 5.495522289317878 7.949815669219102 3.5179545436191573 -0.0705695826884462 0.08942039684636212 0.5936877745455711
Ni 3.012250797415363 8.403236829251808 3.7026536381541217 0.5585657340314574 -0.8276663897527036 -0.17297482183025048
Ni 3.4963849610939666 4.356855073242123 9.479983774634935 -0.3499435953112425 0.40938184397321753 -0.4947252425367286
Ni 7.233431922512984 5.924573643280273 11.46213814011908 -0.03760084107190943 -0.03700640202102014 -0.3076798015460249
Ni 0.6469772378491381 -0.007344374628827882 0.4705315288776225 0.17076932953849944 0.6531643326446493 -0.6855933997076321
Ni 4.7955567619776325 0.5022249270206021 1.5450836556124445 -1.1084087434779362 -0.38233563848870283 -0.16200803840610165
Ni 6.00494792025299 5.465243008583132 0.40929075741246385 -0.5655542495341485 0.8664666504493529 0.0021725821712865806
Ni 7.882588617990658 8.826532318747466 11.186530723406813 0.6082880409572492 0.2196837958510152 0.06775782427126395
Ni 0.1671667494410734 4.883593477047355 5.869573963788701 0.020338454447035942 0.6188321350216827 -0.014656059350277984
Ni 8.003913566491239 9.129505843974579 2.487427099544984 -0.10665115890235181 -1.2917862486987495 -0.304576737140669
P 8.550865265134915 1.7217263470727744 3.7557386117108402 -0.4580708245384886 1.3266105554667862 0.06575750601178353
P 1.7653064637494933 3.239892074511894 1.5868213535061684 -0.9129318838904278 -0.546726061084052 0.023266683837424446
P 4.689945233112303 0.9270194713279268 8.18262999562051 0.6150983790108632 -0.5283416450395934 -0.38640055258669587
P 8.475749878459908 1.5404211343175684 12.300481155083338 0.3371775538948258 0.38162961356061376 1.175354613370866
P 6.339962725541404 7.950945155966891 1.3854582632890136 0.05286342365793477 -1.5671398273082429 0.8635605325461514
P 1.8841013619350249 3.3716083010921403 6.093115655785455 0.28103623081656764 -1.058779767596899 -0.42656478351040733
P 6.915738925988674 4.008232211616338 6.063399311245807 0.19142248701247677 -0.7290980078584862 0.6820090247904834
P 2.3711992988398287 8.384451205662568 10.298912267788783 0.7829651901905871 0.458461632219004 -0.08628905030623203
