# total energy = -340860.16413450113 ev
CRYSTAL
PRIMVEC
9.32663998292963 0.00000000000000 0.00000000000000

0.00000000000000 9.32663998292963 0.00000000000000

0.00000000000000 0.00000000000000 13.65048036623499

PRIMCOORD
 96 1
Ni 4.860746219574771 4.341700060540112 12.852473405267778 2.0162254176289856 0.685739181256877 -2.9090047378309385
Ni 2.4173437939645686 1.404881082109353 4.482912848664743 -1.1882402110842827 0.3449517985236059 0.924994985702549
Ni 4.476180880045624 6.960042269177215 12.333140918390772 1.305058026106991 0.6271877060752294 -1.7685034846938317
Ni 3.841400447535419 3.3659003698012135 6.209917416735769 0.03024671469968339 -0.9086240005436932 1.190200934355079
Ni 2.456319821755229 2.0930751808452372 11.448794527030696 -0.11907035850231107 0.5543781783126711 1.084224690032565
Ni 2.7404279238272795 1.363536087805453 0.23513484906272356 1.0896962546700975 -0.058056794933416145 -1.7759136611149737
Ni 8.094376183506842 1.7713993735947269 10.154401483500443 -0.9982048342273196 0.14618109867617407 -0.7679103527399936
Ni 6.424040278957244 4.926638929874128 1.658629106252675 0.4985245616781608 0.42662494732438144 0.3957136024575056
Ni 2.712494637578649 3.9567709820581447 13.254588682938513 -2.652074141813323 -0.8635134813582998 -1.034861823328721
Ni 5.500385831429061 8.888353031034702 2.430222018222368 -0.45573240621329897 -2.006612320019254 0.8854282791535202
Ni 8.806838199043705 0.3925601351793395 3.5321160139443184 0.5366933594383984 -1.292465277043645 -2.2436957994039552
Ni 1.7694967390722827 6.37325672515965 11.288687831967007 -0.7491942643877291 -0.21912355247217102 1.3683830114178819
Ni 5.4551423016821134 7.426831265323368 8.20221825437017 -0.10961949750205637 0.10511441054285121 -0.11262228888412217
Ni 8.136644515152517 1.8388029995442612 1.1459549075402415 -0.20270397346356706 -2.9736785238602397 0.9289933082286645
Ni 2.896033582515813 3.5509409037487374 3.9672802398027045 -0.007843407303818752 0.5842495119508068 -1.236952074467689
Ni 0.7471160784368357 3.1923875626661453 10.029976647044439 0.11889320949449847 -0.7659023211710294 0.25738799527000833
Ni 8.715483762046931 4.68316699747997 6.35199198637939 -0.008475127350546695 1.6721933027061717 0.21203013596049933
Ni 4.86104467204888 1.7995285192794919 4.525585023814446 0.6971402240049671 0.23881023226782097 0.36076922517183674
Ni 1.7854359665176616 0.8141736860491999 2.1949976334174117 -1.9795607152181007 -1.529193944192089 1.1027320048081333
Ni 1.461689645228021 7.551649685979604 2.567723736364251 0.278707582683391 0.1585599319565011 -1.4898774059806534
Ni 9.213377101979122 1.7687412812471945 7.650848759725535 -0.6480635210829743 0.33619487826658223 -0.29472658381946665
Ni 2.416569682859848 5.023542717561366 1.8373275251253853 -2.5651029778384014 -0.10098393331424546 2.1502688525013616
Ni 3.981178798456364 7.224760287072003 9.946312957239858 -1.2749272681598816 -0.11284134687346373 -0.04630119705938478
Ni 6.85437144006303 9.107118694556533 7.5169098179933265 0.6879989238253312 -0.21881270609997153 -0.13198603812271464
P 6.532863512329206 8.019278079709187 12.592253625756202 0.205121324655808 -0.6485314618583283 -0.5488454214198999
P 4.3407207633594425 2.26070287825647 12.683466297827774 -1.3461396266386494 -0.8838748186234713 0.7007575090425802
P 8.756325117800772 8.562041883795688 6.181633448830061 1.435330938193341 2.9566038277661404 -0.3497674747446944
P 6.365086588680919 1.4602067094972924 6.165061875205163 -1.2562430614868172 -1.6765253544226222 -1.3078659278694316
P 2.472613461513612 7.957582357326985 12.741289599358414 0.8310954700389106 0.058181750547054635 0.15250395557040833
P 1.7458630337787833 2.8876396066814998 1.343947346200111 -0.661869316617815 0.4305463938659747 -0.04539411186408311
P 1.5318632832028787 5.150123873142808 6.1219672032718 0.3390403181351774 1.239243441605027 -0.19465359235526475
P 3.711097962667432 7.711340412907503 2.0666005810638137 -1.1001539596683119 -0.44854951531161463 -0.10197843601703081
Ni 3.861844442011879 9.263918163141502 11.571648757341702 1.2740492364303027 0.7343075770838837 0.2795038533324412
Ni 9.040050827640373 5.147866826307359 12.633587428092323 1.7736564896496811 -0.2920176695287358 -1.1080071371641433
Ni 7.205836534885535 5.829784096447139 8.749480296839883 -0.30117979564397807 -0.3984122323355913 0.5556246491252624
Ni 2.968296387809433 1.073738735445701 9.519789863170905 0.8548997715473599 -0.0868930024388181 -2.053081924335703
Ni 8.673373983278129 7.040260698233801 4.720636772940361 1.4463548001076705 0.08147877340178225 -0.9673346270110246
Ni 6.708241647427454 5.759302679358358 12.946019602621291 0.11770227451019084 0.24612836319578904 0.10905462613752187
Ni 1.815253234009105 8.666239103818961 10.77193509366308 -0.2203962485370075 -0.8337781590773964 -0.03359043436093569
Ni 2.11251189822158 1.2810046520745233 7.0460506762315145 0.8437769221613209 -0.1765003184850057 -0.637833872935166
Ni 4.677720239827481 6.04440873189071 3.0913558041963896 0.03177446419811947 0.9163522224258864 0.015496810084018472
Ni 1.0405732042603484 3.849878363128075 7.736942039202157 1.0932670027404914 -0.15779040078032824 -0.3138761601647239
Ni 6.369171656920284 7.469230169926465 0.976798573863182 -0.547675826591831 -0.9280975358872725 -1.182088332550274
Ni 6.719303042249116 4.154635645752537 10.801120014975005 0.5395747947512514 0.48640463848617516 0.04335419861591888
Ni 0.10805844890705742 5.387430896618655 9.373184411904719 -0.9854526767679738 1.1090612894602705 1.240315077402651
Ni 5.9047516272873715 1.9284226815352776 11.409289678762475 2.6312289229331975 -0.46118340202554126 1.407674609928653
Ni 6.309770287932795 8.641803307501295 4.983967919494524 0.3736900469985629 1.2151221230767912 -0.5838666746900912
Ni 8.971667904510168 7.89182021998505 11.916609453556598 -1.4673334592418665 -0.8808082638830057 -0.5864768586194287
Ni 2.3854653390738108 5.008946526249477 9.641293596036569 2.62840225211768 -2.871717828455022 -0.5995547748493094
Ni 5.277245973833572 4.074734322449691 8.169280293196325 -1.314787080469297 -1.7332444043812214 1.999156635072157
Ni 7.8827920326432555 1.0481744157103097 12.428735245847855 0.7670418340921114 -0.38904776040155575 1.023138878464838
Ni 6.922623790235811 1.957372571523842 8.131454240094966 -1.4385599866535999 1.429800495293415 1.9593101924991807
Ni 3.550241405762545 9.006213778388274 3.8865096736690177 0.9140629121710775 -2.6770526661355314 -1.3835656326955914
Ni 7.561601210663172 7.598068372343355 2.9012052042937317 0.2891542319380117 0.39094600586553313 -0.8142979388655976
Ni 3.8791267055907483 6.042468790809002 0.5315970182349202 1.0262689394533875 1.450563181762063 1.5674267624210427
Ni 3.4667399994907613 5.397167908586457 5.255052301727647 -0.8745085469172229 -0.1702957323361906 -2.127214541785059
P 8.248834665498018 3.79841396462392 8.380261943127804 -0.7875630939739147 -0.7084060267267736 0.49401947471895563
P 6.08151943171819 1.4269385852739647 2.6417772565025244 1.848943018197822 2.77999757983089 -0.6091262205878284
P 0.8111061542137493 2.4317161459208756 5.419895997153834 1.1885538856699596 1.230399360950836 0.8107498165030231
P 8.355895163944774 8.951634282185607 1.1295605400718463 0.4903947334821748 -0.42795497898971463 0.7100708160237061
P 5.820448129991421 5.5765751520851765 7.029342001001323 -0.14700513723936617 1.9159310541825971 -2.445123734368576
P 1.7445666308443728 6.869331370327738 8.974972332996943 0.6695342893622405 1.7760635564292766 1.1066981885447327
P 4.994555521013537 4.008981511747572 3.665808732385386 0.5929912626991788 -0.2972822603617848 -0.25206941127057236
P 5.181386769805716 0.9208779068549882 9.283405244372851 0.7587862789515384 -0.27748759423336083 0.6158391138316298
Ni 0.8375014775567375 9.22528722102403 13.334129997944462 -0.3439544676073431 0.8122302577032915 1.136235021661585
Ni 1.36226766479049 8.40426311803005 4.67567210972391 -0.17660599082493456 0.7098610140057452 1.5375443730393135
Ni 4.257704342358085 3.865164725786341 1.2877347553656793 0.7388545730246179 -1.4651163969858898 3.151557724970643
Ni 8.38481707401389 1.4405834593246316 5.357321705300974 -1.8723817088367365 -0.568276276451002 1.21171258317461
Ni 0.3574975654554321 6.992200523262451 7.410176684604108 -0.07581360469620492 -0.050684413728744965 -0.6659010634850273
Ni 4.71920513372862 7.059417616415668 5.767314262960218 1.124333899348625 1.7322061929246944 0.411124280585621
Ni 4.607705154729494 3.113502843103234 10.334982950951984 -3.676709659428345 0.44151009196632995 -2.196934117768384
Ni 8.10127789697061 3.8399081851648744 4.378378004280134 0.9324668685995617 -1.2640414744853135 -1.7635145161196728
Ni 7.462468356059934 7.035476132008243 6.492263716546596 -3.082533118171814 -2.4453885579941885 2.1224628860326864
Ni 3.9630851172135113 1.432916961395959 2.281022828423379 0.36828815925670116 1.2666313466996766 -0.37966220542159773
Ni 1.0570906833743132 5.763620913593121 4.055570875619955 1.5482622736774496 -1.518098862720192 -0.019700820863037035
Ni 0.6724115588394122 2.791136864506347 3.2222505306926865 -0.7119749750249544 0.1697581146651657 -0.28181707484665014
Ni 0.5451700771590046 2.4043797646204625 12.961062539980361 -0.2935952984285008 0.7402560813578347 0.17651523088334117
Ni 8.185087082356318 8.079546826199556 9.480913630426276 -0.41432633246268646 -0.8514498653255466 -0.015021155999180583
Ni 2.7041566215832313 8.103395044208819 7.419268293096652 0.13254730994282332 1.3187257534020707 0.16447938276472965
Ni 8.712629810263266 6.640297076368598 0.7113316267911772 0.7101469206772802 0.9238444170378733 0.49384746791746564
Ni 6.736669245586327 3.474443803978698 6.331925720815474 -0.7922453299409324 1.5644203714945508 -0.7888383611419123
Ni 6.845706991674055 5.688858568828839 4.339514828831246 -1.710485256307835 0.13414447922661413 0.3082711552731207
Ni 0.6806581737646341 0.10023899408540395 8.97895853885426 -0.09056736596661176 -0.4252686904068031 -1.433683118177273
Ni 6.0456305217065935 2.617931836485204 0.5185583757722872 0.4217825316304155 -0.22011162741705315 -0.03593862287813811
Ni 6.457849348289895 9.212966729827222 10.86335201914662 -0.2258511010039917 -1.8128817536988906 -1.8081290695052536
Ni 8.753536452495819 3.87372658113734 1.1711620169706838 1.0040728629723223 2.5928834903857796 0.7524215130757751
Ni 3.330058092988696 5.912716577690153 7.449585468482227 0.2283188458181939 -1.1327732883652297 1.2478944324118058
Ni 5.394957494950089 0.24222775864271814 13.506836050735455 -0.4256268450771702 0.7479778754821247 0.626159007700399
P 0.5326714471417123 1.0380643381498702 10.914337028364239 0.421617466807461 0.5648968184558077 1.6813829396252398
P 1.7577078663449806 5.876771707839662 13.57039243776093 -1.5833927988319956 0.4552706360855321 -0.4094152683143142
P 4.635880933613339 5.200832813821875 10.288148296452443 0.30575353105758957 0.902575223246452 0.49048395076187146
P 8.788949703876803 5.6631823294156565 2.6296834026532423 -1.0951467362617076 -0.6955955052256666 0.6087112445375968
P 7.80619233983524 6.05989095398511 11.096925588704162 1.132020212249289 1.38483884298106 -2.0244076963294617
P 3.721403899664005 0.0888259849426829 5.912869534583134 -0.31288011480004185 -0.11787042465693892 0.6046581575141458
P 7.7399731971423265 3.4739774719879026 12.849974798461098 -0.8494361773296274 -1.7478883795466411 0.32458197661800225
P 2.8774269360830855 2.953429723942883 8.220510593041102 1.8488597144553967 0.0013567711382105666 1.179067286335763
