# total energy = -381164.74615534616 ev
CRYSTAL
PRIMVEC
9.31969902938901 0.00000000000000 0.00000000000000

0.00000000000000 9.31969902938901 0.00000000000000

0.00000000000000 0.00000000000000 13.64032157913430

PRIMCOORD
 96 1
Ni 2.332264026390709 1.4919347151489117 2.441453621370124 1.335069999088049 0.06873098681781066 0.7423409889113216
Ni 3.409677163740507 1.93031472271478 11.40866961239265 0.5666199717945016 -0.0846617991154542 1.5645880074206666
Ni 2.0908558598874842 8.141418886630456 5.873100111864214 -0.7766783287406108 0.7284686018046035 0.04248953662277844
Ni 7.0298304125796065 1.4415617413640245 1.185890707315861 -1.832821172935295 -3.789660278186163 1.2404816848875022
Ni 8.774049383113697 3.8459415996044015 7.138321030124449 -0.04180768006440541 0.5488137968510161 0.7652636591457659
Ni 4.949449894511589 1.196379096714106 1.8570749351503189 -1.9428021675418286 0.07619464218470749 2.7870729986204323
Ni 1.5678250251452732 5.6491356262181895 0.95730737878218 0.9763715404023119 -0.05363938259201085 0.45001710099607656
Ni 1.413537406087215 2.9645124152097178 11.605335767323908 0.39282471094548477 1.4719208215022328 0.5983921219997759
Ni 7.213055697428984 0.81983529286012 3.4939412234030525 -0.23032842004905493 -0.9624700998298716 1.2993684319213816
Ni 5.053606851962078 6.638086179448442 10.084043999922933 -0.314222230650233 -1.5971374021115978 1.164705361187136
Ni 4.241590786670047 2.462749133876778 9.369850292584337 0.4403078441281127 0.05566464055215575 -1.1980119457590659
Ni 5.0772043301532594 7.221294311457816 12.496144296920647 -0.1165920721651476 -0.23960933113034866 0.1818484701707965
Ni 8.68392789254943 4.109223099960195 9.788581578479404 -1.0768677354468617 -1.3443969329159298 -0.17695154708981137
Ni 6.783147296370138 2.480642956201845 6.844017979252397 0.6709494245422122 1.3597225075294068 0.27904799674194525
Ni 2.04639157534952 0.48061129219285054 10.165517741666664 0.6366074567272326 1.0947531003677144 0.6317961513815183
Ni 5.304837981345834 5.272079238912184 0.7668872862062664 -0.35502383804762727 1.3091604783111388 0.33846721924052675
Ni 9.303016866200215 1.5816647783498168 10.51996174297928 -1.7571839459159544 -0.520905243366206 0.7055487597836365
Ni 3.224075355613583 8.061931172770825 3.1445307915892737 0.23600130206411613 0.2166259828612979 1.4643607497667879
Ni 0.3262192925045625 5.36105440648375 12.551878893613665 1.0823745241977034 0.4363144066980035 -0.9160395762814739
Ni 7.9963298106113765 6.4318785165503085 6.118284620453958 -2.005592620505488 -2.09751675761031 0.10005756484523413
Ni 0.8149247433897672 7.593933161377321 13.21294286016542 0.31042985348733637 0.6771118445991823 -1.5140802284791022
Ni 8.223842305715293 6.4045158799115605 10.611556677975626 -1.1879699881420314 -1.630482810341263 1.1788649405169696
Ni 6.719419193735345 4.174703306030984 5.181303505469158 0.957374687584835 0.991271597442596 0.4398136781005135
Ni 3.580386092661465 4.765739985307574 8.149287508603921 0.5143263045971077 -0.687198539411223 0.29658420585349565
P 5.293505227206626 0.9201823573072313 11.172569014542617 1.2221929138806435 -0.3667663232955361 -0.5968528025371139
Ni 5.658930630001338 8.33120523966569 3.205353012036069 0.37990286067749407 -0.7816197319062861 -0.1977808251303368
P 3.205836704420794 2.858696551314508 7.23338102925645 0.9354053824025955 -0.005495218786616343 0.1609358883878454
Ni 6.810873401274863 5.580635837630046 3.13600513082731 -0.4553817077420996 -0.630317767063779 -1.425061437946533
P 8.571243410397152 4.883298670103609 4.491662545482325 1.302406447416757 0.05233197663449698 -1.2032940200936115
P 3.748252513348493 0.8113711421123987 4.113812119810643 -0.11426290981133871 1.8978248315001895 -1.9468411134978922
P 5.341399161023561 8.487282240956254 7.854629377195106 -1.6765847469056478 0.8509047914553539 -0.6804265107947121
Ni 8.520162139478565 3.4737966937386613 12.283205015342618 -0.20710595918600463 -0.7806727946119845 -0.08809139362229344
Ni 1.6032305621311729 1.083452302384508 4.909533623147912 2.2881499159522725 0.9352287476154152 -0.011482032497670549
Ni 0.5310019734060801 8.102900570135926 10.645411417026686 1.685380233710091 0.169054917950554 3.236711376120852
Ni 7.456243926465587 3.0137390660019054 2.9206790743026945 -0.0428129814004682 0.953255780320455 0.3798192998247523
Ni 6.410107699388145 3.273553638282216 0.5025302925711439 -0.1295748575780607 2.50754266292543 0.2475018465045479
Ni 5.06334593755046 1.4915432877855506 13.305629131929612 1.2233226566097124 -1.4598757174122408 -1.626772194258895
Ni 0.12955872939278198 6.183899962162098 8.510142530946439 0.49544977940757906 -1.4506554843655532 -0.4937939889717109
Ni 0.958167587011661 8.063627358012056 4.024017750685758 -0.3175325259703886 1.4195957868462712 -1.7352853460706503
Ni 4.82795829668369 1.3314774552683564 7.052127792742483 0.2708004120211724 -0.35988090902961245 -0.01556443009716029
Ni 3.3349890949316108 3.2020622262741 4.337226743208137 -0.44462189812243424 -1.1231072260303754 0.25282325871746136
Ni 6.796511744919171 8.43907143736898 5.561213584648047 0.5014684747978331 0.2654638302996073 -0.6650847382313191
Ni 1.4347863200982311 8.49807445254606 8.510605719993084 0.13032896213526585 -1.9262890003781534 -0.9807822678754979
Ni 7.634958476937186 5.397746061949264 0.13861840891475954 -0.17639901702045105 -0.5358137850469223 0.10620995759987514
Ni 1.3336209860677133 5.979080934433983 3.3981039613638053 0.5695862535116771 -0.8439671837952563 -0.6315105018202996
Ni 6.561608728407038 6.866670439952036 8.541760542206868 2.153836772358278 0.2291518832424505 -1.2558080308319275
Ni 3.268120253690803 7.116158785598924 7.325126011408751 1.8795196054330985 -0.7515550513104218 1.240837011344392
Ni 8.738075344481011 2.462096754937843 0.7151937110549929 2.3108766681258266 2.1434865394722054 -0.10917855330989584
Ni 6.398122566310001 4.353846562662455 8.657157988775202 -0.2744956014845724 -0.34989423013054577 0.28717731071729896
Ni 8.84007013173389 2.509720417480077 5.0480103726359316 -1.6194676901776819 0.38283186139883096 -1.4092643230132762
Ni 2.9102717662868605 7.381201709089841 11.397594081949364 -1.0933333372020526 -0.135119955766006 0.7841057315529335
Ni 1.6023824695105577 2.435861801893541 8.960204781368803 -0.118716317597002 1.5666829422764823 -0.2793459875983383
Ni 3.5610756760689974 7.092738381691167 1.0917263312700256 0.5978401061510478 -0.8009791102695045 -0.33129975495781006
Ni 8.140636031903734 7.276150060523097 3.8929883727706343 -0.3144456595149488 0.6173066995160916 -0.480179740622386
Ni 4.429224289206797 8.76144914989313 5.412615641907411 0.3542375947009061 -1.2505352124687623 1.7641279813339554
Ni 3.8245435704073434 8.468642842700977 9.588273285129066 0.8931935249212358 1.6392518147831445 -2.0646642298566635
P 5.989509677757811 5.527709266284186 6.899342509183799 1.0462422972515206 0.04886124447707715 0.42941742246785397
Ni 8.888308894418548 8.054466093769587 7.277070846796908 0.39326719779954206 1.9584293325561237 -2.7574274078398577
P 2.913095635122535 6.3650376344068835 9.394211986103985 -0.9199635939262285 0.7515851332174088 0.42101762843993296
Ni 5.658762875417041 8.569714979740219 0.7326420517617579 1.4767048731544374 -0.4614160868616376 0.09021641038509624
P 1.891554094042931 3.759035405239171 13.73048439212145 -0.014999558732625783 -0.9604916359472618 -1.0045338617691408
P 9.067265757067466 9.466577585890272 5.1036359288491555 -2.7838074404952833 -1.106834457012281 -1.0517935660870532
P 8.710405157771053 2.0157856834143546 8.514903033260838 -2.207279208448134 1.9399700974096719 2.299049079363279
Ni 4.473231908487507 4.570268615804481 5.865992909309477 -2.3444128522100596 -1.2932911153790503 0.1223163762434345
Ni 9.442532762140965 1.260834135880855 6.848764502018104 1.506764411543979 -1.0523337548612393 -0.048470179686245556
Ni 3.596425294860131 4.5659815542057665 10.636545587246564 1.6817418656265555 -0.5556956115725139 0.8326371034944177
Ni 8.736705348709249 9.418860726356762 0.9945078898200626 0.7774635436460675 -1.9967606240361544 -0.9410530676066761
Ni 5.554773672550849 2.3943705013772933 4.682353841302852 -0.7493109924712513 -2.2822577188375535 -0.24514620178817784
Ni 4.153146841948756 3.4405533269503743 13.421735807601559 -1.3148662704466645 0.8802685893294516 -0.22367029130258897
Ni 1.1139277185318865 3.699538446008326 3.690048196386651 -0.9602355540723979 -0.9880317503490597 -0.272967337765504
Ni 5.038182749905837 3.657609119633079 2.7764194515059755 2.186112344562532 -1.0871583187395921 -1.0018735413281585
Ni 4.270817363134322 5.68003974852544 3.1738980955103764 -1.8112128506368999 0.9825583859393144 -0.7939258029671488
Ni 8.976258895086074 4.591853038984092 1.937853427339127 -0.06811135095594077 0.36116928882373284 0.37256364670360353
Ni 1.540518306701292 3.334700184258654 6.002109910978378 0.4754946764418908 -0.10278807640251976 0.520664845220626
Ni 6.806558380578767 2.1125334800583717 9.95137901481091 0.6983051908473458 -1.2998944796281808 -2.9496019425270106
Ni 6.427880365624551 2.9714462713606804 11.835461506063213 -1.994777275057539 1.8552992994331532 1.020661620568939
Ni 7.521491140058186 7.499701683497766 12.816541573380173 0.4309652265709481 0.9064426766216583 0.09253888787068579
Ni 7.361732857612203 0.6751106170769317 12.433821604914302 -0.1612595902758513 0.41204113597293557 -0.005898367762305971
Ni 1.4395020878568165 4.810605016908027 10.006990591475441 0.1607001182279555 1.0350253454897786 0.22858444077475473
Ni 6.708524465455135 8.491970049617457 10.57577835302462 -0.4490765914596782 0.28801163369313626 -0.19606332821859784
Ni 0.0423925154218901 7.109746832599108 1.632309887349231 -0.8603978185474537 0.4278696183647599 1.535084598644911
Ni 2.638434782131895 0.8323041183229878 7.587811051020375 -0.28371017810430493 -0.9428425554069311 -0.6522374499550058
Ni 7.068292810879371 0.38090915092537186 7.453849695759696 0.7231459040401094 -0.2389408443084143 1.6436545718365305
Ni 1.3941617516008542 1.4793344819283443 0.18171735753052465 0.5972608366088101 0.1631570644088803 -0.4206795283742239
Ni 3.518065264594945 -0.17494939202403345 -0.00015097912586774673 -0.4612474224942573 0.3576563905744679 -0.970455174917877
Ni 2.920187926158668 3.7596505053815954 2.0903106574885175 -0.8990348141933613 0.7609071819492831 -1.3284602070810154
Ni 1.816772828242758 8.688438626927208 1.4019660676503387 -1.038936507618727 0.14200228470813608 0.8982441999712658
Ni 3.152742378490636 5.5097222469678435 12.879669487391146 0.22322703311758327 0.22080453971901973 -0.004500973194147087
P 8.490963522111672 7.987606572227907 9.247456547880883 -2.370893672109407 0.6912045752468226 -0.5251881870122762
Ni 5.388146771847797 6.43479558237726 4.9337862761877656 1.0431410326183777 1.878244852485733 0.8138374542894112
P 5.6256872632130515 5.253439840656907 11.70769309087285 -0.18572492240706723 -0.8677537446918927 0.6494920259993847
Ni 0.1789615224984819 0.9908983703479282 2.9771639067754876 -0.46806804496051646 0.37371292981669835 -0.20376995283423616
P 7.297389654834985 7.224733280435914 1.4698675315544887 -1.5821103325751462 -0.008094089862044124 0.2824698779393006
P 1.8240887920579545 0.023385921020983757 12.223215044027922 0.06183760213208704 -0.3631500666991875 0.15898724930190683
P 2.8782399603851663 6.041317885208354 4.969591628266241 0.5053912068910071 0.6693160027038473 0.32398162402984204
Ni 0.8031334600534787 5.630766499237614 5.863128965767553 1.251139935932297 0.39875187506319715 0.16438682305092334
