# total energy = -340873.2838543838 ev
CRYSTAL
PRIMVEC
9.18670449763105 0.00000000000000 0.00000000000000
0.00000000000000 9.18670449763105 0.00000000000000
0.00000000000000 0.00000000000000 13.44567063860074
PRIMCOORD
 96 1
Ni 9.023603448649718 0.8550478995906812 5.397737160759722 0.7024495520330224 0.1666285678972485 1.629487793417845
Ni 0.9119678001120258 7.8171870803635874 6.319774507339806 -0.33747271653774136 1.8726298202918006 1.093414069841317
Ni 3.2366688086606787 6.760679351130268 4.672235570373795 -1.2044618151494675 -0.3835114039643589 -0.11757423357275881
Ni 5.6674982987508 7.159272072739736 8.166348902711416 0.2809197598433613 0.8610822462089881 -1.6493369669332885
Ni 7.951441575468243 6.3669739561525 1.9988329933574807 -0.8832189302070274 1.7521299284318146 -1.2458810015262027
Ni 2.9713108579902285 3.433025424123037 10.140657070550121 -0.4807878065200301 -0.015542061499657103 -0.6080895517931979
Ni 0.5667911700439572 0.5994223433443359 7.750944512425232 -0.3998181115441824 -1.2933736477905273 -0.5469178653798838
Ni 1.9441454619555032 4.083591068390947 4.534001395011899 -0.28329905870881533 1.627483361393307 -0.07313400098151275
Ni 8.998753413802442 2.7829466751774565 7.851397448115074 -1.2340066186861198 0.5207080397537355 -3.1121545405826727
Ni 8.754451389146762 6.351136078120446 10.553681185779398 0.5679132366846285 0.5643329755325377 0.5041812457433059
Ni 3.065796110635047 7.727442167083351 1.784872815316805 -0.7720721974271672 -0.1267330172538914 1.4273695172544192
Ni 6.964908972087677 4.602805216079799 12.22352635920111 -0.183283145734794 0.2281884908879167 -0.6321879875032984
Ni 7.8366353331442475 2.1223124031119065 1.7036063113380664 1.4048929334184577 -0.09982359445755712 -1.4602750097331882
Ni 9.03716302404143 1.8289625647595154 9.872214224611014 0.37789148667442013 0.36700672144111635 1.892332698037367
Ni 6.65404008883556 5.453098996249606 9.699612588855897 -0.2987179643670468 -0.5215878712555275 0.5741054815382692
Ni 5.428763416837247 6.246453583819259 5.301856447747694 -0.9226956481454109 0.7919519670702296 1.4683151064288456
Ni 5.108965057107662 7.2488240652318785 12.214167863637739 -0.2022226629517743 1.5004724078876805 2.3031728717236657
Ni 1.203219395226296 5.9431086113027884 1.1078117974803068 1.193539768920325 -0.34921905844039214 2.353530241130295
Ni 0.7091299648401476 4.011411133531411 10.858722942560673 -0.2852001323862701 0.34298876125996414 1.1644078845513752
Ni 6.871342389862352 5.101119611725195 6.917326437710056 -0.057223500398843385 0.9587746532561553 1.2493306506377
Ni 7.430289033194261 1.0614777362027756 3.921416341897072 -0.8771215590600379 0.8894453707327133 -0.7327376614936025
Ni 5.900105648966338 1.9703183822068486 0.10675225875630373 -0.10541291561987652 -0.25571420711201126 -0.2305150821385643
Ni 5.518783931243331 0.3607150215433672 7.589851979685519 -0.1099156885862365 0.47512366625571717 1.2802787622797822
Ni 5.7264861263864235 0.9468460412584836 2.2428456368310195 -1.488943067091842 -1.794914627697509 -0.31060417428167153
P 0.8159134583907139 7.922926045647191 2.6450459771778356 -0.4787687192074722 -0.23844282162607322 -1.3989601128737907
P 0.0921830645735699 2.8660587880289565 4.616973869959636 -0.76643556796668 0.2372709128051591 -1.194777240871852
P 8.83476155721881 8.962401625303118 9.566217969263887 -0.779498057577593 -1.7684098965387607 -0.20811897383155126
P 4.972946714797581 6.797095446558956 10.285669196267035 0.45280083438880075 -1.332292179232596 -2.7634936686385956
P 1.7066783452208496 5.200584058043664 9.289291202000767 0.16181314878647618 -0.2253204253115023 -2.0509687346474417
P 7.704254925695357 0.44113543006575334 13.344975819058785 -0.17973810869601303 -0.5252254680081149 -0.8669932123767843
P 5.059742696031247 1.0850783792795418 9.761946214159313 -0.12614577729185372 0.23428097693889974 -0.708273100693335
P 1.2431907451784208 5.970163455156846 5.6902748944612815 1.7701178803688034 -0.785696473078821 -0.9186466748870178
Ni 4.556761454654829 5.235217932858536 8.505099433195133 -0.7715677469869229 -2.2985137756850995 0.7818763280017825
Ni 6.254574630327575 8.735343044421317 5.510936648520025 0.35669222688898566 -1.2307863119766094 -0.8500761249064714
Ni 4.160915557599643 1.7950085060550673 11.905294332536762 -1.648860284407186 -0.6815847927688713 -0.07687187075739019
Ni 6.188522227166053 0.659608117206977 11.54031116822443 0.5869275730036021 0.1919469920573791 1.3045348066136695
Ni 8.616816186898374 7.978478045913911 4.404505612680215 -0.018895808463238423 0.5632610826245976 -1.4692435317803858
Ni 2.6421879935027937 4.581951397557317 6.798964940862623 -0.20239338420168368 -0.4463846464498119 0.7889412052683639
Ni 6.469589442009828 4.051759138355528 1.0442590965302252 -1.5964642873039732 1.6178193559409817 -0.7239820267881596
Ni 5.339257357866078 3.2067660865061933 10.574240111097225 1.9617961921458276 -0.0462762573587203 -0.8480259272456621
Ni 3.0977474678250014 0.6395976381295883 7.623090394133182 -0.9326985249943938 -0.14989891384739346 -1.070046341649654
Ni 4.519206207905969 2.6830688271702163 8.178315503595726 -1.7561058823604274 -0.07252387820133961 -0.47991003190076703
Ni 7.5005305734686685 5.938166164445918 4.528541736708854 0.8487581774259964 0.2245727485122003 -0.3545823796348345
Ni 1.7253273547365502 0.3801246901664079 0.31407044966404774 0.9351081628771508 0.511613533651635 0.5264585690842676
Ni 7.888181930381979 8.886124420372644 1.8692572866993018 0.6290718104718198 -0.6094550646821569 1.2325601160475805
Ni 2.8784149051711325 6.999891941661957 13.076035053752316 -1.0882775199457 1.0821418393616071 -1.2477345097951738
Ni 7.847080615813878 4.342913354405331 2.8478195055203495 1.2043183475930677 -2.234693853015661 0.8038021815405963
Ni 2.8999393530998447 6.752126529524791 7.714762677953514 -0.2651208451378918 -0.9560361712790696 -0.02035542372790043
Ni 6.8523902191082176 3.8039753528099713 4.913962561843637 0.4619855862118624 -0.9331538673642574 -0.12449847149641785
Ni 2.212314544109601 4.509220260446084 12.997338070936896 0.07535800521602505 -1.2228187203901004 -0.921354560736484
Ni 1.4358083720334434 7.868283529095768 8.90975997292535 -1.3326554761092855 -0.06963138714489299 1.0299780128738585
Ni 6.789103013909369 8.319718173234454 9.99180030912763 -0.2091929236220204 -0.5346976691646083 -1.448535352698757
Ni 5.447743147703965 5.5925347925202 3.057653016036664 0.36169096565515774 0.8061421425276826 -1.8287254055993665
Ni 8.842818296797759 4.321701254419247 0.531164212505613 -0.601587489008622 -0.39699735426593563 -1.1377252330538663
Ni 2.111756879991936 6.452483798798875 10.890132284203126 0.18701073109802632 -0.24505158519184247 0.7813379389998092
Ni 4.108064448366232 5.524764475674228 0.7829019555366653 1.1553887117719006 -0.848597740588732 1.200171672414546
P 2.780190663918979 5.312919076939225 2.8221922754981823 0.9214854298873937 -0.4072159466701503 -0.9044369590455391
P 6.483341938189633 6.224295253301097 0.11490821474055943 0.2857585759929014 -0.7459986402685668 1.0198087856503404
P 3.332118665245965 0.8884562680659506 1.799541225904844 0.016122873703791587 0.30531387241700964 1.6765891177810226
P 0.29960598390913606 6.0606892382936515 12.512150556915632 0.6803270091023702 -1.4067819229110545 0.16295266170755807
P 4.05079453441506 7.926885515155204 6.527254384241381 1.79339767683235 0.951474005829684 -1.1046477337736074
P 4.831205055774062 4.315243001370213 6.455992201130917 0.7006598071224515 -0.33465401614202367 0.7374273536597881
P 2.5666824717246937 8.530773515408693 11.532135920161366 0.6620420947502533 0.1588844051754554 1.2239142674471246
P 6.096113169669287 7.693579975420852 3.2723132209369936 0.9514536941147099 0.4849193121899003 2.2262007279429854
Ni 5.692853602328797 7.832133848088732 1.28163342755251 -0.14191692408318138 -0.9050522240320348 -0.9645807184149712
Ni 9.047534813077501 4.541612579437395 6.2168209507681045 -0.21461280908601102 -1.0734754219358609 -0.5325623679891602
Ni 3.8689161647639065 8.398806509648576 9.41847647373066 0.1703857209468356 -0.24598232453622795 0.11095569981497666
Ni 8.097105957182997 2.3401475329820025 12.257906680980204 0.9759565643520804 -0.31177531177163725 1.1394216469196827
Ni 6.687782853343526 3.0955702189308036 8.263816159537907 1.1155805786360269 0.10074327805834907 0.7850601250464028
Ni 4.3790446620039765 5.106245792665964 11.542677663225044 -0.8296880481684228 -0.4576651044596376 0.28420845789696214
Ni 4.182816660400348 8.856240071626548 3.758911812722599 1.0228146623561998 0.596934563617643 0.19037836201867858
Ni 4.173143060883091 -0.08684375209547864 0.14368556563116652 0.041468294447115674 0.8610750471201364 -1.7549902806987452
Ni 4.140126046006524 3.0649784939616986 2.046955705941764 -0.34728327487025995 0.7114566406276392 -1.0816301898325114
Ni 1.8073278763804637 1.9657158434051905 11.922517565561408 -0.8069710661868812 1.7914724347851791 0.9553301463509806
Ni 2.2572467143269863 0.7753440539954993 10.016015542715037 0.26957065337912933 1.033016542589866 -1.0119916035987668
Ni 0.4716104838915828 9.238609073627776 11.591848578757968 -1.390642851257347 -0.6858895907918122 0.3823713768226447
Ni 1.7056402476468229 2.345962716737391 6.051519988836696 0.579591187243189 -1.0309262357197406 1.602446215919021
Ni 5.661967902825455 1.933544005314558 5.535797707412335 -1.0166933799498103 -0.0707816986992523 0.23133526404701452
Ni 1.184193730838603 3.51379492740483 2.2557125347264337 0.43568242954095937 1.4148672710223504 -0.09951146253377702
Ni 7.438520320152914 7.638367883209344 12.092780266428498 1.2545998694564393 0.35316930133739177 1.415276333535311
Ni 8.749481382177308 4.767320714802543 8.798483262353045 0.33042455144170835 -0.19244475762940405 -0.3770702763247054
Ni 0.5458436471386859 5.750059209350604 3.48826415777671 0.5937759633840032 0.8769755204004768 0.7072217766106852
Ni 4.443875233507573 4.087495417673791 4.386609912908499 -0.7393135149389074 -1.0014161420757657 0.04629271241895253
Ni 1.89770667225015 -0.13037770593439607 4.151175813812182 -0.3373135652520578 -0.4199120540805801 1.1130423855952056
Ni 8.214925438482927 7.007066757638194 8.414582836762523 -0.2038118618157651 1.301630488482681 -1.5426752665079755
Ni 2.908997443436043 2.166500450289503 3.8397336802183033 -0.07053101614102691 -1.1500531584915998 -1.2271050064702802
Ni 0.31460787185945094 7.79440405396017 0.2507621150455511 -1.5377947984872227 1.4602580404523238 0.27743385817728994
Ni 0.7759136296555846 1.3402482749978186 2.7680201182015405 -0.9085450676766417 -0.9193097623923137 -0.30205782737355724
P 7.777408651199556 7.18057603976777 6.264203214994277 -0.43212145166257837 -0.030638550821463363 1.045674597673509
P 0.7475524364650078 2.373660629885094 0.36004255479629865 -0.04756180893936325 0.6067322664343551 0.2821839712677656
P 7.716684536471092 3.49259201412294 10.513021751683073 -0.865021433362394 0.7729821108359461 -2.062054560147958
P 1.6989615136971112 2.307810334215861 8.46742384062132 2.498297233067762 0.36401884245738597 0.33141751148259696
P 7.325110456866548 1.3786854453493909 6.8826098825574284 0.7170271927368813 0.12368291757365794 -0.22901278656142496
P 6.117270149430204 2.85310553511411 2.83847479001327 0.6656434389482666 1.8114231668754934 2.49712918090159
P 4.311531572875462 3.533013512580616 13.166551650184925 0.12737527882358063 0.4714346474399042 0.00558135074251942
P 3.594959458967005 1.1759256970631693 5.508179718591127 0.2842171996477105 -0.8575801465930004 0.7863927278148972
