# total energy = -340895.1302868413 ev
CRYSTAL
PRIMVEC
9.06590046696886 0.00000000000000 0.00000000000000
0.00000000000000 9.06590046696886 0.00000000000000
0.00000000000000 0.00000000000000 13.26886172867660
PRIMCOORD
 96 1
Ni 6.240322188604267 2.033091636484628 11.413503581753053 0.6079643390692432 0.2522432178442753 0.8790180047518023
Ni 4.7163896530094656 0.32175696616521343 5.678767622672552 -0.23102081813038924 -0.6218236135498387 0.6849357115189751
Ni 2.8393765586159185 1.6711990224516504 4.808104834878913 -0.48695305479047757 -0.5477987253229404 0.11048621637772583
Ni 3.5113229679274123 4.164638951820854 4.991042920223552 -0.12639954517387264 0.5378357005729576 -0.3341163984709988
Ni 5.179276398019129 4.526431840948917 2.7221861964911303 -0.597208900324952 0.20789245964304195 0.427841850450618
Ni 7.092580291900979 6.137977238461017 2.7525061939452087 0.7134127359127455 -0.34420643571714915 -1.0576271420496945
Ni 5.229728134005239 4.638622358977328 11.408899010916155 -0.23939310135448452 -0.6888324754702202 0.32284931019761176
Ni 5.528939112349454 7.791679073050459 12.353243998000629 -0.8502740998498904 1.2804520546328528 0.6489641785203726
Ni 2.004534050077396 6.523812895573835 0.47319920676783056 -0.7445521376300274 -1.1298430020923123 -1.317077162055054
Ni 2.631577054476185 1.5328896452361813 0.29292830933462416 -0.09505599786558469 -0.35306979964505 1.278082783069728
Ni 0.6119219890436712 9.096633849254697 4.770859396073571 -0.11301566766779891 0.10445158014787173 0.03491403826836567
Ni 8.688450747540665 2.4830232097558995 1.4674030199491976 -0.14062880139937714 0.11615755573089026 0.023015487058566812
Ni 7.0239242278178144 0.4625957296053232 4.741043462684331 -0.3751992845542377 0.4929136432492866 -0.4045463702577872
Ni 0.8495084156912142 7.191661517883403 2.4467115586965704 -0.12509625298141683 -0.006504119667104927 0.8522921587211838
Ni 7.532883878897811 3.9456702583307375 3.8147051670671726 0.33601541526592454 -0.7437910910942868 -0.0938681482050706
Ni 7.553200561798957 3.8067172021835494 12.627352404597866 0.3548811418221759 0.17388010725333927 -0.2512443442661157
Ni 7.940296379073872 8.757415052239017 6.852372006844238 0.9592212538752705 0.42535842190713197 0.9839424107710346
Ni 7.039807685400503 0.6689202117423717 0.6503614069378498 -0.10401963481677569 -0.02915168186329173 -0.0618057204528871
Ni 1.8265522925069912 6.636692422036198 9.121413674945773 0.7195569011372704 -0.35646854091395386 0.7095403974415329
Ni 0.20525651906442258 4.873964068674257 1.438967823197997 -0.5038847975488097 0.019576893690663056 0.0489067530030319
Ni 6.4761534569253225 1.7763997312356243 6.927540107218295 -0.5695690271204965 0.10081604027781348 0.12943293268355774
Ni 3.524513853077419 4.3899991051259235 0.4122899546164062 -0.25734865739164065 -0.4245750067738882 0.2874395632397501
Ni 6.249279298245646 5.815983652294143 4.936215980681845 -1.5273491776738664 -0.4792011787592005 -0.6535651676274938
Ni 5.336878011385262 2.9684024537739258 9.274019070575706 -0.33402872385319893 0.3725603042694938 -0.12189497243529976
P 0.26036087515979917 5.492566719757132 12.31037226137804 0.08066656191313205 1.1217476266786874 0.8072068363467713
P 3.981589355900722 6.124323992388226 12.515509110556565 -0.3861863796933607 0.9272040775387257 0.3844688827816218
P 2.2628850151081528 8.516080782346792 1.3815407834081654 1.4276317697768703 0.3265799808846375 0.48423257053552093
P 6.339602864396521 7.746675943232841 5.9758308892009335 -1.1443769340424292 0.12840346297777885 -0.6173205834731627
P 4.669083784478375 0.9238605850250649 12.629687780552945 -0.04214063792379194 -0.07379194628048581 -1.5685601046945372
P 3.923685449747392 6.178420220353925 8.17631259176404 -0.01031475166244675 0.9204420762245438 1.2393007772055238
P 4.6673703292939415 0.9830246513404918 3.5286814475127857 0.23677674677755994 0.11127503082760835 0.6253334264753101
P 0.02877154165777485 5.548095359993416 3.6752888434071562 0.8316605985137613 -0.12176410328439029 -0.2797920739968213
Ni 1.360410889236948 1.078887482664323 2.629556265266607 0.5867082579039444 0.18064725077384372 -0.7238213328405793
Ni 1.768729979457682 6.636638026633518 4.7791383763615345 0.39108458832592646 -0.7847711330510742 0.061702362105803404
Ni 6.096174371501099 5.827923443182501 9.495157234042729 -0.0019008165671386618 0.39539350011392554 -1.4223373541471505
Ni 8.656910479886456 2.2963019241548372 10.158096671260386 0.11286294414001853 1.4202046240748638 0.4927889447459642
Ni 2.34057071603627 5.26997166608832 6.865773220884609 -0.19111215486090957 -0.19411571757392376 0.46087384120492236
Ni 0.6201302553081498 0.28156329653459056 9.088613247129466 0.47120427659665304 -1.7832104518867031 0.7956170746266427
Ni 1.3174385211193993 1.0537296089246189 11.500812736005386 0.2384968147924602 0.4324832058773713 -0.7742740901744923
Ni 4.003991195904617 6.960136552274551 1.7603666862955643 0.2331707745938565 -0.2391272492876075 -0.30853212224399124
Ni 5.462341007667701 7.886771302836317 8.19630834178937 0.7861304752924461 0.46949680698724305 -0.2710400388358042
Ni 5.424237028090051 2.7620081642034373 4.783742947198433 -0.32796914792268034 -0.6353059643069898 -0.2052102848251885
Ni 0.9620008282045012 7.512413075689072 7.037339947298901 -0.19126384994742546 1.0390172402579911 -0.7987754177499662
Ni 5.117220309461193 4.754974125310793 7.10162715395678 -0.3500459252170616 -0.8867040605421502 0.3242809004378157
Ni 8.296142037508874 7.2609975245000715 8.84896432813029 -0.7264726544204972 0.8616134361221097 1.114304797247397
Ni 4.8206656399478724 0.30461788137065104 10.30308489733497 -1.2392364996264915 -0.602539054288614 1.016486663255643
Ni 8.313466973262594 7.160275370536788 4.87860218334281 -0.11566493236518789 0.13951885616465004 0.04865504200354201
Ni 7.351293892949604 6.071923087806067 7.011916442676108 0.08810244936588697 -0.4665063569003514 0.5305841612168668
Ni 2.4804575599294716 5.164036619368159 2.56083764647036 0.052265127952303536 0.11806197184245473 1.134431392793943
Ni 2.3753565760504123 5.2581587978062165 11.320727689531337 -1.0616324065543459 -0.18436018084905667 0.9520635597845669
Ni 1.040774437186227 3.3295697957711634 3.720933838976404 -0.1576775293515478 0.45008934899490877 0.43915290458806305
Ni 3.6122536376009715 2.782596824117984 2.8106766375716727 -0.4594185968156345 -0.32992884275221246 -1.0961962605721445
Ni 1.140644396507518 3.518122393262467 8.290729694942168 -0.39478723398849425 -0.28191194855330154 -0.5297984320907778
Ni 3.8369066506711946 2.506784934826806 7.017768481414477 -0.2959843674859677 0.8729797689775223 -0.45738819664916713
Ni 4.1554642605687535 6.868861066576769 6.085312516175858 -0.10214478639156602 0.912358784995777 -0.4162402616559477
Ni 0.29090570694495643 7.491842547575419 11.025574608227084 1.4127237423167864 -0.34101055448767076 0.44801909672944135
P 0.3103819808746885 5.683458319563695 7.845121649593948 -0.3543440383717833 -1.8639425769304478 -0.05021852983591997
P 8.520196701149612 1.5223369371161757 7.948180992692402 -0.7410500380140398 1.6632420070501548 -0.33479285571273315
P 1.9103756080375516 3.150563591450277 10.383163089390981 -0.6184775798957413 0.05453078405802867 0.558832871649915
P 4.120832520862206 6.052766840162106 4.034755422480585 -0.6549977863089622 0.2660191885824451 -1.5563563635394937
P 7.0686553806220305 4.073118686811012 10.224745544984641 0.1246329401917531 -0.5906253335701634 1.7037890752345817
P 6.646483594518677 7.887442179469376 10.276746643357098 -0.8824990213218672 -0.5185012619104038 -0.7965341871242734
P 2.467402663286166 8.59926948484608 5.840501473462308 0.7177854110591444 0.060562077853773114 -0.04414918371338848
P 6.8591968167005435 4.0156680756800185 1.5000710856189816 0.5562789948798097 -0.3282087747373122 0.054652397237557486
Ni 5.21704493928025 2.678420562084492 0.49194839548173414 0.5781907073512366 0.6434751303813434 0.4876932753906117
Ni 1.5290003739445297 1.1891650956984716 6.9584965308837345 -0.16678386252819016 0.22140797763097353 0.21769324778354765
Ni 6.884227767833994 0.8547022700571516 9.388781584560856 0.8466131060585356 -0.6214855134841296 -1.2593957481831857
Ni 2.746550803941745 1.5227630344371725 9.226954354996497 0.6532203826935653 0.19527862753377337 0.28141546853285726
Ni 6.445565108818021 1.9725404874008494 2.602156394346424 0.3570694077227463 0.11114750411080858 0.464072293537562
Ni 4.0020510932090145 6.953427785943962 10.431196043137898 0.017855283013866026 -0.026937190710476188 -0.5636660313725003
Ni 8.32154469056064 6.942992934529764 0.5935517549684414 -0.13245629289091382 0.10172955323101834 -0.6098857244616722
Ni 7.471308283063553 3.687999235833486 8.143432384023802 1.1209104754893728 0.1336891368567504 -0.4682349095556839
Ni 2.9727359541874674 8.294909075048118 12.418990814630433 0.885967953707074 0.4592872134440929 0.1549403329260428
Ni 0.1960138335589709 5.15304874802671 10.04545739115986 -1.105997305822966 -1.3405672747571946 0.3534225549987784
Ni 8.558309746627708 2.3399270371045513 5.807847006643194 0.3700488507015498 -0.011743256578857195 -0.058849723148356715
Ni 3.7121326628227087 2.722326717948055 11.784142069947 -0.49500857810510235 0.33508853257628096 -1.438618350695361
Ni 1.0691597714849708 3.3694960213386076 12.484141095010843 -0.12985176538853122 0.08725475665361103 0.40150758343146337
Ni 3.0610559563396107 8.382141169146651 8.087464047615851 0.6361174044646916 0.6117068368308111 -0.3933291613857291
Ni 5.458089100358179 7.8893460185631925 3.463039795328163 0.3803000961159128 0.4087840624882186 0.8369424157379908
Ni 2.953162675122955 8.392775470370678 3.644067695448672 0.6137866021779752 0.23376829896853935 -0.43478202921387704
Ni 3.4059862706367374 4.440994795138837 9.398520174820746 0.651674121252368 -0.2479746723759084 -0.8996467367457474
Ni 7.2280792399779585 6.320102112535582 11.735485382249347 1.0475178215298346 -1.4022156436966107 -0.7480699209752988
Ni 0.5412578280115543 -0.11838524780366817 0.22291054700435986 -0.5134513581913223 0.19143868496239289 0.3939238575469345
Ni 4.762734536093202 0.29383217960916413 1.3925404404201953 -0.5857191545177977 -0.6547098227548982 0.6714698158220564
Ni 5.80270210813967 5.723094436316843 0.4253466644398015 0.567524485886642 -0.6022024968848017 0.24599697982424729
Ni 7.706894772072544 8.837303766975692 11.845192750145396 0.26493649704122757 0.9034105746635538 -0.29963816218847106
Ni 9.139062263345442 4.708185013105166 5.735186534332706 0.008973921363836158 0.2566125505565645 0.5537924810125301
Ni 7.9951632085775435 8.547068030073751 2.7115718402480873 -0.23069480224953817 0.7376068166604458 -0.23681685598687605
P 8.5796055467771 1.6526773878389602 3.649441054643455 -1.005975993532306 -0.3405228162179748 -0.3991802208498674
P 1.7973691589689345 3.296225413928053 1.5505191952449124 0.6413606551415019 -0.6233166531555975 -0.3231079631756371
P 4.83899689065118 1.1370905635323956 8.245894284282816 -0.32536307775840095 -1.5821206169877915 0.16441819050949102
P 8.522281858252363 1.70068133070445 12.642133448686229 -0.1335451550797184 0.050117742591997555 -0.8602682349481249
P 6.372058787995851 7.672661931985653 1.318879999290431 -0.377225313845331 0.5104634792075918 0.37193629753224977
P 1.815772936875817 3.199265608650166 6.07704622814852 -0.13239895729041715 0.16097779736937437 -0.39914036875086745
P 6.742845050367079 3.9192159608271493 5.997021524905144 1.4525275045772854 -0.10106955104951626 0.05947604387844597
P 2.2895568942224624 8.485011941515813 10.3672270495857 0.07133834253367069 0.19720206980873137 -0.8174267143025665
