# total energy = -340894.8624872315 ev
CRYSTAL
PRIMVEC
9.00555751786174 0.00000000000000 0.00000000000000
0.00000000000000 9.00555751786174 0.00000000000000
0.00000000000000 0.00000000000000 13.18054372309830
PRIMCOORD
 96 1
Ni 6.362138062611693 1.970046711866456 11.230390151191251 0.5652596011118651 1.292750926604864 0.5896938228948296
Ni 4.784976799566076 0.5573107153223319 6.136267878575082 -0.4410007564300792 -0.6828526037377014 -0.4052241130511021
Ni 2.9565784986493293 1.5940376774470257 4.876590334094106 -1.0940704724783932 -0.404732003906032 -0.2928846455147214
Ni 3.5451907300743377 4.17177039112386 4.863066688679701 0.14549127169800102 0.7560670802481624 -0.8808054356695282
Ni 5.085483241487422 4.366686673570011 2.4860354274658087 -0.7811250516580548 -0.028852148345001924 0.5240255341627427
Ni 6.976199998998484 5.797714758124882 2.5898577960407922 1.378410056636581 1.0826295776313033 -0.8681327252978662
Ni 4.942547035842194 4.442117221609604 11.311793184839711 0.13328238833663497 0.3608638417681721 -0.43002805946865935
Ni 5.6010243808884015 7.6455290406048295 12.42618137155001 -0.2881067645101038 0.6149600536607861 -0.3637123669605607
Ni 1.852569216740322 6.3567257226675915 0.4279485862124526 0.11846486370782824 0.6900825458272373 -0.06607118059746041
Ni 2.8252234397064555 1.5652829329519895 0.35792137255964945 0.08126202940528586 -0.8820711897558293 0.024048813419087618
Ni 0.3494552481312801 9.128213001897416 4.860694624883901 0.6027838233095684 -0.08299958092168286 -0.45124326009369387
Ni 8.633501716557515 2.400701468050959 1.45080879118918 -0.10789711549431096 -0.22980854298984293 -0.07369167325719567
Ni 7.0062425381890385 0.7075864501762832 4.83729908754483 -1.5516643573804632 0.16775111153746594 -0.23317694524144356
Ni 0.6749259954753288 7.592900563677491 2.5356335343578884 -0.19912319809084417 -0.738411057729296 0.7049586916081214
Ni 7.465688061097823 3.833863869688613 3.953925959763095 0.5007879037910408 -0.3156484215737983 -0.16034967686707224
Ni 7.714178403989001 3.938058167780554 12.467476354601056 -0.9653201676841568 -1.184264000045354 0.014096073081749916
Ni 7.901692118325249 8.893933428443498 6.947108446660005 -0.9287976472780908 -1.0569630261031344 -0.436499526125616
Ni 6.804391976613173 0.7524035066917848 0.3769438112683449 0.340301187125472 -0.41447957021109905 -0.8352112919794972
Ni 1.8636820744624876 6.456498292119675 9.134090028598782 -0.08574937575267812 -0.21012057764261233 0.09391545650323825
Ni 0.11062156434502801 4.789344494862065 1.421746056634097 -0.3982011447660497 0.09168219629734534 0.278083833056463
Ni 6.477634335129337 1.9942896721485222 7.140269545986181 0.31939606154168865 0.15260114326990493 -0.2843786649262393
Ni 3.403065024587129 4.090585291962335 0.4466675376397567 -0.6700850196593879 1.4683014795820906 -0.39077708438783665
Ni 5.947342092852419 5.4613842092191165 4.7326977382624165 -1.1280337167977155 0.9896690288421665 0.38547058457325867
Ni 5.492696531990567 3.195135711826124 9.07798090377062 -1.0612079174224176 -1.1441913003941844 -0.023037084325121613
P 0.15490819353489296 5.516354131047398 12.487273271238525 1.7513657965722804 0.11241017287331607 -0.5813498218055085
P 3.89236396998293 5.973296109023636 12.519763520906295 0.19029120162151097 0.6880138362236667 0.8732697894141155
P 2.3894625325264354 8.540825526266747 1.5066945781960215 1.5181001482717726 -0.5522061103620167 -0.562004070289045
P 6.197435424945011 7.837257355762774 5.631743237433036 -0.5196428317140147 -0.28532457377927634 0.825133853138837
P 4.890377842337733 1.070472586481662 12.401679051217378 -1.1410548116477315 -1.7905532654050194 1.1111492823375508
P 3.9620849946871486 6.248334834868577 8.124341915067333 -0.5691016005657747 -0.4893356960900412 1.6365557560082202
P 4.745901686392271 1.1262349973533385 3.723424217601274 0.516357990315156 -2.102707043561998 -0.42088804484060416
P 0.10241660107868684 5.720005804085526 3.5304477321999803 0.4905158324410714 -0.5487094100626678 -0.41313642591964334
Ni 1.3895304764643215 1.2206492602051888 2.7892795588097954 0.29221178781741286 -0.10624055372749444 -0.19499477774476742
Ni 2.008527458257715 6.363236740603674 4.809474617120053 0.08213800425233596 0.4080664675959037 -0.35371591786948114
Ni 5.8256319857899665 5.70280518962091 9.063257718122347 0.7063774263325189 0.32322006327346914 0.6343001487502947
Ni 8.58220606211225 2.1807857585085912 10.119572667954888 0.45985439880147255 0.821114961787431 0.33323708118983897
Ni 2.3994587011419974 5.243431711170616 6.945908906426137 -1.1832792675345816 -0.4230259171192134 0.07281029909350686
Ni 0.4194428373319134 -0.008321134955657162 9.020051755809842 0.7375489668393169 -1.1757837304884846 1.261929570348633
Ni 1.4760108433249013 1.1666879607957756 11.371830533767069 -0.04983672101646901 -1.15317653461193 0.14937723701596856
Ni 4.160522450042024 6.842341395123064 1.4674159394269801 -0.08415323491015185 -0.3025399092162983 -0.18978058053367963
Ni 5.647114823207724 7.999447442939599 7.865515894049956 0.3479419915001814 -0.16822008075408448 1.158195070872444
Ni 5.402622947762771 2.672750348868543 4.956793827508698 0.31433098831395545 1.2723415097105766 0.35135513094678844
Ni 0.6146337892760597 7.3994161648438395 7.064956070191633 1.217473139807471 -1.0021599622203259 -0.9047452343145774
Ni 4.919096564603524 4.7170028529802535 6.892712178832455 0.04456595953583293 -1.0455779241946446 0.3638470927662121
Ni 8.328600562668244 6.780770399785588 9.061004527683055 -1.2600788902931397 1.5384961954296212 0.863397781716042
Ni 4.4788058620959115 0.2543556623680385 10.30230803358175 0.2043304533233965 -0.4161340750953866 0.6174141716282334
Ni 7.959750946311312 7.143343142696533 4.75087455513958 1.0501472887328818 0.39004149177339276 -1.3546679758246347
Ni 7.251833091625972 6.25020799078933 6.800316961929802 -0.46528996799474703 -0.8186891259547577 1.3229649882943988
Ni 2.290959746655247 5.235849031914486 2.5008630775788925 0.5740679434321145 0.06526436842544889 0.16289044101105496
Ni 2.195032550175095 5.1601032893689975 11.3864339455031 0.22401739022936254 0.7362423322127515 0.40152378138137945
Ni 1.103568009600753 3.5784932810115895 3.7038776554570596 -0.6183785924240317 -0.4289137433585581 0.09221852841678958
Ni 3.5910020001170087 2.5339747107011434 2.64967180714683 -0.1721448697297874 0.8513938152766305 -0.5822970162101262
Ni 1.3628560157082 3.1688935178209454 8.235375033381487 -1.78974233946795 1.2809292513795876 -0.017616684640498693
Ni 3.431666674607872 2.5768321579457028 7.07318084568406 1.671217569056464 0.746031036168399 0.3819270901963745
Ni 4.236142114785156 6.964312663347545 6.182966196012918 -0.2960131638413741 0.037603669285386845 -3.000649396022129
Ni 0.7542559498307227 7.338097325111081 11.322271150771428 0.35538713492431695 0.04138370515310937 0.07877448709674174
P 0.21556242313807708 5.2458632116446715 8.005045297364314 2.0455994999157285 0.863991706546299 -1.3662081152537504
P 8.584097229147627 1.5411840615869048 7.947894229555231 -0.2685753793453955 2.4674432238013826 0.5766117928998907
P 1.8478953324957483 3.26483872541572 10.549180077824087 -1.0251551375639185 -1.111149539447867 -2.3517955178273753
P 4.017451161037127 6.058020392208509 3.595849691617691 -0.16683682725331267 0.0682051962213277 0.630477946790727
P 6.9066410743258695 4.079040167489226 10.447728872489172 0.13965872417662398 -0.1281142138721342 -0.6677666559388563
P 6.327565728093545 7.624807253231489 10.195783097257642 -0.5582492312323031 0.9038378920089596 -0.6755198175217141
P 2.210486086521316 8.435325422364665 5.714596165808619 0.8057078832037414 -0.3566138082425665 0.1577261232012961
P 6.9354678632793965 3.884150901715009 1.3888334463284258 0.2537948786021113 0.3802031655267323 0.731226881276031
Ni 5.255319046821555 2.8759607495984176 0.36444319716450546 0.7091045954556949 -0.7122451979672055 -0.5821766885821781
Ni 1.5851942201673122 1.1066839324304687 6.981654665061949 -1.005917629490545 -0.3267283335370438 -0.5620968871131674
Ni 6.815756989940056 0.7281524414081384 9.36145423459334 -0.1707050519594673 -1.0168360761752617 -1.545228114836816
Ni 2.66685170882963 1.5135279950838492 9.187892830199516 0.8056232939097352 -0.6939674827039404 0.44023482479833215
Ni 6.343730703467361 2.0481248937555767 2.385902635721272 -0.4616618843238565 0.3338047807678509 1.47577824757511
Ni 3.959743549786206 6.845250190134619 10.506119104984291 0.4231781264263615 -0.37096287787538695 -0.6563332172909342
Ni 8.22636947607017 7.147674815763276 0.28585800239875747 -0.42781331120552774 0.8317732128322255 0.9610727052617126
Ni 7.6383516114277095 3.849830722801579 8.25588338904655 0.6580656266010086 -0.3211495538976856 0.1001238993067953
Ni 3.084070173505648 8.23757238936545 12.511288390920615 0.2931862359155402 0.37617373265236503 -0.3728456967203965
Ni 0.08326898512336406 4.68594268581352 10.177039830825597 0.03863828119748829 -0.4641329715721684 0.49776505780431685
Ni 8.587447296467436 2.3958204559882255 5.790213128884555 0.681576051018123 0.9175467569546197 0.822706731754583
Ni 3.56557931182716 2.5453217129134034 11.454749202711023 1.0484189931878654 0.05005295079233315 -0.23942961101937477
Ni 0.9345517099819504 3.299870343356744 12.592453677856057 1.231887772570904 0.1537522261552126 0.02919770460987875
Ni 3.0958764591407855 8.264003700074166 7.816866072342758 -0.5206296211073163 0.8847795898259277 0.8652397200207872
Ni 5.604113287046184 7.744545143242763 3.3702910998640516 -0.4904914069610391 0.3823137841118319 1.128584447094863
Ni 2.9806143311132356 8.318118093957871 3.559946335728931 0.9395991087689689 0.016885977122061243 0.718066432634673
Ni 3.361594433168513 4.31069011820824 9.213238971252219 0.08356059563147544 0.24716426065947114 -0.013555112976615364
Ni 7.437788844547362 6.177073859864123 11.34075055437425 -0.8422198620868462 -0.5351548113066847 -0.36038458813890833
Ni 0.6211520116579912 9.136498114623828 0.6678188096452372 -1.309646416808622 0.03962378503920918 -1.2297396158796499
Ni 4.599507346739497 0.27144911070064986 1.5221021861999544 0.08638983755015445 0.2844012906340586 0.11917397395971088
Ni 5.945721092536383 5.372166152935897 0.19576370538914606 -0.49834792689098045 1.092388971010912 0.27699059999228426
Ni 7.910193364427133 8.810055667645889 11.324235262821027 0.1797954442965097 0.16539803792425706 0.46723783574973726
Ni 0.07411213444921665 5.0139791164355625 5.647796543896191 0.05045584265770665 -0.6826703125235662 0.6596226866754834
Ni 7.613892517770172 9.086787438265358 2.596237332840129 1.2404703720335926 -0.9420871652981453 -0.25077563215981324
P 8.458271582393902 1.906926760671433 3.676923121868556 0.1479317628186936 -1.076858993696113 -0.6969090818307675
P 1.8186362767912785 3.083637906754705 1.4625529384788691 -1.0668250064988787 0.8991533420490967 1.524007257784827
P 4.834120125813934 1.0942832800127846 8.300723860011061 -0.7865950736336905 0.5969811005848621 0.03609854549477009
P 8.646694858018593 1.5436605898475169 12.533971588676362 -1.2341932807756293 -0.1627343750491649 -0.9893638388969219
P 6.377357454467819 7.679407947210005 1.3145961346325816 -0.027438555826926937 -0.33088400757663017 0.12243516120948592
P 1.7964645946908153 3.362999300109078 5.793020161098493 -0.5009388275466082 -0.4569328542793034 0.8119037276018082
P 6.856543159003012 4.021818856333116 6.238377390149453 0.16372579242815674 0.1485547411146732 -1.508483194007299
P 2.3153107736250487 8.389397080076947 10.145538391350609 0.2512913954539672 0.7895736966460402 0.3808338571321957
