# total energy = -381163.977163679 ev
CRYSTAL
PRIMVEC
9.31794490895930 0.00000000000000 0.00000000000000

0.00000000000000 9.31794490895930 0.00000000000000

0.00000000000000 0.00000000000000 13.63775424657518

PRIMCOORD
 96 1
Ni 9.24955118958888 3.306286390709631 7.652744289130862 -0.08848451529565407 -0.7079722816234645 -0.45961760020031817
Ni 7.34442281016293 4.178026726314962 5.613654611186423 -1.5342988695188222 -0.35821637684299595 0.04229027612777878
Ni 2.089577098824245 6.080490173498027 4.658452511270789 -0.6127530187071383 -0.9777401386150644 1.1014263986228323
Ni 2.756611502807391 1.8588088753022354 9.230932072079323 -0.1450377291003502 -0.3732727569554862 -0.6573135789263325
Ni 4.512047097331415 7.075609417593017 8.400256851465668 0.39386240818137974 0.4600662577019625 -0.04038945956064012
Ni 3.5231615583779985 7.398811654574542 3.5369791388779084 0.8827101088914089 1.3750341981858125 0.6677350313699726
Ni 1.553851174445079 7.6314341491326845 11.503036530062413 0.6310569592226487 0.5082250767953763 -2.0047924932016956
Ni 8.817971935415057 1.8248822379024277 12.959098668110963 2.0005676564870707 -0.6381238933717591 -0.481131563012694
Ni 3.966779597369331 2.830148723999174 7.1446693662578555 -1.0409049441990075 -1.388345570582738 0.2545793221766196
Ni 5.463847215562164 0.4075575922082365 0.05871796161456419 -0.49290644416043494 -1.0999737253367055 0.2782794940070369
Ni 3.592636155591117 0.7179066559875376 12.120840503933463 0.6896619133500509 -0.529796632318565 0.8307344871550661
Ni 2.41233207445032 0.6999500443607402 3.526586834925147 -1.6950781777241453 -0.2884456359067613 -0.5537731977388205
Ni 5.348677416533978 1.6281617850639931 8.651887021835915 -0.8805817496944962 -0.23680117225759217 1.3164079039021714
Ni 0.963866856882974 7.903145422568113 3.724675162075664 0.16579424492141123 -0.7523150694048979 1.89455464538935
Ni 4.826266835424334 8.593912632224786 5.469217147211027 -0.08793172811597759 0.05647016717258662 -0.6437831485400655
Ni 4.522324790561843 0.29540867091831463 2.9725669893136155 1.307155017845336 -1.0865613085855415 -0.0783944780495037
Ni 2.652408924932618 6.25806224955629 9.523516473896875 -0.8511986685466889 -0.16312518272968035 0.12451338389475332
Ni 1.0260455032353268 1.2247786321732832 7.547882932551291 0.7978948149172258 -0.2676742076873648 -0.011960000575353595
Ni 7.541842108869255 1.1274526976385422 10.506948219697282 0.45016699631037954 0.4692232416108822 -1.5527545051208484
Ni 0.37922544892950666 7.148429157027101 6.492785008896063 -0.14072984575361572 0.38735391763890065 -1.2746848131317725
Ni 0.2522134737213115 6.7661977390711785 13.071896118366286 -1.1482014499948419 0.5067052977167402 1.8621582313365155
Ni 6.703422744244894 2.163244771244701 12.29840419384131 -1.8709822573860486 -0.3575021243847908 -0.5496540333641243
Ni 1.7645485446413032 4.696197642492744 2.7593947729505723 -0.30679277095538127 -0.5021996965369029 -0.009647550392093062
Ni 8.054916109183896 8.522798076708352 9.259666750577958 -1.9199085507731064 -0.9104083461376257 0.29204903698730345
P 7.298429434110898 1.7493509765009332 7.9320720507317946 2.1629076243112944 -0.5585258819324574 -0.8904373023323374
Ni 0.18968633622950434 4.852524804167167 5.776816485448806 0.8214450914333401 0.12714002288432297 0.4292610993956479
P 5.870500967114597 8.308681020731923 9.580644794110613 0.5579486692727488 -0.3260732164515481 -0.7182759775423179
Ni 6.967251036290529 3.4428501912401392 9.158474800702052 -0.2669134182619403 -0.026509359144438215 0.38797175372855763
P 4.7563822486353855 7.539838750714638 12.80827841187551 0.4302897977704783 1.9205883504489505 1.9194609217127263
P 1.8845729929650938 0.6503543508083598 10.869303529375937 -1.4181148314253706 -0.15397745479214128 0.19380615675330495
P 6.128384410310718 7.93298148215454 3.6215739652886842 -1.1302358666553567 0.2887613673749672 -0.2752077970602486
Ni 7.637015598130896 3.206742785287454 2.5910912566895044 -0.11519107805256291 -0.5707681896349202 2.5000730940212623
Ni 2.693268113341889 4.906345253939562 0.17126382735744727 -0.5969196512193075 -0.502607987718915 2.6820737734992064
Ni 0.849900004542049 2.6271293404048293 3.014352381446463 -0.48797172586297893 0.6377613678260178 1.3523681240468644
Ni 4.547660282759063 2.942504503665991 13.312329846138452 -0.77639679294445 -0.6069870627576385 -1.0565025415269484
Ni 8.603407618083176 8.82129844174621 12.240484780105122 -1.947196439954782 -0.2987066515131372 -1.3539226130181778
Ni 4.248498343632937 5.024012262202339 3.2039856053900078 -0.5181307659448625 0.9268433517651974 0.3047461728389978
Ni 1.6385419756883781 2.8909110427259375 5.824289551151783 0.2971861011035527 -0.18022944651013478 -0.0653759543026487
Ni 4.905646408071672 5.434337284047418 13.02856953814612 0.7266058375642519 0.034830991636256144 -0.5307713375270084
Ni 4.8516582352909845 4.1786323927338 10.448742745052503 -0.6463627363417835 0.3491851198786632 -0.8706662903529974
Ni 2.718603605539109 7.946296825424062 -0.14504685757219626 1.9863710532717145 -2.077526944751945 1.4587994536289264
Ni 5.423053252767229 4.8129235383200974 7.288329713628159 3.3612450717305786 1.850044221681801 5.105036398389712
Ni 0.8728594207884445 8.826246270490868 9.248784322723182 2.3494159618516055 0.308983607959113 -0.1467565115636698
Ni 7.7888049206364895 8.06428996175852 5.059974870563932 -0.40712312984602783 -0.8207956307747993 -0.45499038584095186
Ni 3.7282961154658216 6.321396321076886 6.425987457254205 -0.35993798751979306 0.521433090845218 -1.1677508328816792
Ni 0.9134232303442211 7.995747159035921 1.6291392374845477 2.3171581302591644 -2.458322235336721 -3.517968207588657
Ni 2.0648286371560522 3.759548502677839 10.026790791554724 -0.2826421418511068 2.024513368669391 -0.1763617360246124
Ni 6.075141673122445 9.042422592291345 11.59075473160541 -0.5633605843169395 -0.2435878561621224 0.011316710564399864
Ni 5.96477993366534 1.535792997218815 6.191813524869348 0.7911657237235085 0.5308397288710986 0.46955208570521073
Ni 1.1508127855158612 0.056759329595492625 13.172269952679516 -0.22107399133032252 1.6263536186642378 -0.5804679334211874
Ni 3.929731448426284 9.315512921572742 9.826779240575776 0.24046653692432138 -1.170085908772759 0.2803975687913042
Ni 7.538124248852083 3.173813167992502 0.4877161450496498 -1.4345979166820584 1.5521664938278623 -1.120444848706864
Ni 0.08788312916781826 2.497609906222646 10.202922313330644 0.47664087423119206 -1.0528757434076383 0.28855465068079983
Ni 5.53918280012065 3.1739622551109856 4.0030487661183045 1.4410138475107312 -1.4746109667398861 -1.7828587249742391
Ni 6.969356891839102 5.728290491971542 3.2860170651573646 -0.08306797226577306 0.10131920516647712 -1.5137428997443414
Ni 7.093965769056248 5.652004477032726 0.44326488887942656 0.30259133127952403 -0.737257403740827 0.5830120399992799
P 7.701570320434073 0.9918020557087427 1.1374965104518497 -0.629398083462987 -0.36280168222083325 -0.14639681423140594
Ni 2.8535833554357346 0.9925754451358737 0.8445142323868473 0.9292586460749094 -0.549797500920524 0.46483719672804463
P 3.1843424457353704 3.4615792604995774 4.445403291780494 -2.521397823640967 -0.2932471710604627 -2.322134243317517
Ni 6.932010568659089 6.81574125213209 12.136523537003393 -0.5250745442525474 1.0733224412977644 0.08889023537450498
P 2.3072536097544587 7.68961539712071 7.4033234034976365 -0.08177625003754303 0.3301813250826507 0.5737244440497667
P 4.861283672378049 2.106200312535109 11.021732994696517 0.6965319009970069 -0.401348946366412 -0.005657455396093482
P 1.7989503972312757 2.8366340136531885 0.8828314854259821 -0.3632307993384518 0.6098561567753173 0.7604644379849097
Ni 0.14302299993878834 6.493144681569404 8.641180703139849 -0.28745961784440816 2.2673903148074173 0.7079794807123163
Ni 3.041237447881416 5.036209452083237 11.722058552236936 -0.11771050204030696 0.6469931708369309 -2.111264703324022
Ni 9.600464994718447 4.3122424047293615 13.715625410347053 0.15028895019696054 -1.6380256556855273 0.3071385843305742
Ni 0.47983223186536594 0.7940873781489239 1.8446698257030953 -0.25021204634685934 0.8886917803961405 -1.0807822400099194
Ni 9.166155582687402 0.5787692390742146 4.226912392465566 0.670089133424446 0.24728278851520638 -0.5471376947001738
Ni 3.4652318949024132 0.39098655898884127 7.470379994007859 0.13124144664720624 -0.9770816790954592 -1.0800970410174366
Ni 2.122012865039222 2.6241848698147883 12.3547414205326 -0.8899130543977513 0.31730909710567284 -0.2903701066229838
Ni 9.038509055431163 5.790329369150316 1.633693848954206 -0.0066802402336530115 0.8969442502129198 2.195389141878768
Ni 0.6256487516867312 5.070434263720011 11.671436021156005 1.0472434848225256 -1.097586970272084 -1.93530405939257
Ni 4.598033092916537 4.262316855927337 5.573559494259378 -0.6400704755751685 1.1412607570109508 -2.125628171134546
Ni 1.8277801187679426 5.243216916097005 7.456496256099121 0.44160985076898784 -0.8241640330264 0.06802470477940543
Ni 7.2024359656976 8.030838539548878 0.6095445475070861 -0.1987046224961868 0.49091923852707714 -1.2101681215056257
Ni 4.872316119145798 6.955435882150744 1.4816464193747385 0.5276888419469428 0.024083266201448846 -0.36792100572526965
Ni 6.684544587866973 6.028253774359515 9.657221528930469 -1.2764586172027437 0.23535261273652372 -1.7733317593204105
Ni 8.41894026279507 9.2217743958265 6.906458900140068 0.5569302553105634 0.2289914464051863 1.0871662891593923
Ni 5.400028610906498 4.297054154533897 1.3204208140636555 0.5393829904554195 -0.15815986830460504 1.229977957142701
Ni 5.500699687662203 1.9089301009472683 1.6488178053298248 2.6678049222850184 0.7271262288440961 0.525597763745869
Ni 3.575593634359519 2.6001352540144853 2.410718206392741 -1.479115539478459 1.417211859995127 0.7373065118112075
Ni 8.705234120007125 1.9026218522464529 5.912934888212846 -1.2272281623117058 1.454038027684541 -0.4512761702141583
Ni 1.7097310747640526 9.045348426991575 5.53450053280579 0.7413292598173555 0.37136936928518627 1.9178472973687035
Ni 5.795184018445922 6.296126054494003 5.191170603034559 0.33768560387949587 0.4978601886212845 0.7562239175410008
Ni 8.917012371812353 4.5914453058685645 9.332479035656116 0.25940605414130163 -0.6351969495329512 2.2628872847307413
Ni 3.9597259130761002 1.5608769049035944 5.091955921067535 -0.7257252347315114 -0.5875711201248719 -0.2416885822568805
Ni 8.296381333457068 8.408429620942014 2.519657095662824 -2.520270909125376 0.0753664898564573 1.6673372601654513
Ni 6.191047589798141 8.723925917486943 7.414273852350219 -0.2902194399777324 -0.24535677513708712 0.5822576783317586
P 7.587788895196762 6.098976976189929 6.8804515841151845 0.008541718922423999 0.02837520870858339 -0.6972294412846637
Ni 4.631969048261249 6.952314370607504 10.840718869790274 -0.37237878438630706 -0.7825126760342008 -0.4680924704405487
P 2.6640843098988247 6.356273388857024 1.908958054781984 0.10538154816130883 1.527942331173175 -1.1120280853980784
Ni 6.804084503055694 4.488072025090354 11.67099900953995 1.0973234321980523 -0.5793482179944475 0.6013869429620418
P 3.6730127483433117 4.3574996631338845 8.49817540729638 -0.9927875198664903 1.310030539620918 1.3215256847447112
P 8.699205409653466 4.557975247769112 3.878917899474795 0.8910134865507816 -0.1526620784148274 -1.4412092513509889
P 8.336653491337312 6.062823349957781 10.821762442675151 1.783993609909631 0.45842795076759113 0.18478415576035273
Ni 6.705267697336122 1.0137551339053774 4.045844223478875 0.30277362249365924 -0.6473850069587109 -0.7237897082716954
