# total energy = -381173.62754096434 ev
CRYSTAL
PRIMVEC
9.14972217682980 0.00000000000000 0.00000000000000

0.00000000000000 9.14972217682980 0.00000000000000

0.00000000000000 0.00000000000000 13.39154327387872

PRIMCOORD
 96 1
Ni 3.311330182587656 6.009015951985093 2.015494383026709 0.0896854775822907 -0.17191398466590394 -2.5493094624495707
Ni 4.282682981924142 8.149181703655188 12.060169119233505 -1.6983571055857332 1.3893680983099814 -1.2572527336982542
Ni 2.2256882042934265 3.86749604144175 1.8893462492337127 -1.007922832846032 -0.615821630330133 -0.7812788036270997
Ni 4.652441552097896 4.316116066537991 1.0521466755699875 0.9240315933480152 0.040559152369284986 0.5917712742491485
Ni 1.8242166972637333 7.232626590074682 6.272678919356467 0.6742463501259292 -0.4974539543218014 1.8720891172969825
Ni 3.0308546008271335 2.84377023271017 8.61662819697843 -0.6725481364878998 0.10116468186648385 0.6428225843990091
Ni 6.228755678336001 3.978134481274993 2.869660286411141 0.4903484536252717 -0.22680343761493196 1.0211002507682545
Ni 8.13668318324399 0.24047208169478324 12.125078162900476 -0.4149829922100789 -0.23236884751785142 -0.9395528289120657
Ni 5.355076162593616 2.4228372667385885 9.985390941697075 -0.5917008260225294 1.5647155341374666 -2.9254068333380454
Ni 7.00678399907204 1.618183254643408 3.035849434130555 -0.04451068081786528 0.5581674701517743 0.1275449716322255
Ni 4.645432864956623 4.13357911031295 7.4413994594967 1.736520246919016 -0.5943678313317312 -1.050101265986295
Ni 6.93751145292769 2.273321657632152 11.683384477446456 1.2768946762988977 0.49492476014204445 0.7564154647265167
Ni 6.874204525603325 4.713287204172909 9.659066102410554 0.6172115686991241 -0.42416054494428884 1.4457194805165166
Ni 2.951709504519033 3.3626052253287657 11.25539158588975 -0.5432036497530902 -0.3663348921850723 -0.9645904886069838
Ni 7.388162716333804 3.094317073427479 6.0869121112242865 -0.2848916000069158 0.5127512468005041 -0.9936524389699468
Ni 3.4911130724556187 7.383441459721666 3.6254117787100317 -0.2518495819502824 1.9106500082893156 1.7619921659378752
Ni 3.7953504825528044 4.260760247732904 3.4010368031348834 1.3404613453069494 0.2376889741791842 1.553827683580369
Ni 8.939754293413008 9.41863244954866 2.696682044881252 -0.6698834451715431 0.021797812601381816 -0.21041394051331505
Ni 2.166196711091661 6.340903822318474 9.02577998075275 1.2868250480387322 0.741897987836632 -1.1033904643277384
Ni 6.5497187804622286 0.42848972146763453 0.8160875048520131 -0.00952773698477714 -0.2830470905990093 -0.15652233270118207
Ni 8.906806144071336 1.6863761335780063 4.891555815030585 -0.05157015876780796 -0.6958798692353048 -0.25308731101212545
Ni 5.460407763599265 4.374317448921325 11.469240721142027 0.12263596436638234 -0.49080225333323857 1.5288890113571605
Ni 9.15146056374559 7.013948231489294 0.6848713399786636 -0.3774315163188661 -0.41434304463323474 -0.41818015899113786
Ni 1.7563074597147479 5.1264703555117785 4.641147135117235 0.49259559778823553 -0.3257292028485681 0.7298978780519623
P 1.435728645917415 4.170974024603263 9.566958594779946 0.5948026048763047 -0.4020215469534044 0.140976414546783
Ni 3.0394278904503347 5.872282504675468 11.164208200192913 -0.31550392557613405 0.7256501585192019 -0.14561288487752985
P 5.458687615841355 7.55626141105894 4.888623329092232 0.12039859039543135 0.6526804510296953 -2.840848135459359
Ni 8.103304996962839 6.226175456699136 3.143223253112615 -0.42628556170709164 -0.9594331127757605 -1.5273293801795242
P 0.09138559455561264 8.699381943689296 6.074269940175858 0.7277278669838371 -0.17537854617573667 -0.556841295141183
P 3.382359475378383 0.37795489124575343 2.5774565908416327 -0.8685009072705624 -0.09607004095239584 -0.019309241851573195
P 6.275419261130373 7.379022143939378 8.725916137827271 0.7325111473050933 -1.7121862981593414 0.38733720546835226
Ni 6.833671256627038 5.533614690253729 5.1584358246981346 -0.38835099144484736 -0.005743330241680431 -0.7924340489129708
Ni 6.725695385929709 3.41156538837439 0.5278968774028209 0.5531450772365183 -1.644546744633497 -0.9355473072970986
Ni 1.1331839344117893 7.260423445864741 4.257171726718795 -1.8479765405194948 1.0144143541076465 -1.3372587792092518
Ni 5.50703474750517 6.230173885264065 2.7965027682561066 0.6475999511829943 0.8888843560229208 0.8628290536967657
Ni 2.1740654721118884 8.762569924626144 8.00372399630744 0.03880308891012672 -1.5849586006572187 2.033145333312776
Ni 3.0022342700465856 0.27945904763337487 13.36427809753223 1.5879894170637425 2.3949183171587785 0.9299405026332824
Ni 4.975225448925316 1.9763857257839674 1.796086791588632 -1.006157513415493 0.13695700897474478 -0.5758854562568275
Ni 5.640218102633576 0.36563204549919276 10.844886558214393 1.3039550228507997 -2.442748035047548 -0.41161356151721373
Ni 1.5491760504404373 1.514169213622542 1.6931999963325244 0.9689850181302538 -0.10300893416407421 0.144913287707344
Ni 6.386130898740548 7.737096518970304 12.689196960218268 -0.09088464009671444 0.6315169295782027 0.6086459385173001
Ni 4.386751921277707 6.648581527931481 7.66294900088226 -0.3315869471809257 0.12977103274926685 0.9631488710644509
Ni 8.927420467999909 2.8360844661322733 10.342181610715052 -0.588565108607025 1.618036871268426 1.5310528517776987
Ni 1.1196331959571886 7.717433766141853 11.30500686903892 -0.04573941101864381 0.2316869909594784 -0.8485764004324934
Ni 1.833503665212025 2.8485463876550052 3.8979435717289714 -1.004838023273121 -1.1012875590521227 0.35181407286107796
Ni 1.1406043590483061 3.089906907367305 13.19812920859013 -0.2250556016858898 -0.3803607741505191 -0.26190053842838124
Ni 5.30067191488865 1.952962437165616 6.408415961927601 -0.7805753498021717 0.31804237572727156 1.5695168121808518
Ni 6.7176710796335 5.1470114816634185 7.513392218026299 0.5839648908308523 2.040686635995143 -1.0092096699782553
Ni 7.347098763474756 1.124574045900122 9.315492206989923 0.7175642961872738 0.7745569115222338 0.34865547262743823
Ni 6.925525316955017 5.596061543699138 1.0233799492355748 -1.3686933435694493 1.5760502424239955 -1.1055586756236508
Ni 8.83762509514815 7.708393840690708 8.232062631503474 -0.16455343053577465 1.1327432064582426 -1.0450464771712067
Ni 8.877957070237875 4.522085461103501 1.07497889213961 0.9017288160857567 -1.0489514686525678 0.1178395714190035
Ni 8.062771727986553 6.594186429948629 11.9795792818032 1.4743317449365705 -2.9624021796154723 0.6607012644516428
Ni 6.298009925036118 0.576917428614414 5.063436089906488 0.439486890888714 -0.8971643366435258 -1.1613387587077484
Ni 1.5370801178023668 8.176301480008624 2.0383265995963313 2.1399379028889984 0.09326779561691033 0.05545946651988513
Ni 4.573287306067678 7.933632550033658 0.9022422032735978 -0.15997429580552447 -0.4494136630841228 1.7477289711506416
P 7.31768240687007 7.661355119289557 1.6320002500116002 -0.7870604433058832 1.0897386778722586 0.42927549757335104
Ni 3.9021277396528666 8.93958959841491 5.807658017366322 0.6054752540988023 -0.42550806011111875 0.39621291069142733
P 6.519341703035304 3.0270483164266513 8.089134822320949 0.6575498633068546 -0.6316405996402605 0.8764348174056584
Ni 4.331633995247649 5.921132871055693 5.431743514152558 -0.9680943879951843 -1.7144712375387765 -0.07406268344336923
P 5.196438280536987 3.7416690628950446 5.086723962637514 0.9906902710178291 0.82280854743977 -0.3752267953580634
P 3.20686780518308 7.954521365625726 10.173943840213745 -0.6594643067207482 -0.9878371178397503 -1.0489995482816836
P 3.580670552532346 1.095175988739668 7.584769200257455 0.28383359105604666 0.5896819958202877 -0.36745306494991553
Ni 7.620657155315173 0.5707459410468054 7.041139375675237 0.6802254505274994 1.4030065150290225 0.008429361714275805
Ni 1.3311930707359063 1.3401414989658855 11.71718538088939 -0.5354607725828778 0.18298824020219454 -1.835496148664297
Ni 9.207822851983499 5.831611989867432 9.385690705012468 -2.0828020771079547 -1.3141062523521885 1.0291783997906985
Ni 5.115499838694043 6.6295043573184875 10.462182961190155 1.6235817123460554 0.7681695199386512 -0.7559768345272013
Ni 2.4045561219497347 6.932369309098192 -0.08207483732981803 -0.9389920713125893 1.115328353415905 0.3221124320315872
Ni 2.749555544076122 4.668334619414332 13.211319447993338 0.09353416190441956 0.934526579342068 -0.1934855401890926
Ni 8.738826395733716 4.157432435870779 3.777339254566389 0.10646861057790051 -0.3604419237394051 1.3793269120238956
Ni 4.538042576474752 6.1008059642582575 12.801525353726436 2.1470503455640637 -1.2976781887031523 1.7779648872170475
Ni 8.832766592704266 3.70761379717727 7.879195363329071 0.045279183552773626 -0.6078915768497789 1.7757624802490901
Ni 4.202330122296657 1.963887205372769 4.126229138536731 0.29200584245419386 -1.5427760537518977 -0.8456785100594081
Ni 7.499048198664194 7.971146410711486 10.427995024501689 -0.6114659244645986 0.04632613676004926 -2.1781198132753588
Ni 3.117996554265093 3.0979403633856304 5.827651075163181 0.2683468082743572 -0.9099501755542845 -0.20494957496463415
Ni 0.9363276630743571 9.023510849667847 -0.1159324690498754 -1.952106989882522 -1.2517929961352636 1.5652858048186398
Ni 1.9619749134504114 0.3320781845534046 4.609972201921748 -0.05574280208825883 -0.2622954598739547 -2.3123704790625337
Ni 5.289417756685301 9.237101962756437 8.416785456342158 -0.20030667687598408 0.7950774000730888 -0.10684064920533858
Ni 0.9955080657241602 5.316116645821375 11.81750110423075 -2.179514893850672 -1.2714444518176038 -0.08846188958783475
Ni 1.1527643397411924 5.860698956475924 2.467405563168272 -0.4814282683175064 -0.24926665171445456 -0.3384399655470171
Ni 1.6922228060104776 1.3472416833283236 6.597571827131751 -1.4798192504137029 1.3556642782996329 -0.5073182487103908
Ni 7.87200002185662 8.062716829653853 4.210059807540713 -0.6847027695725627 1.2856955624199793 2.0703162859361184
Ni 6.400413614964473 7.822600672149403 6.663417802343456 1.2328372809683672 -0.7398411053076033 0.33044434893605024
Ni 9.025587836588302 5.52686219533172 6.53272957643623 0.2129382495970655 1.0311861742493464 -0.8241825449691611
Ni 8.536800531400434 1.5985388012591892 0.4824328231779281 0.2763637650415628 1.2747992272224498 0.492574514742313
Ni 4.1360678347286495 4.708694043670405 9.532020380877924 -0.012118123419772678 0.0387066725415785 -0.16847359152578725
Ni 0.8516469848857475 1.705599699744864 8.768621550834027 0.6191023579639338 -1.0759387958746889 -0.16683862702552557
Ni 4.71939921854676 1.9033709432939505 12.04238571932779 -1.170816102070564 0.25379924947748544 2.7972861917080083
P 0.6627619514562479 3.5216365454364076 5.920093462623255 0.45521227204377085 -0.2520321302747337 -0.658346391066221
Ni 3.2070599493475274 0.8923110948883015 10.461486667337086 0.484858634155294 0.25543138576426977 -1.0338673206259357
P 9.261806212471106 9.264368134663735 10.024360523163645 0.08994387344999993 0.29003483477075215 0.14450628207691243
Ni 2.6435926122444324 4.84145651158145 6.961084796988751 -3.0211971382664937 2.7703636562855514 1.4607933441305037
P 7.842062131091291 4.35982428908872 11.824170336681497 -0.18625636943050503 -0.191876800941076 0.1564752815133305
P 8.844761878399055 2.6086864223698187 2.420574540459167 0.5946038586019372 -0.6564735995235405 -0.5189090388717837
P 3.52493959512048 2.702031887402795 0.1765960416547701 -1.2722492071070863 -0.8171832308331926 0.3856665026341487
Ni 5.383513498931833 8.891462060081892 2.901639480180672 1.1669296225319645 -0.3717344659340888 0.8967254493338944
