# total energy = -381167.2596510095 ev
CRYSTAL
PRIMVEC
9.23853044398068 0.00000000000000 0.00000000000000
0.00000000000000 9.23853044398068 0.00000000000000
0.00000000000000 0.00000000000000 13.52152314973409
PRIMCOORD
 96 1
Ni 3.8950012962139873 8.020660976510134 7.222250565268434 -0.6289337422320588 0.25901781756394743 0.35708946232740435
Ni 6.420344294190281 7.422928071070325 12.500485256030057 -0.32810824460370586 -0.4210595374214619 0.8163676769104327
Ni 1.6292517589788558 5.016762112973066 5.236507021302582 0.07505744325647074 0.6273517424569196 0.7873805456494634
Ni 0.37296408437492706 1.0699511392674803 4.017108797879815 0.8672202407859259 -1.291815302164472 -3.141602156419828
Ni 7.4637069434754455 1.2581399999136764 4.552277452795219 -1.629661085770916 0.02356158937002394 0.6092889714179378
Ni 8.493470476272089 8.274933043842744 3.015123677758232 -0.8018712830664706 1.4383206169492841 0.03295048678409164
Ni 7.471568932695373 5.1883123806873135 8.367577948773825 -0.08669117084065715 -0.49412026196287806 0.3428800035962417
Ni 1.0305488078656133 1.5061483437549694 12.693058723120176 0.0558063083363426 -0.00781075429367042 -0.13684696575944175
Ni 4.145116024946166 8.594807914290161 -0.20267579988916629 0.7335092495523045 0.33571922418174444 0.4779194838332995
Ni 7.1595375744074365 7.776652916255478 5.024611168250681 0.6226805622334954 0.14366681689475258 1.0842905102734939
Ni 2.982539381661073 5.004142280688201 1.177439590708146 0.551838699720269 -0.4821088393242987 0.33128252856662943
Ni 8.338272407052871 3.2429181174712056 3.0298083215479785 -1.6153510969061473 -0.23393542067402293 0.3783815389369612
Ni 7.8250350990342765 7.510740300841661 0.8701171112749644 0.11896571460364673 0.40270726016651937 0.8154788465475762
Ni 2.753082006507927 5.572764577394766 7.581950891801939 -0.08991816241838707 -0.3758047793487205 1.3345575782280048
Ni 5.3999024383888266 6.685628689548921 8.552565658697688 -0.47486501327769187 -2.13322218143172 1.3213241102568662
Ni 7.809200258231744 5.379596148958276 3.888925114886201 0.4933954679817116 1.8062519070871987 0.5295891442934493
Ni 2.1261183914419743 8.31172087119145 11.983057350702227 -0.0503033762402424 1.2914491770743046 0.31165292726116
Ni 4.046152889195451 3.129293434256303 10.985290543480549 0.6695103781028405 -0.42098497542978464 -0.7145692181146919
Ni 8.491604293167008 9.309482135294994 12.23582908072659 -1.1845961865737922 0.11675379455399247 -0.7592099967525183
Ni 8.536743751837468 0.8607695663951498 8.619362079917332 -0.34637310435116475 -1.9257794077315868 1.4827181692280529
Ni 9.321399839282897 7.130020470344372 12.332683060027353 -0.552340579057352 0.9418112859289391 -2.102032900313109
Ni 1.0227422498270256 4.6679336888062 2.437024496748728 0.6831935320168878 1.0849623395295378 0.7772611978272743
Ni 3.324392715509438 3.470666364533062 8.889914285209231 0.6354820848735379 0.3303636162967859 -1.616674443703261
Ni 3.3213624775962347 1.0509382440681738 7.568374871638975 0.8860661698478353 0.8843371029718705 1.051731602500866
P 5.44280617274528 4.365621264313049 9.26701630727112 -0.5303666458894222 -0.5468417607263099 -0.6448326728505024
Ni 0.9646688488441099 7.014520365494165 3.3809759415673546 0.4186491282077564 -2.0384297216401666 -0.24923862668999655
P 2.3943406394115874 0.5296643386084333 10.186006167279734 -0.9334598286404504 -0.212533300849163 -0.2611556898425567
Ni 6.142162910640079 2.2419141292593245 9.060948119084001 0.18047652952393434 0.3042962297857727 0.7196582026018252
P 7.922307583754149 1.4225211681747354 10.65889511840161 -0.8047144089422206 0.6068276543616388 0.3875783749448809
P 2.2810208276940496 3.229060322136434 6.838794282119039 1.3079821417323216 0.9630393420697801 0.22303600015269975
P 1.8445279902394187 6.960816789306813 6.227851202313104 -0.5052636801742072 1.6802508829033254 -0.1669039330458222
Ni 8.85055814645848 6.232515736222789 6.2827216048676435 0.15610041467241503 -0.7311199233845215 -0.07631111315791374
Ni 1.0236291487284508 6.144629598209668 0.50785494031057 0.35490325330936295 -0.4476249466148162 0.7151497732085103
Ni 0.6938284014092475 8.870374793787203 0.46230529089819866 2.2918947277066852 -1.8903650327880348 1.42703938760851
Ni 3.494363194555522 1.3180333913505584 12.194074619529902 -0.6197417913201455 -0.8290445010471529 1.2077065473390105
Ni 5.092989225844533 9.129146025338502 4.860162558718993 -0.26721526577307525 -0.1219926743554286 0.0639523344822447
Ni 4.38374726061093 9.06483661645494 2.3283655235287855 1.3214320965896402 -2.3444251935052334 -0.4186678972608338
Ni 1.3767904435699896 2.0171591659897783 8.582840322239052 -0.4239371160795732 0.027723176946881284 0.10174626540156671
Ni 3.8695121913282313 6.29972604359643 5.707312683859129 0.6244672218202728 -0.1060682898156883 -2.4435916139947653
Ni 2.126460217060232 3.2380771276342584 0.1913521333946134 0.7868017903278578 -0.515700559236815 0.2500243558160855
Ni 3.357568277540881 6.547586570954151 12.651926938860528 -0.08625048375881275 -1.324072876646597 0.3010592109057138
Ni 1.2742242810322344 8.882606607802694 7.666189658082948 -0.23696392308770153 -0.771004161173969 -0.2870924643129765
Ni 2.8815899619123746 7.150881071588316 1.583492394930418 -1.814529316604643 2.4829104661990464 0.6412637245523214
Ni 6.271576242006397 3.3100822321937313 11.393681619702308 1.1373753059136154 -1.250742700493878 -1.363226406917607
Ni 1.6894684989735493 4.536460165200111 12.02056578340834 -0.3967363872950651 2.43559059806716 0.6457675259599459
Ni 0.48946564590132835 4.286576399723512 7.774618591900334 -0.11063996834677074 -0.05070395411277074 -0.9884906922633493
Ni 4.386989984719266 1.0820258982691777 10.035268460452269 -0.600415837298024 0.12901307153731975 0.4658450691672687
Ni 7.896698377975492 7.631746569704885 8.164349684777312 0.39396756630067636 0.5683837485631437 -0.5809222473497867
Ni 1.2484025890584438 3.1915149353094265 4.098414330814964 0.5608252194895954 -0.9439789830042195 -0.31817735864323915
Ni 6.180872352275206 1.173940035459605 12.50194586765834 -0.5318123771970131 -2.185873489078848 -1.5172298298516773
Ni 6.9910729757877315 5.254423302964397 1.7431000146251594 0.5092800004224519 0.2093050237198524 -0.42108601978402316
Ni 0.2560551036656836 8.298980938013683 5.264672528393994 0.3572956648009395 0.2427566185100787 1.1410406705803446
Ni 4.978200487821509 6.639934919065069 1.175966968990571 1.649345451573721 0.009227946356171204 -1.4715346418074076
Ni 1.8710702875706173 2.7249044893272254 10.838163254264302 -1.3499811118719267 -1.2390176987474664 -1.051995140574898
Ni 7.408682257466181 7.852824597945605 10.470770003613952 0.1448487530179957 0.22173399351182457 -0.30467469617111403
Ni 8.163959818801894 0.7496476010177069 1.072709764392122 -2.206459540760316 1.3593247578703556 0.7569397126611028
P 6.119445364821277 8.965014297393468 0.7256856251778425 -0.12623885122629225 -0.5388291748344785 0.35258617514041213
Ni 1.5803706955680052 5.020171130625419 9.72828965434339 0.8431146059869737 0.013760544119202108 0.32082688045094426
P 6.661617749498874 1.832758102735086 2.6544911835252067 -0.5367491523769982 0.5170226204823483 -1.3352029251214874
Ni 4.9018717511175876 7.999135201090122 10.873021152649386 -0.6509850656051434 -0.5988412937220526 0.7828402345769486
P 4.479597011676432 3.1784978462249645 12.960407006130675 -0.03474383123908856 -0.7803303236709012 2.828823085974025
P 4.377659069193854 5.92257228576529 3.112329645060498 -0.06899478200215858 0.012085470409624348 0.4679909118656779
P 0.0838110223316754 6.372525661755096 9.220420856237485 -0.6592588755781613 0.2841896888438848 0.24369661382584484
Ni 6.162459961540407 5.8464375581960555 6.329438080647202 1.075855235021947 -0.34819498805125193 -0.7624210474906482
Ni 3.980808764926892 5.233950719989828 10.811674540408397 -0.8285683327416827 2.768629447203264 -0.7780289292312343
Ni 4.458995089278739 4.138224081399673 6.3115624485183695 -1.6839910666720483 1.5335195681506364 1.9587211527649302
Ni 2.8459107581904495 7.438744434812411 9.86500511999811 -0.12268481532644679 -0.3192142845481857 -1.0080835267936121
Ni 6.253210043922714 7.437737435018084 3.015556040972677 -0.7006577502399224 -0.5423438728559563 -0.6078249852779015
Ni 8.685262363705325 5.1580469556761726 11.058442149640717 -0.05718776206490151 1.4667331066537064 1.0518282759797306
Ni 2.595029231449747 1.1447093258334606 1.0333314531688356 -2.0011309851897083 -2.5587559525744514 -0.5305355673671186
Ni 3.4476347086866723 3.23032600077701 3.124377612324548 -1.2830522112598612 1.881381598342502 1.2679644636888034
Ni 3.0660279792879592 7.898231973992539 3.9780593783324734 1.1028209649775136 -1.5715891213288482 -0.3851869918945689
Ni 8.400955834617156 3.8048794338868572 5.455407527969698 0.2763920471763369 -0.06087009601249518 0.307979849284947
Ni 4.017790601410285 2.197938725396983 5.49875748333593 0.0654839406354227 -1.4911125639393352 -0.1325730209744362
Ni 7.8363522985576735 2.6010157990343687 7.544306652701543 0.1833469090931939 2.485839981141016 -1.6646537997960171
Ni 8.87530816892638 4.028036131427793 0.8169327404861562 -0.1198054368961227 -0.11831136884909949 -0.8928047741232494
Ni 5.63882006849051 4.243515610353266 4.141588754106955 -0.11082354511248656 0.13985387090656562 -0.5418875020448279
Ni 2.6065866327589466 9.306710576228038 5.611932250128964 -1.0353025104105653 -0.5693869930166774 2.123663076988375
Ni 8.705300735759405 3.358547561744538 9.87019809783656 0.19461194048405192 -2.061007349830367 -0.923093912025094
Ni 4.409633622296282 1.8824429182753533 1.6653651736212702 3.9019488378799507 1.4813508565668811 -0.41179225318692303
Ni 0.7456306880766678 2.249369623149432 1.8608053566396412 0.664750494820352 -1.1043052628325238 0.05654627182616068
Ni 5.687627223659575 4.922187279078362 12.856791346559564 -0.02223952812449073 1.8018044128388064 1.591453464352943
Ni 0.9196975314237097 1.8818886064619624 5.9234952149345865 -0.007673200274541624 -0.07446531819842658 2.56632708005349
Ni 5.005629684054133 4.092752035641175 1.6901225869133505 0.4896185174377825 0.8928597957309011 -0.27435264814880495
Ni 5.502828903605287 8.905665979239753 8.930343941171914 1.9953989678019377 0.4533754759453482 -1.7689367155765083
Ni 6.52992250116743 2.724664287541423 0.46667511569376324 0.7114191025214845 1.3538164264576167 1.8210092679020315
Ni 3.073197078741148 1.0910981349483415 3.7993852799631314 -0.8215579628621206 0.3243580335326543 -2.5965018038646575
Ni 0.5948079867711492 8.54087337484723 10.128107374518036 -0.9465598563575182 -0.4838867571603279 -0.3244084271546155
P 8.379023563867323 0.6067062898455841 6.455756504388756 0.36576050773884106 -0.4468294472967143 0.28757017528034345
Ni 8.320728438159051 2.8877705386316825 12.419166789152596 0.8678437333025376 -0.479348245860026 -1.001918535633481
P 8.083797092055352 5.692505167617415 13.280974766344832 -1.2088020943960345 -1.0225035588736842 -0.5835694551646465
Ni 6.3679987819457375 5.508695370297006 10.740767897092462 0.7842959931868685 2.0889691251506153 -0.42173907998698984
P 1.702005184486406 8.93849971565294 2.5852068261164614 -0.41978529869472864 0.475845117802774 -0.46492410001489604
P 6.07824152002589 7.95419899008457 6.939448068900596 -0.6690311244735768 0.511173617900739 -1.1212418906868624
P 6.324226625748306 3.3799901903925416 6.054559471651788 1.5347917499948407 -0.8931279617906231 0.21026404519901207
Ni 6.127335069631873 1.0199984063507408 6.898599907518801 -0.3225009257192575 -0.01379139735713754 -0.5622948620565864
