# total energy = -381174.2638284268 ev
CRYSTAL
PRIMVEC
9.19101631255657 0.00000000000000 0.00000000000000
0.00000000000000 9.19101631255657 0.00000000000000
0.00000000000000 0.00000000000000 13.45198141558735
PRIMCOORD
 96 1
Ni 8.25337653379777 9.11062263902172 9.909940524803243 -0.27376206575265755 0.8489790351875507 0.6350138869878676
Ni 0.7820277456169776 6.812427355232311 3.487318883265756 1.242402556059299 1.3267473381549666 -0.1932590260005833
Ni 4.616013387720912 7.133524706278776 8.510920763328294 -0.07733904020179584 -0.06806198577524407 -1.840542709949269
Ni 3.6752760889743468 0.5880982174126802 2.8237991847823376 0.4073663562050855 0.3902242972081602 0.48623725967037545
Ni 3.299804684550536 6.651538612100058 3.290664218681069 0.7563398742935749 1.1454115459545307 0.273586973627374
Ni 2.716377341702827 1.7449420479798703 7.651864027861724 -0.49680680765610563 -1.0473069910706092 0.41219025995629016
Ni 7.5744085748483885 3.8777174175222475 10.542479145003304 -0.08994593033252897 0.7652808855369465 -0.23321088380317256
Ni 1.4545518829262554 2.8142616670017984 4.254632730631924 -1.3828323540739926 -0.11967225375236808 0.7819002392611825
Ni 9.124179388300217 3.9914286731653346 6.461592470429523 -0.4734763604602813 -0.18094884117466256 -0.5120547349541117
Ni 4.617033590547972 8.374936917497696 1.1186625099890695 0.39236345503835 -0.019260390891508765 -0.36744046654442525
Ni 3.004239977229943 0.8786639308806814 5.23299529346078 0.49131236020043767 1.7271940844220834 0.543980894238747
Ni 3.66388841958041 7.181593722364563 10.590381803691164 0.5914557998912587 0.8714926429090347 1.069534692120558
Ni 3.83606373092554 7.885763448447258 5.374550733469429 -1.322912537789909 -2.741349271331072 -0.2680246490482481
Ni 2.5326397316510207 1.5226848879442154 0.2540498050724318 -0.14536914429783995 -1.5046375950089634 0.030264198201180138
Ni 1.2957403095139615 7.763780277990173 10.553362227593587 -0.2026803193144832 1.2251856779603805 -0.7526261728874135
Ni 8.42545074396184 3.426502846451599 2.4262665835495953 -0.021954649894220257 -1.5046553356207766 0.008952581207597485
Ni 5.853804338454591 5.577072023860532 9.80069702226136 1.179223866518285 -0.4150696383866142 -0.7748435895247172
Ni 3.8882687044183246 4.889142823862652 5.089207355553998 0.4097078598540686 -0.08003612741798474 -1.5454669703204997
Ni 6.300175243850821 0.445301071080286 7.945897511840082 0.7372980271707754 0.45281986055219436 -0.6177026494029297
Ni 2.7509355635924164 3.400060292096187 9.154719297793495 -0.3103709752249429 0.8284374635907733 0.575236509818919
Ni 2.2440601968400244 8.100603458199695 8.371787156156854 -0.17826255259175103 0.1758246325742198 0.24863261767488148
Ni 1.722185091224917 4.819438155030033 3.603180836760482 0.7128627769465464 0.8333631830271647 -0.1563855500130016
Ni 7.5885443581638645 7.607496234104378 8.267668564393066 -0.6860456567537023 -0.31976347218343637 -0.039267944361687214
Ni 5.928904133949229 4.904188517807667 3.3952129500151846 0.3341284826558568 -2.4775913679789787 -0.11906033119998205
P 5.0474764644190255 7.921525693493106 12.252387795542603 -0.2607998491650347 1.177327677936837 -0.46599856402599743
Ni 4.552007149093491 0.9479246736182833 12.566706771949821 -1.262177424693381 0.07612599373030114 -0.10783026681211752
P 0.9139739779166992 5.6950571021575165 5.552049481548189 0.6471860035740273 0.6867048876042561 -0.02663842852313477
Ni 3.952651774720606 9.180722521562119 7.319855102073949 1.029370975417479 -1.0206981302338292 1.1147711953608543
P 7.881655064089639 8.956682304333224 1.9994486465703643 1.7006728982031032 -1.147567673065585 -1.1849471421553077
P 0.6029407898939299 2.0563612586939595 7.13849612708199 0.2911041565755309 1.4162587520532384 0.40567585587654004
P 3.471676692352486 3.027713833268776 3.531078231733449 -1.6162674380728292 1.2742274138793799 0.9461505367342414
Ni 1.376731546559458 7.963969807505374 5.985029075962203 0.020666527210416022 -1.5276919057252656 0.5485289186207456
Ni 2.7994089844024423 5.660351824004567 6.999563803171023 -0.45170400178019626 0.46443996128962595 0.5425577886389753
Ni 5.351506097899278 0.22077464908065753 5.483915557428582 2.6139433963798724 -0.2646495619284281 -0.8017928644200514
Ni 4.454159587860359 6.212364272592006 13.373031888680446 -0.36295183464545233 0.18693359800318773 0.14643640922008974
Ni 6.9212857541845185 7.595566294739302 -0.03794694965839092 0.34467154827902574 -0.8434439643019346 1.5507387602424003
Ni 1.0239619527918409 3.1861301929732897 13.05408523548562 0.2573000635418924 1.1045682866859234 -0.10873683778678693
Ni 8.264773394208166 1.2135818133780456 3.7602461170453756 -1.5248636922478513 0.147430654812559 -0.776374938567579
Ni 1.9444790153264122 5.886754132463681 9.615664397990342 1.5165394886528722 -1.364905851502559 -0.9294864458149992
Ni 1.3360612987239697 1.1677737873414191 2.956812494093065 -0.5519834528282495 -1.7506769980353718 -2.390897368924844
Ni 7.661824332399422 5.184900542528906 7.993288230911119 0.5998820762817411 0.35744247479144886 0.9859481283471534
Ni 1.2971097709665012 1.2260540227142618 9.37915197142523 -0.9688484925523895 0.0577433774580554 1.181011040325695
Ni 3.9766862827634983 4.866615642519199 10.834428106448534 -1.283233988253364 -0.38845537823319554 0.7258242222032208
Ni 6.1705175746496375 4.947092182642935 5.805794144874148 0.5362079351615475 -2.382922578249483 1.350359835367584
Ni 4.494085363362587 2.5714258211122094 1.7401075733219118 1.0422750850736564 -1.832827086472566 -1.5823324758882813
Ni 0.8793661245382253 4.447578820075001 10.934779300565369 -0.9093241119345115 -1.1135617484337854 0.9103610378394579
Ni 4.868876632568358 2.0509109859331813 6.6245225383175415 -0.8396713846333798 1.977312542613872 0.2596017150918755
Ni 9.157892036675486 1.1918266774172321 0.5925963008682029 0.16912845150096678 -0.6222722710514832 0.2860686510341525
Ni 2.167609321925767 5.947074773490643 12.160927990749169 0.009988478671279572 -0.31201622413784974 0.3152226468902894
Ni 9.032287605733162 8.278036030959942 12.109177972571155 -0.7619554207081394 0.796385577361551 1.681459558499446
Ni 0.3791652739390833 7.144186285372374 0.8052598779229129 -1.402012012326237 1.4121408732301228 0.4522557605186082
Ni 2.241578622395825 5.984932570289372 1.1290115945230264 -0.18151011299477127 -0.5733434065612643 0.049153578906515345
Ni 6.070905338256186 3.704834397909698 7.967433901609148 -2.014136653420757 -0.2780892323731017 -0.017995151025839977
Ni 6.9786560789278225 7.257796439834401 11.022688615700305 0.41666295101566303 0.08456563985722211 0.7709776788114077
Ni 0.6046264223126934 0.7987728585054468 5.3315046078790305 -0.2800538122986403 0.6110064683296768 0.6816850657921616
Ni 7.1227436439712 2.2938846970696702 6.099168632972326 0.8509181611917925 -0.34773013259969143 -0.0741110201828014
P 4.184256198496079 4.858178289408921 8.544510252082999 0.48387390164452154 0.12700683974056837 -0.31526532720276673
Ni 7.724203761113425 8.66729396007375 5.661992420442676 -0.15077000359843712 2.0926530017601057 0.07482887218543242
P 6.630105161715344 1.5726656354536808 10.40876639933997 1.281567913404851 -0.507180694691262 -1.1887194647135462
Ni 7.948832203395758 3.392560422664829 12.94150539396876 -1.314164873504266 0.5531946995275312 1.1609415232693296
P 5.367406556375072 6.577624457728759 2.2045645609081244 -0.2379892790284224 0.8610915021803686 -0.7663458364663511
P 6.030005315009199 7.611871157939337 6.753998225392817 -1.1066418813855006 0.016574873639545646 -0.6196034659700684
P 2.137150293377336 8.620116472584582 3.9772938089515044 -0.34015720534844 -1.7206141172117209 -0.7484563577804401
Ni 2.231771807833008 8.38997342042625 1.6279587904770247 -0.48006326964917967 0.011791079097657111 0.2528134885254485
Ni 2.537556925457119 3.2609450669576674 6.10063551919934 0.13762446735541461 1.2353189097396402 0.513134855392168
Ni 2.1598796770829094 3.3811635622544327 1.6695389489420525 -1.733303796864247 -0.507422378388423 0.8957731127229541
Ni 6.049150202295374 4.55561002754581 0.9912456106008345 0.2819929383028821 -0.8634818567894161 -0.7380768143183288
Ni 6.775598952277101 0.4913315197152445 12.446136260722637 1.4199477708690513 0.8009816813726657 -1.00104127523485
Ni 5.8310106176337975 6.716702918801439 4.565373644331265 -0.6866794336829594 3.425022056977224 0.33489467139792
Ni 3.962311533020063 4.734752129367617 1.9593078012829717 0.4542697056248435 1.9768399738528275 2.198806652200749
Ni 7.894926891857875 2.4299576957599305 8.625544686905856 0.31362959137155666 -1.7219536619587505 -0.10080601297548446
Ni 7.9296689340766635 7.53164277526002 3.574878020673566 -1.3430260207103322 0.756991906055277 0.31711446459636355
Ni 7.929889518471704 6.521697122569676 6.023151574034979 1.1724194420019423 -0.8533997899630658 0.08789650400266798
Ni 3.5685040507585577 4.012347426628288 13.322264390162006 0.20982464366874834 -0.6146250389188705 -1.472003611024026
Ni 7.641466230940528 5.934961013796366 1.8432041240553478 0.6585633921730335 0.1355542150899472 0.02046983781857765
Ni 4.720938031628241 1.9762891232944628 9.094481375914672 1.4653207996872117 0.9868037914792296 -0.7422402016673991
Ni 5.537100293276002 8.73181489562293 10.00881196527002 0.6634562014889606 0.49543383856797907 0.6895688394156124
Ni -0.07621098938465175 0.20564164047927194 7.690296263189202 -0.367208038818645 -1.235566249863756 -0.3660973222529695
Ni 5.30694805010121 2.970582474953433 11.255124826465408 -0.02508419666213744 0.6423615856021906 1.0265237357766708
Ni 6.014656317521004 9.252596270279298 3.04804436167829 -0.5348866452469627 -1.2151434632330298 0.9860373456268502
Ni 3.499773629670698 0.5236682729264531 10.055167775887663 -2.5798623955357636 -1.0559554107742266 1.3402646559151112
Ni 8.769185568549279 5.7242293884015485 12.64861619153967 -0.31482206901776105 -0.5500155304686011 -0.7557750029290403
Ni 8.351021892668783 4.93197296056624 4.289500689776215 -0.2712197589467781 0.14677682327864397 -0.27448943083698535
Ni 2.795943971197023 2.771615350627411 11.491920336337486 -0.1939586231707692 -1.0363934294818988 -0.6190211111040372
Ni 2.482227006367935 8.25229199385549 12.652086719354966 0.4525138992760013 0.6234521502921972 0.41056789386151876
Ni 5.262849553126143 2.1011950369858265 4.096733825154107 -1.6425261146590422 -1.0987699348365916 0.412487993702367
Ni 8.827870208646363 2.030929716149147 11.28009222267899 0.464534063665329 -0.9742892039519867 -0.35218071217187735
Ni 6.321525975087394 5.2818933392312575 12.204485136854743 -0.13346545088171854 -0.5291001204721727 -0.4333833490941375
P 1.4809576732158276 0.8574299255531496 11.706304471673509 0.3132693798186605 -0.3544080588404993 0.17395389791406818
Ni 0.5921854624324411 6.43936399712102 7.896904798600066 -0.9412500141088305 0.23607072184947084 -0.9360077918732846
P 0.2986216393951888 4.750615823777573 1.2418304024678473 0.9623731692406909 1.324856806000473 -1.6204228550020994
Ni 0.41426025118993703 3.9703812454719407 8.749680393417872 0.7664301686500413 -0.08736171454512051 -0.09317497879278791
P 5.905706008404196 2.634338328780891 13.418203896378042 -0.7697060111878357 0.2509908334944129 -1.445208088097737
P 6.972544052981924 3.065590012100425 4.0887973824409 3.229079570607207 1.7797685160846899 0.12470133153584331
P 8.541478135752845 6.490410902539845 9.88212207528377 1.596228002923451 -1.022942960403948 -0.3730477854288737
Ni 6.843061013093482 1.4679431939084713 1.4199909037317273 -0.1278614744313798 1.2967186530033603 -0.14270239609895424
