# total energy = -340851.5574750145 ev
CRYSTAL
PRIMVEC
9.37664720987523 0.00000000000000 0.00000000000000
0.00000000000000 9.37664720987523 0.00000000000000
0.00000000000000 0.00000000000000 13.72367099767699
PRIMCOORD
 96 1
Ni 7.938447559061998 8.770840648705168 3.100643395881094 -1.7725673703505602 0.8072855121035065 0.8309805417276012
Ni 3.506378415575502 8.855230472264003 11.678528588348396 0.22337718554220237 -0.8814384412678369 0.2814967153927539
Ni 3.4539066986160303 2.286636035797276 3.2759773192951687 -0.23641627811434762 2.2347910407151574 1.5338281005299907
Ni 5.411253642886729 7.50960660567718 7.980465252211942 0.8486733310216737 0.5655709617046969 -0.05651027638190268
Ni 4.5086575966896705 4.8569343985169855 7.237369723199907 -2.4393816896784766 0.12873616372684926 0.19655440892240342
Ni 4.87715982622992 7.068172815287972 10.658351263322103 0.32689185569810153 1.413124834409947 -1.5703300521107666
Ni 4.988244963974533 6.7002519378655725 12.801192665763361 -1.5366002639584893 1.7706290156772668 2.494204293945311
Ni 8.520662328441468 4.2928446879085405 0.5605115820895499 1.0471216145326805 1.7905766624437873 -0.13518371912440588
Ni 2.2863828663265995 1.0053453447034726 10.408183257370172 -1.559469712357495 0.15877256218793945 0.44118124787200147
Ni 5.612542125368677 4.114707147022901 10.84176879416841 1.1948618301658582 -1.0375918206653745 -0.6411619088671345
Ni 9.271234795820815 1.6734126945834649 7.356148399858969 -0.28873154257829625 0.7814528673111186 0.4438922190452614
Ni 6.9841393043174955 6.041758144635978 3.054957558400459 1.1136059714081594 -0.7561210734145494 -0.6897925253906443
Ni 3.8660103369950116 0.023824184855365547 6.688367975379076 -2.519701409775151 0.7158622258945025 2.0896008451973436
Ni 6.329030480677316 5.930119784714699 5.094336099493877 -0.37165399040514063 -0.18661812364529795 2.043726965483364
Ni 6.650761994671846 2.337129280226646 8.861346859142605 1.4955014370356503 0.256735449287674 1.6254987268631103
Ni 2.7467106005459243 0.2232092079837082 4.360792560843997 -1.2695053258133622 -0.6244427963402407 0.5628085684682114
Ni 8.35033553455855 0.08149431494606148 8.724205894541848 -1.278302869500334 -1.8012675664987299 0.08476001525621532
Ni 7.710698178570824 0.39765328759159 0.1812880942985034 -0.9424136953996286 -1.9536334538293776 0.483446841409432
Ni 1.5584643782492684 6.583418915471895 0.3813707399682657 -1.5258401972285078 0.9091371927346859 -1.4595862111962798
Ni 4.447578117727197 4.244358045950459 2.501838524854663 1.7207688976220301 0.05326580130267601 1.0246221478785837
Ni 2.2912774760930117 2.500189172636441 7.5159330294499735 1.1678277088662015 -2.34970855339136 0.4910840462397156
Ni 5.184573200160633 8.319458235783078 5.39666920604635 1.1663320981572816 -1.873396523254496 0.3797465376052879
Ni 7.574061677582006 2.4799356149823204 13.225611592393694 -1.31985215369703 1.4386988262243094 -1.0422992534433726
Ni 1.0694065974316909 6.562171433229193 8.088539548584917 -0.9197831024843062 0.2503683694190656 0.2715398612903582
P 1.4077066467849395 9.071399693633492 13.460505977946184 0.09781813399175411 -1.1164670950060385 0.9284865437955752
P 7.191907049919349 1.9511771105038416 11.33276003961019 -0.35571546479801314 4.39658640579888e-05 -2.9678549751999275
P 4.895678704177553 2.257634066434223 7.744583505723815 -1.9717093374944819 0.22035896754116888 -1.530367909895532
P 8.970544477833622 5.222586127350358 11.968961792114365 -0.36596799576395683 -0.6498751203704163 -0.03937695913572573
P 6.0928421178302585 0.5675759479861306 1.7114518763849633 -0.7044195312751997 0.05408469765954556 -0.43108066910288984
P 1.6105516526791943 -0.033090187482125714 7.7011752558145625 0.2578183979392076 0.8244543105733091 -0.011577934645586513
P 6.413710980295076 0.3907164440950537 4.545183387655347 0.8569859646524273 0.2723975813049631 0.5878143464839296
P 3.604908222903974 6.37340077457514 5.716141885763621 0.3363679135093368 0.0690588024708746 -0.14649220215868966
Ni 0.011202280245082342 1.6832019141162897 9.926838706425873 -1.5644733362196734 -2.0181102933565245 0.27926808317255125
Ni 3.938144882843692 0.24872587763378148 9.085578121656082 1.0883605665778096 -0.0793072196717602 -0.7761952184566052
Ni 6.219670645992127 7.374142185571125 1.4995996633228619 0.21461615152012073 2.4287694613802686 -1.6671657675845934
Ni 4.590046893188636 9.096238431700977 3.1664899622099347 1.443260991673695 0.789187516951215 -1.0026986083326153
Ni 3.0602094184199373 5.195834553282207 0.999984715578074 0.44390558878170006 -0.48605676822845323 -1.3062767290054407
Ni 5.644900934379959 2.2125511473596804 3.605798066710166 2.1284484141921602 -0.0608361574507662 -3.486659627283363
Ni 3.4281021659011506 4.323225024389721 4.57331707950045 1.5304864377512675 0.7427670207051466 2.903339569125361
Ni 2.147120904160396 6.9418881326557065 4.1113784373158575 0.8076791479974993 -1.0476782583670987 -0.6440253464578586
Ni 7.813747529783224 2.1118178279716164 4.6177267553159345 -0.9575811471686863 -0.9162069550972737 -0.02755348413823642
Ni 4.091171762897047 9.139680437539653 0.6628708120781804 2.434611264873026 -2.293919728556514 -1.160366110381834
Ni 9.199634718854673 6.824070562320509 4.002645900319123 -0.42711808491071596 0.35112681698606624 -0.581668895707824
Ni 8.947656082355053 3.5056376604575967 3.027799037849813 -2.145805931634001 3.0947142336190376 0.5308099040744277
Ni 4.9241368280110045 1.7513138783753324 12.095233347440747 1.0513688198448086 0.08567507087131696 -0.7136829588549967
Ni 2.0066118479349346 4.624984280141994 7.002160282306132 0.760563168346303 1.0229756134140962 0.01953781292261151
Ni 6.334412676090958 3.1376323932116374 1.308528913144477 -0.1332926727492801 -1.4827551931135754 1.2990624706451885
Ni 9.410402991516397 6.668633883972196 10.304472852539895 0.30676937391661363 -0.7221012648256789 -0.9859275595218633
Ni 0.6935333856359303 3.4980050697490532 9.234919041749329 4.02774494514187 2.74800328631248 -2.2365105945094252
Ni 8.410580491932496 4.04360403235105 5.731924658098536 -0.2180485742404374 -0.29659654714866984 -0.6806558531966987
Ni 5.857357003512859 9.110837871176654 12.415736520670142 0.353051801922921 -1.365971830873228 0.05435183527800316
Ni 6.666561644971473 5.438914751719903 7.544985632707163 2.218639884876592 -0.1996693004023013 0.398705595206294
Ni 3.8422030301043577 3.7029785745264028 12.27023815054294 -0.6411855630162183 0.807244631563242 1.0846489220541773
Ni 0.08818361496015854 7.618291321773898 12.36075936361568 0.8067013574652623 -1.452800041512382 1.0418094582911477
Ni -0.0055884816490073454 0.4844425951336153 11.971336896815194 -0.9855056414930964 -1.228702175754071 -0.23788463512975805
Ni 3.0800128970150773 5.765906564716267 11.608304065506264 -0.40663744845886096 1.1715031008352599 -0.745530956603529
P 1.811858888455266 8.070752049108128 10.421206482474714 0.4854610436259833 -0.22857338503116117 -0.3112114688483673
P 3.096459535961988 4.99799667691911 9.314557718241803 -1.276389711638021 0.027749402199126402 -0.5568423235824475
P 0.6560568026581576 9.444533986822414 3.6281538686356076 0.03888330732875884 -1.921194873684698 1.2503454650554595
P 7.502367834145245 7.626852200541589 13.212669944118595 -1.3610512536431592 -0.1475080450177137 0.33763675291943146
P 0.5615608288957981 5.5487059121699485 2.1246160135466674 -0.06730351034266474 0.2025653910031737 0.13678217395977732
P 8.408189446931663 3.9227578050147973 7.804418703621148 -0.24640321412373048 -0.9110899455856823 1.142445264237355
P 5.792564372313797 9.194318159970466 10.097616517032478 -0.057065377554424306 -0.36019072696054744 0.44569764768511627
P 2.120266186974562 3.0504295755341744 11.1249566627495 0.12558810501617082 -0.3058854286497635 -0.6376402688671212
Ni 2.7566123398434943 1.2448061573752003 13.095030530077578 -0.18205133021022193 1.572068374958112 0.0016254514185649425
Ni 3.156835766394804 7.270080156476018 8.645610838867386 -0.44323067420186246 0.2135501721494516 0.6279667503330991
Ni 0.14787159949861686 0.1673506461054086 1.549237757540169 -0.7067651486892409 2.566217036838187 -1.2348530258468151
Ni 1.6912845838838138 8.165324911376397 1.984552348056655 2.300960180343063 -1.3167141222886807 1.177803846242307
Ni 4.471572957559093 1.6410257556309962 5.159043403204674 -1.281948179562405 -0.6566137246458305 4.178944837188874
Ni 1.4544304790953482 2.875817653943881 0.7379627524102449 -0.027078858494663044 -0.4109489313500213 0.3867612783602242
Ni 6.353878595391862 0.8453450522300386 7.051729926999886 0.2998327946977804 -1.0706716339384788 -1.416179819186187
Ni 4.1466908901516994 2.8316630229284856 9.804821335871566 -1.6259448132615935 -0.952161775925328 -0.879615272016169
Ni 0.5537566455460182 1.5455621118918286 5.15757502027475 1.6820722523827805 0.9821974030554699 1.0355498505346812
Ni 1.4485231914462298 8.127715180010341 5.897967261938783 -0.0760599163790561 0.34373438117673705 0.9666990503095543
Ni 1.093429567204773 2.0412398055352434 2.9305247635629557 0.8313417817217619 -1.541107150689907 -0.25634309894526175
Ni 2.0081214881119314 4.164272103393123 2.8667785661760234 -0.8205866000877867 0.8627794314057529 -0.6183857915128834
Ni 1.5096776835851993 4.41958882624685 12.772908947565263 -0.6477058806332393 1.3438271764553888 0.02493198735498932
Ni 8.485678058252798 9.00965447272961 5.60554339600153 -0.3289495095580786 0.3152581281139151 -0.19886840176756074
Ni 5.9008646458809695 3.572980739657547 5.9338816955160105 0.47480484946371776 -0.8916426354943483 -0.457439875822709
Ni 8.157110968550002 3.8756120235865947 10.084757383251523 -2.310935289277904 1.058109738113068 1.7844222128066174
Ni 7.3616618683314785 7.8707762972148725 10.925331597456369 0.36330150467538724 0.27772464994483137 -0.8727064607114777
Ni 5.622359474842687 5.1340987090253885 0.5833380916975087 0.19084116058771006 0.440494506217622 -0.46067278093770986
Ni 6.654325120555442 5.681882430392853 11.868422569320488 2.938022465219527 0.46560544235263684 0.986810476347449
Ni 0.32938098266778565 5.832368239092381 6.021507399975975 -0.17441515382120285 0.9619628211761498 -0.5628209097633856
Ni 0.22719334532039143 2.584082033900986 12.084323618584 0.3194253721177273 2.3904515396366763 0.3776767995604528
Ni 8.65705503660667 7.148436914139487 1.634462102687531 -0.016601613112423023 -0.06177743831811296 -1.9034748306971154
Ni 4.543210541113482 6.874113727690899 3.640478533534023 0.1703921487047388 -1.7731664373871399 0.40297208379213173
Ni 2.8584896101731334 0.8895484418101567 1.9746440451061413 -2.2650470113862213 -1.1981677546106397 -2.5055518577476463
P 5.30158437884849 5.573554026884494 9.269063164361235 0.8746008495207132 -0.4299545259182466 -0.525505461142379
P 1.3853527201889098 3.7918129287926705 4.966157334155067 -1.4119009893051748 -0.6178743990941036 0.8246252889335347
P 8.023109305385633 7.133115472840027 8.62153911052958 0.8393227430447093 0.3537169463107457 1.1419089321179108
P 8.508782116613796 2.221590235127538 1.3566929984436231 1.4452867638544722 -0.30502976551768757 0.5614466551236782
P 6.565565779465671 4.028582643757578 3.420405813992585 0.9745720252997279 0.6409521068491736 0.9448690989186566
P 7.501758352086208 7.315941337256714 6.540865815774706 -0.5069495525170624 0.01362530409291847 -1.3083035296274823
P 3.8791470195290034 3.1992932242919605 0.679266817130956 0.16960307714454018 -1.049306280888825 -0.3178824531106396
P 4.169241726336033 6.949323813775945 1.5762321867672282 -1.3024072187477054 0.04088825357392958 -1.1460152409768005
