# total energy = -340887.6704465017 ev
CRYSTAL
PRIMVEC
9.09358326337587 0.00000000000000 0.00000000000000
0.00000000000000 9.09358326337587 0.00000000000000
0.00000000000000 0.00000000000000 13.30937829943184
PRIMCOORD
 96 1
Ni 1.5978153334293286 6.609489145607706 11.039743794640005 -0.9347842038788288 0.23227037426677413 -1.0624955258855895
Ni 4.849544315628924 5.794895047710822 12.098052290325493 -0.606172280165827 0.4580816231717659 -0.6682811336814297
Ni 1.9912310274794176 2.9335535963244 8.531018766496631 0.5972407820041521 0.7700471965773383 0.5250735158112828
Ni 2.0271324943242908 2.991607032073557 13.02580875745008 0.5055938098201164 -0.7701153308111124 -0.3104195690746912
Ni 4.531950919084547 5.7895025528174555 7.188807691012861 0.5990814347573167 0.4437371815246358 0.9897654452107149
Ni 8.050176453299304 4.946154544544814 6.266281852999005 0.8421465856467496 0.12259225561264048 -0.36354113149001904
Ni 4.123139788517647 3.25016488587302 7.174886324348013 0.19150347676205728 0.581128964043954 0.010975525174897227
Ni 2.907018520272389 7.152003231346889 13.060919082548372 0.7680085688807547 -0.20589959758272927 -0.08784791015291968
Ni 2.75446456693156 7.352889579895545 8.517829433286954 0.47661002099325667 -1.4940199673941175 0.47951845288930317
Ni 5.651143682998624 0.6456862443600525 1.5191194636026992 -0.5969605317595719 0.8263911225847058 0.022203789790548857
Ni 2.2742324331732626 1.7073839185392268 6.265762609392915 -0.02967104470187148 -0.898098418422021 0.7809054794480809
Ni 3.3756290545809016 4.844506470484025 0.7524349092904685 0.964422595570552 -0.4123373270571156 1.2391989615203367
Ni 9.265724825797037 1.4012211561954597 7.894737105979275 0.26669847403765684 0.17778201341090671 -1.3219897688653233
Ni 8.08946073312956 5.166210166677308 1.699967192004607 -0.9198957168027705 0.24479756019950744 0.37624160977582305
Ni 5.786965443078419 8.100482156081938 3.953311664351458 -0.2848553474523417 -0.7198250671969926 0.8656205003989738
Ni 1.430693459651446 8.761922124140586 0.7761355154297273 -1.2781380617876954 0.30224423235275044 -0.2616735100192396
Ni 6.577106895497628 1.792054272590041 4.152272901316766 -0.7151058073444523 1.1939799417815373 -0.9642716718149846
Ni 5.633593067241125 0.4934114640263504 5.894297916056312 -2.418432341120319 0.5903335133613575 0.07476382327545188
Ni 4.096350092133402 0.44476352147822 3.8249557361560713 -1.301586779728939 1.475072222647021 0.5139336971443794
Ni 7.2113661430903875 6.302398837767948 13.03415393883902 -0.8513413647721403 -0.1538283308087867 -0.07390944569495658
Ni 5.8787469792651725 4.19464263395869 0.5263775221839072 -0.8165270853064324 1.4091637928796699 2.4216001973253394
Ni 1.0990777576676585 5.584242190704366 0.08436844708545213 -2.421156167809385 -0.7857430100460403 -1.2819224685307922
Ni 3.4120670428401234 0.5315599553031811 12.772757068335158 0.5315056445898718 1.1565997013608662 0.6403733515275681
Ni 6.454543579860544 2.2029023658148064 13.042485479853022 0.2693048013122524 -2.1653414305637675 -1.8715795246504154
P 4.758090148440755 6.7960531004682485 9.412605292520713 0.8775185373881403 -0.8846356080488958 0.33206722925145393
P 2.548613121904357 4.90978021136865 12.068371743812072 0.548187733231243 0.12070635144383729 -1.0900996607561033
P 0.3894108799673935 2.134445870777267 0.8208959511196551 0.2768126796535233 -1.3671059444776712 0.37175991985538553
P 6.268643456580468 4.102606477439703 7.436255914101994 0.7805928333036686 0.4423487858175414 0.6668731975903096
P 4.348133226378806 2.405634711772153 0.41825936360940863 -0.32827510919887337 -0.18986876937211172 0.6391636474901832
P 1.7231521919710935 8.728630515701102 11.764957971698093 -0.09964233168468646 -0.5748418454836616 0.7107493301479695
P 2.728647883959778 4.539935085216715 2.9826716771288324 0.6143697283749548 1.869416969781458 -0.01970827706220477
P 6.821196858276271 0.30992568711084123 11.655927726719204 0.5026074734982828 -0.08276098254831553 1.2030559359408766
Ni 8.512930719966453 3.6088703724897555 12.917284115702337 -0.1947572078126646 0.785528322932073 -0.5747243460691909
Ni 1.8382496757237685 6.482251728157487 1.9925868807485592 -0.026905566141592372 0.6683592952175328 0.6671611611443736
Ni 4.5800286939601405 2.765658767966524 2.757263571869465 0.3092345476276545 1.0197478505054178 -0.1263021003640599
Ni 1.1302141868664544 3.7039528794122463 5.7695885147618355 -0.8405447883772684 0.5549759597976701 1.8395021844998967
Ni 0.9391852826085383 4.039760723294586 1.957570219558196 0.3519966211855292 -1.455741126418577 0.2147660468344237
Ni 7.646839659875416 2.415592185479128 1.9316171328370035 -1.347820356775182 1.4644178282569682 0.02275760541148984
Ni 1.2885607527655876 9.022280507432269 4.873215822301641 0.7847294811798614 -1.039581083181261 0.46476263473636736
Ni 2.7504724838654755 1.430711646818034 1.7980442159058259 -0.13849812820961954 0.8500000202528973 -0.6493953525205203
Ni 1.0046954566588087 8.824022204455591 9.693818899738952 -0.41487783409078227 -0.43915341880869535 0.014754532601355235
Ni 2.4798110707016443 1.3934461424790547 10.63565768995269 0.091005739055611 1.08886527412837 -0.2004750841330483
Ni 6.531493481694718 6.849868926402382 5.96487776279301 0.12252155027570512 0.5028327021352114 0.8340298700768861
Ni 6.046841866455518 2.182323586820392 8.571293337547608 -0.32562867271496176 2.223841483682189 -0.6287563361139301
Ni 0.8833725057830333 4.140881369524321 10.806190566824167 0.8864934871932411 -1.3178004133743242 -0.057260781394682034
Ni 3.163484849914223 4.858737928339199 5.361723116857515 0.44913701238396836 -0.47360748672150693 -0.43641802215540326
Ni 5.599646720804471 4.7189513659432025 9.93800616385884 0.6992300166544603 -0.067885865208696 -1.4564759477020723
Ni 7.720743211306086 -0.0991891691380799 5.183856265059394 2.0826388120572132 -0.18969547701904105 0.2713809671149907
Ni 8.916685818221866 1.0489084586344353 11.74233222710419 0.49282622574180285 1.068712967550211 0.7438204016703255
Ni 6.620683346642671 7.454719525622215 1.984415386800534 1.0988316413124624 -1.5720321224035376 -2.1242778277542382
Ni 7.380979658690838 6.038530331324765 3.8467166809787114 -0.6145268227781093 -1.1562238060786862 0.450539806268766
Ni 8.076629687101669 0.3014450113308187 0.7991586496135799 -0.05608295903649696 -0.5836617577681368 -0.5130214697427552
Ni 3.5611017794461586 8.16862946928748 6.2660290513834305 0.23083852691625406 0.8475525871536694 -0.6103140702483424
Ni 2.6878449757194165 6.855416012211747 4.149119246630392 0.5424600867188464 1.8605194101815117 -0.4183578222195827
Ni 2.2742233395899687 2.7583657141647033 3.8782996051172445 -0.22574722843627573 -1.4027972272316938 0.44452599597451825
Ni 7.454592215456099 2.913729584743391 10.333108717609974 -0.7035139887417948 -0.9826540309769142 3.209685225240995
P 6.421870335085056 4.028475586426682 3.1945567146716307 1.3738962279266274 -0.278949523490868 -0.8369239037952296
P 4.154758177631027 2.608012407981032 9.67360204535964 -0.7239360040415725 -0.09456620271335972 -1.2588594160637416
P 8.797368911820758 6.992192598537415 5.396673394889833 -1.5459449383981827 0.10304981470433866 0.5199999579431175
P 4.93998000148816 6.52445504822513 0.8597819320016326 0.844354906151978 -1.7269094633021291 -1.001043075007063
P 8.898916956465312 7.156277215495088 0.9339819342476882 -0.5640056741001062 0.04971099407188213 0.3672736019492578
P 1.8471250130187524 8.99952836203058 7.617090002128961 -0.06749042954249021 0.5375292250761323 -1.2429172909121886
P 2.2771150990774736 8.683671839895364 2.8086377706891494 -2.254725831965872 0.03391567891083837 1.7799055558831862
P 4.618285398878172 6.676617977484316 5.02075011766416 -0.1384086538196068 -1.1201856815082063 1.0242004869601329
Ni 7.190523650180446 6.140778581882959 8.211886735658902 -1.5427290025640463 -0.43064075335199375 0.2751993124198163
Ni 6.803928143600888 7.4135437804667985 10.551275602492296 -2.268847101858602 0.031915617761674064 0.24306926465449102
Ni -0.026382303852671297 7.664872235547499 3.3694290494910244 0.2086607052676342 0.8672696059666225 -2.0226459764433486
Ni 0.8271077778678143 5.481712039064055 4.226073695256213 -0.09648861654705318 -0.6432532441785245 -0.4039079653428399
Ni 4.018263492387474 8.021313419924018 1.9323882687003382 0.47246000338062505 0.3440825085447751 -0.10344370770864766
Ni 1.5388616329340616 6.810584646572126 6.341426678549311 0.34656825108110634 -0.4701606658234871 1.0884708669034286
Ni 4.741885383010774 5.655226701897648 2.9773082817020073 0.0495281886371147 -0.5045648543349698 0.09459911283382418
Ni 7.705465991372097 0.5416902070927426 9.50981660729234 0.003955127993006092 -0.48631876364058824 1.163097393270068
Ni 5.813282273131372 4.198561968358422 5.355706802150179 -0.9167335170247051 0.09770037746696722 -0.9610626779593835
Ni 4.271692565209098 3.4450130951144335 11.60528556135469 0.06687902121073643 -0.8602463805712538 1.6947889286185005
Ni 3.6189642499461407 8.071100788458892 10.731910541045124 0.47180488629512934 0.322124001995813 0.4075440194335304
Ni 3.7964346215126414 1.0078782108117228 8.042524202957368 -0.45667008753621996 -0.15224890213680875 0.7132641261500232
Ni 8.489751176149944 3.6349234886271824 4.110068671890793 -0.8226298557700606 -1.0380674747502123 -0.42239702528596285
Ni 8.70785167787422 8.10636570447318 7.754336726710932 0.030770705523953463 0.03871438585106235 -2.4992110031312826
Ni 7.498987089097605 2.259218927154801 6.383750033916437 -0.021020825226041217 0.9548169541599877 -0.23349704758502368
Ni 5.337769709102683 0.7207565025273478 10.18686480171688 -1.1852523321005521 -0.774521173188292 0.7681566644228448
Ni 0.22951113004163803 1.2529229998362414 3.068663328832271 0.7283233344759908 -0.5616042637474651 -0.09083810312949517
Ni 5.334941604698236 8.314536013240364 7.941346267152881 -0.2706710855321596 -1.7282639204474943 0.7137359235801192
Ni 5.204748772677453 8.164637386221395 12.766288802538106 1.4788193483942789 0.5636374921274099 -0.48267062536503963
Ni 8.27732507040115 3.7525126142024243 8.480136530533155 0.5688164652251881 0.019954074524423698 -1.7845949909390557
Ni 8.71467186534475 7.763110215873022 11.97669660254986 0.6514545490423942 0.4369522973923185 0.12014379407214792
Ni 3.2599859558305844 5.095934954980961 10.058110574573215 -0.44445374797568615 0.10625032391950734 -1.712675321980618
Ni 0.7596433927676548 5.560480657557037 8.633407967595883 0.02644868110983187 -0.09211748406255103 0.09641199767284686
Ni 8.019776604347324 5.212305540394801 10.491902687807174 0.028393463541028518 1.3058123877745125 0.19040433016060757
P 6.876795026536038 0.5571847636674588 7.556918670830623 2.1128050512279484 -0.8659601431265797 -0.5375960737583257
P 2.4987984726196015 4.974953922837041 7.606628743907497 0.34062566034442626 -0.3814763758122011 -0.8940988103443246
P 7.28563343785282 0.14110876940694939 2.9264133147219193 1.2560723402369078 1.7352740332167405 -0.2306294962292415
P 0.25614259807656603 1.7547523939178855 5.293618543493456 -0.5150721816241969 0.8794208966171758 -0.42147965567801604
P 8.62071696275072 7.075799003342827 9.54219885740242 0.8908044558637691 0.3085681176882492 1.8245543049408126
P 0.3399745237476698 2.131463175456821 9.922740765583136 0.945273790556243 0.6680294226819398 -0.3424352027493393
P 4.036841683057199 2.2643749888825226 5.132708496463732 1.2941699184395774 0.10024294138316284 0.015686043276689113
P 6.61078043443546 4.488283532106563 11.896308416872207 0.3814938593136978 -1.2617079412561303 -0.485588570342783
