# total energy = -340871.92188026675 ev
CRYSTAL
PRIMVEC
9.22104862000135 0.00000000000000 0.00000000000000

0.00000000000000 9.22104862000135 0.00000000000000

0.00000000000000 0.00000000000000 13.49593673325113

PRIMCOORD
 96 1
Ni 4.531370683641735 5.329212668907615 12.13793424260608 -0.2078842321129258 -1.2549099444976906 0.6869095474158944
Ni 2.34423945250091 3.995701544350146 13.3650796526307 -1.1965538731563006 -0.7623331157625323 1.123701922191581
Ni 2.4032172775871357 1.933312654948917 1.8510618259954117 1.3586531857246278 0.9356174984134016 1.4380136272318267
Ni 1.5207813949883868 4.106409450539205 6.764271510248162 -0.33179932030204795 0.08191920337331053 -0.28226727501019133
Ni 8.455314029927308 3.597094067360253 10.155408852747035 0.5933519884727071 -0.46477163359743184 0.5513031389317732
Ni 7.500741886282665 0.4132726322458543 8.669046864841098 0.484292734349495 0.9089109356564928 0.6058611766833113
Ni 5.612750683850758 8.29103183297043 4.0560551498464505 0.13880408948581258 3.065642255953746 0.5880112929860841
Ni 2.182133422948715 8.42730970616451 0.38520468324961266 0.4700701629922099 0.745827147687709 1.4342356482466332
Ni 5.639021450528472 6.457103636867563 5.734746997399191 -0.47775956121666746 -0.28334045346971204 0.8576575367981553
Ni 3.6207644984103378 4.864545601717954 6.137061335815703 1.2295763508289081 0.43515895293732154 0.5768416495225097
Ni 1.9644521351421917 7.003450750119417 2.3372941589025764 -0.5676229591377192 -0.32732097281572015 0.4995684295616428
Ni 6.940268126997025 6.94527515623746 2.2433353648909122 0.06236442116983453 -0.16133980869448344 0.7796392111411475
Ni 0.30204650314093434 6.472788640068262 9.8143527046675 -1.0671119416116783 -1.5808756888370967 -0.9992687567154597
Ni 5.832746454786838 1.3844850796976587 12.355786119806615 0.7235004591660507 -0.6805254982664215 -0.7741290799561958
Ni 2.9306335786279165 1.5469599511828513 9.027849842526782 0.03822381936788901 -0.5765755403453168 -1.638078877520966
Ni 4.6383809494524995 1.8564644382089857 2.8085044819836043 0.49736602259368545 0.3120920716811077 -0.11925007861328496
Ni 2.7840926786481957 2.929794463230348 4.767763322709198 -0.38378034135502936 0.1672487179797507 -1.0868914382314507
Ni 2.349974944559014 5.125694911328177 4.200043663649831 0.6938769798726631 0.5132040180672065 -1.0170949862636032
Ni 4.279719053806185 3.75779849756706 8.212898202094005 -0.19048249169671067 -1.689301166031052 0.9725632223998154
Ni 4.596886231990333 0.6730175761961916 0.7458933653177451 -1.0889799453293632 -2.4336902957206537 0.1603638179344593
Ni 5.08745522392471 8.2419297506402 8.462275921412628 -0.10215944167958536 0.08381847727855242 0.04799761092520121
Ni 2.607887666207189 6.282558413125043 8.915078265722606 -0.7010223326681927 -1.2633863573998176 -1.571168488851662
Ni 6.276915131550188 3.423387959015301 11.220467597420939 -0.25011203043388536 0.3155720598099081 1.4967522787236158
Ni 8.53027193176063 5.155525002659313 0.20915827283979435 0.05235948743832273 -0.8172228258218763 0.7535610259968569
P 9.017041851785137 1.1337186705013018 10.36083075680557 -0.6402604800987877 0.7155169267399419 0.3396666388652666
P 3.0263388391923214 8.377276297953461 9.184848333411802 1.4982111226573294 0.8488101137098544 1.2397620331126584
P 8.3290133310208 5.785580792604842 11.663417251595734 -0.6348192544785582 -0.7601777599824262 -0.8561683538471384
P 0.4714537587568061 3.599131919040062 1.4120394163022019 0.7364032832706479 -1.2950070696288922 -2.086087689837762
P 6.433562300494027 5.299078282981757 4.092656256962578 2.2974053731122694 0.3551958448491173 -0.7592174529516861
P 3.469152021851908 2.5009696108796744 6.756821825306454 -0.37898523395923117 -1.0952963744656943 -0.17904545350436263
P 1.5056588757355087 0.55237214622736 3.797310689639367 -0.817877685797056 -0.3657193700882605 -0.8665245002704819
P 6.798227098599868 1.204130595510435 3.4121373579540593 -0.3930653662013811 -0.014758132145781033 0.7622192158924873
Ni 8.155989580251891 1.95595032858661 6.887016572920579 -1.8335534231156292 0.6289460835272329 0.29494204226438236
Ni 3.571588647693509 3.066422736260774 11.449817199777824 1.0383688080407147 -0.32643111401159913 -0.39999397500041434
Ni 6.213686403186172 5.9633533832610865 0.3744621619510741 -0.8229191048757054 -1.5059100339634839 -0.6901702204450371
Ni 3.648575180158314 8.720566706042124 2.8153603314131868 -1.1930569157466355 0.5708553500320878 -0.6205077229518927
Ni 3.568545701746283 5.541324443525883 1.0832472624948204 1.5358572151448775 0.8684204317416141 0.7630280849470278
Ni 0.9925997469366373 8.850998434598198 9.455549726981817 -0.7236701519746956 0.1474370825704622 -0.7550733488763254
Ni 0.7593007695821872 1.3018183814646989 0.6208808468622287 -1.8020345265717417 -0.5983710389538534 -1.243794551310819
Ni 7.048062181915408 1.9998886238548814 1.4150085938628283 0.07970291244828209 -0.34737197792932434 -0.8924882713240953
Ni 8.959982004750497 2.8453942079123027 12.484308169254598 -1.012363899336521 -0.5117837406809121 0.654793126497324
Ni 5.8480626160545395 4.0752515282492805 2.1886895883077373 -0.8965421296784947 0.9515236281206968 -1.6179090874413102
Ni 4.443586303588441 6.892908822800207 10.46615264866804 0.08949187351424587 0.7665607806906346 -1.5147150338496236
Ni 2.229686369160357 8.540617947981197 7.1953721173254275 -0.013077144898932316 -0.18492453799295894 -0.4627962550386159
Ni 0.6065144535719943 8.041694686264437 5.147161511828605 1.6464514178553775 -0.1542546197129279 0.05517921627530497
Ni 4.901522005500906 5.79214617901219 7.964262777165537 0.7812304668876675 1.7794005912223096 0.8226979900038349
Ni 6.9604253386353125 8.419268952025174 6.399503436401082 0.06463239126840482 -0.0291010311310144 0.9977898581770879
Ni 8.378345939559152 0.5710272490935173 4.824203515296404 -0.5865331657786609 0.6408135243887803 -1.6963434175898138
Ni 7.2613634717675914 7.32356866376754 9.196157949182325 0.3516335814191557 0.9632483727567926 0.46132249870656683
Ni 1.1903174651196964 9.192370864635278 11.976658107403129 -0.45566915707553135 2.024347789625804 -0.5313745183286461
Ni 1.4584932135535131 2.4048955083822725 10.709038749965915 -0.34085474563609686 0.27616064789182115 0.43250634580582287
Ni 4.934321274392667 3.904938765687901 4.256456193092062 -1.124761988024979 0.7420723086309671 1.1051994925120192
Ni 6.4369925304709 6.9620021378988755 11.765744146962268 0.07661964553726804 0.037816042406509064 -1.4332743127746286
Ni 9.275729141492606 2.0931318645165313 2.968134660060557 0.9276136542723187 -1.5562604613915778 0.7675678817989103
Ni 7.549770200226295 3.071125470906486 4.863247278113804 0.2712925211662425 -1.3138324298655113 -1.1841470148515154
Ni 8.62641980264463 7.844272041627775 11.340837318044855 -0.9525528407161594 1.9547678245441367 -1.166668655561094
P 1.7835997143454219 6.260142044647148 6.412377864072343 0.18637618283782095 0.623591761193855 -0.2958444994739937
P 6.861972205670081 3.072407196623651 8.68964207627482 -0.9844147224217625 -0.9730316773958018 0.1859069565108863
P 6.314481682425936 8.96646440172292 10.4719692859514 -1.0868487579189734 0.06319154505682019 0.4126247763905475
P 4.699995994359654 8.538497106866464 6.132998541923742 -0.08152813858247895 -0.11486583350266023 -0.004279086991328115
P 7.045867572414076 5.995488736673453 7.607766905770749 -0.29916765030995573 0.02804199373888074 -0.6486325062125669
P 0.993632504349029 4.589869014215064 9.054936671981253 0.5708304103314233 -0.8917606491294513 0.3012862393148553
P 8.028554692401418 0.6528668192917312 13.300353426018713 0.9713059529539466 0.5152459881978997 0.024855368480783003
P 3.7093879938612 4.772593307821794 10.066254224912656 0.8121649516829949 0.35321275298081745 0.4406899100578797
Ni 4.333800502231875 2.844564313563059 0.43825798478707323 0.1283229874488306 1.4038688630293177 0.1340899718395949
Ni 7.994233950536044 5.159259527230907 5.87467271731061 0.5328225636290823 1.6807645893149505 -2.2228950606085203
Ni 3.2012713469644885 7.207660086323224 5.0923405353272555 -0.07517879932568343 1.1239664887068772 0.018963171366064114
Ni 6.674093346049717 5.2262596643598185 9.866811248588004 -0.2108371440936627 -0.32029774742035155 -0.0876807884474361
Ni 0.07616217074455711 7.183473276566943 7.496277054683736 -0.785790575454524 -0.454786754470578 -0.10310175098819664
Ni 1.9897178075524884 7.1360678671285 11.075831766025148 0.9714507060619268 0.7131034322024428 0.6449152052619798
Ni 7.591145044060237 7.26523631206406 4.387691074957239 1.2859701562376047 -0.2907321179480929 0.791534934137469
Ni 0.3223945904795481 6.027163037669573 4.024568958236158 -0.9325717696085423 -0.9401056160917421 -0.32562738716338113
Ni 1.2174273471949781 1.6889456532900586 6.074223579900664 -0.21194683221807367 -0.6998002873356335 0.18208372611005416
Ni 8.517574548217208 4.146318147689484 7.745331115206154 -0.6947077033040746 1.0468490775975843 1.2211048230227872
Ni 5.32544126014272 1.0306181291803065 7.341830027870223 -0.09600370649083467 1.677378189341221 -0.053243432705172816
Ni 6.571859583271264 8.403842138177572 13.555048923906321 -0.28169906121154714 0.47653854432537285 1.085748325765943
Ni 8.061861118951049 3.960495581845579 2.800839024511094 0.023067937563057046 2.7805537094446757 -0.3550284660333176
Ni 5.165585166381806 1.8437117283756133 5.047790884555042 1.7658457353560102 -0.8328713309924107 1.1074247822981123
Ni 8.602684824256272 8.84834277268062 2.172441179054385 -0.13809163679982023 0.39285993505879435 0.5664572209643922
Ni 3.1939590556428223 0.715972907713026 5.051083720911873 0.5367015869685143 -2.298487550432854 0.4542280537536307
Ni 3.503924595085203 0.3557674085771196 11.061445086428597 0.7290357871619831 -0.24835288165093355 0.23784298325854522
Ni 4.643148231436486 6.421943779604621 3.330783737002569 -1.167428416545254 -2.2859392814541986 -0.809248035146516
Ni 9.04767417432054 7.667375450562399 0.029593110389184357 0.023383411920946826 0.1819464292012415 1.3100529082184211
Ni 6.234295446192381 3.733086088056259 6.626274833646317 -1.194663083891491 0.08489242706902154 0.9855812319260381
Ni 4.25546769671163 7.7736111483138695 12.828616581078332 1.0392391264608103 0.0703088728278918 0.081522225045208
Ni 0.7533928439204073 2.4873593435520838 8.312309401980198 0.5266166919286867 -1.2859254190425984 1.3942020293635151
Ni 1.028783140563646 4.7014068147533665 11.703230971948267 -0.16921921144256016 1.2490455152971134 -1.2869641447197577
Ni 5.129945814605968 2.0739889681939854 9.67102626213385 1.2007560841631062 -0.9485478333218245 0.5351488977694139
P 6.256379856930579 3.734478466353323 13.532645464896083 0.7759427361261669 0.2987984398959951 -1.0770569686395322
P 8.989037528022338 6.489036127216782 2.0027831109240757 1.1763018077754837 0.8969149396368812 -0.43575724864295273
P 3.369868994537432 4.017011387029049 2.618022520421115 0.7478359505876219 -1.2548783199288067 -0.26848719050696346
P 8.99624838781243 9.268813355248911 6.83308727179225 0.785606484468176 -0.4902682352066395 0.998769191371222
P 2.555290806561812 6.551222877120081 12.999636598046235 -1.056479915819129 -1.8412438497813517 -0.049174919062754015
P 5.03028472431017 7.574777683283495 1.522760231958916 -1.0562803982138131 1.1144132978008032 -0.8324203594979213
P 2.7479646113111365 1.5135428720533202 12.856714959534047 -0.19375576313134374 -0.305300502680571 0.6316285154554026
P 0.5730291386848587 3.7226017561108184 4.573516407115641 -0.6224525053830893 0.2195966354538476 0.2835728811954923
