# total energy = -381177.9525832151 ev
CRYSTAL
PRIMVEC
9.12109352172207 0.00000000000000 0.00000000000000
0.00000000000000 9.12109352172207 0.00000000000000
0.00000000000000 0.00000000000000 13.34964234331275
PRIMCOORD
 96 1
Ni 2.6301403168359845 6.447719328931367 10.801182658170061 1.1722546342893037 -0.2750697288204876 0.06514172680465555
Ni 2.909409961586205 6.396057454613474 1.7904943943283262 1.437174419159983 0.6906502454052493 0.026996326083185765
Ni 7.957114387127381 2.9380775588639483 4.985330738864714 1.4656221329777146 -1.210339099865851 0.45764504985497956
Ni 3.8586695388966024 7.140502874471842 12.909652058065694 -0.6184636959386703 1.5043591445365962 -0.3153110928390376
Ni 0.5904238965013349 5.688579827235759 10.162094990826875 -1.1361339773073464 0.09693187473205887 -1.90557979285526
Ni 0.527982713732014 1.258346077135687 6.236325214534966 -0.7068543659689375 2.4785395908248606 0.18825668768998546
Ni 2.168448799494333 0.33907939200741016 4.688754731061743 0.11240605910825802 0.5005225659447959 0.7623739963027967
Ni 3.641359483172061 8.338348737562582 6.055010642710164 1.4961596394449395 0.8914318050351229 2.194802673247678
Ni 1.9640815756301537 4.057983676889999 2.305309897296691 0.40560437920865633 -1.0232260388620054 0.18255089555445977
Ni 0.9058459079617253 1.3948614854894839 0.6780520672193543 1.0041769926503545 0.13604426735248829 0.6712906099317149
Ni 9.011622263829404 8.395556236807254 1.0148046682418608 0.31767470797520775 -1.5332976819478175 0.27331032292721963
Ni 4.604218611084149 8.371056979318224 2.5396891676396125 -0.9451778884083271 1.1265378489784792 0.023281082015127647
Ni 6.970987349366256 6.909830416579978 6.428894303789295 0.5227186424258611 0.48150334452981597 0.32531474101896873
Ni 3.494683176514921 2.87609972765101 4.25336935985714 1.2805119613365108 0.4146847442433697 0.26613540244533523
Ni 6.711209481702429 1.021206763860457 3.901459325441011 -0.4911074432784832 1.206718215283812 -1.677542482833227
Ni 1.3549475797664787 6.4305807940014015 13.061089575597473 -0.5419234974890861 1.128192868083399 -0.02009368542608152
Ni 3.9541126626364385 0.6148556578975051 8.678175147138253 0.43908991256061153 -1.491028488865961 -0.05586338682652314
Ni 0.5686463733513698 6.719801551901486 4.327594083486503 -1.8687826786315687 1.1063500611766945 2.6497146404422107
Ni 7.448412753218917 3.2068123404720144 12.618562388080912 -0.7461415936043343 1.854741112936838 0.8572716142136462
Ni 5.412985983218256 -0.009863550651018642 11.692297999920028 2.097897537988497 -0.9183977921010055 1.5905885452494863
Ni 4.866386205278923 3.314103764836664 13.203156993643589 0.6970885448314252 -0.17525050523830465 0.24006467350021235
Ni 5.274482176453212 5.62105637109604 0.40640583252472934 1.029863598783181 0.3295192660186196 0.15336604646038748
Ni 3.4416075326844444 8.810702813357201 10.99766287237275 -1.7152099154770135 -0.404078172372117 -0.9745645691005603
Ni 8.525358520249686 3.419406790790067 10.144313418796024 -1.5493220824005318 0.9716219415324686 1.0782774713101946
P 0.4229131877755279 8.345946608556014 5.801594737852965 0.618837020117689 -1.2133989697380974 0.5572375021383371
Ni 5.447217447610038 6.310191479184687 2.9707757674165993 -1.5690285596905238 -0.3569845613184239 -0.9037838988425724
P 4.477517499475771 5.087873721885808 4.780186397823294 0.015168737320638392 -1.376486614361623 -3.1651385489788715
Ni 2.048205422175692 5.107037139601538 4.504609883883687 1.3408616660691617 -1.5935954503966103 -0.3599793822806897
P 7.494446912767365 6.063046326197817 2.3745809549758348 0.8528032940296474 -0.7395989073898102 -1.136294414144611
P 8.5261338132082 0.07716627632490097 10.35828150581469 0.30604560837671163 0.5605336563911056 -0.0941360571544766
P 4.293207560503019 0.4199260296118432 4.377294010564676 0.1447957882928732 1.8497197484628465 -0.7737881516770093
Ni 4.3696423251188286 4.560446482755835 11.252961370955095 -0.2683653202171185 0.6832161577247072 -0.2987956116825176
Ni 2.477653873536808 2.7118744368505747 8.41359867211591 0.3655936431436736 0.2751103522504359 -0.5582188922149999
Ni 7.127550921517851 5.5181430716735855 10.986595337362628 -0.02859452380824107 -3.534326851452339 0.2068298227064825
Ni 5.543983129926162 7.5232969319177 8.175948577597422 -1.1266388933327178 0.42323854735065175 -0.4465592243544632
Ni 5.6383408435240785 2.0611300118487947 5.66323869280472 -0.40554858627005635 0.2880944232149297 -0.09304745207598815
Ni 1.946751497733968 3.6189854404987214 6.286867018555147 0.300187864044354 -0.4843462132952497 1.032558886227157
Ni 1.183370687500609 2.7229748077977636 4.356202393655654 -0.30227559981131813 -0.2930072871355147 -0.6916488618730926
Ni 8.731285451124522 7.196889475289853 11.463858385748683 -0.13369942126939555 0.9350441424084348 1.4551068352686878
Ni 7.584280563925015 1.157101937847443 1.595402410576058 0.5373829293062551 0.8781636271713069 -0.07154223101436065
Ni 1.2735600613098124 8.061395850594272 9.78025499977467 0.07925168384347642 0.522198508256333 -0.9242187696581567
Ni 2.1019469058411273 1.4950202146358087 10.262657784420988 -1.0051144168629593 -0.8818305344999329 0.13795228300847853
Ni 6.938580103700388 5.718925705741343 4.494223694567694 1.6092483264425188 0.4148863187312145 0.01330288775649322
Ni 0.25024814903965015 4.091795570974821 8.052637776491158 0.4340479792613299 0.03407303042430906 0.7020572016906103
Ni 2.9054970124191195 1.2139719566278213 2.5001747658175826 -0.45620471786402716 -0.20963566758639382 -0.3031497748861553
Ni 5.859728028101039 8.169480810104695 4.7565043903234745 -1.4011090408959934 -1.9553684342426128 -0.5270818044905632
Ni 6.268380385986731 8.386353053335016 0.9229479585171718 -0.1508679626288821 -0.8641752833120149 -0.8486563617408093
Ni 1.4196343757874001 8.16298659144044 2.862350591113794 1.5875353602454596 0.8246034345566636 -1.2455102484503453
Ni 0.07721553023050066 0.5253996200161194 3.834911826319657 -1.6215597968200202 1.6774370676036143 -0.4596826491102986
Ni 4.263335978866173 3.9989337167321533 6.662566689375924 -1.452476596734692 -2.6500537689491845 -0.030429005913818565
Ni 3.1376288452917143 7.074666820653595 4.212012497121936 1.0222359070345943 -0.14424480088540964 -0.6192237140331465
Ni 0.7247329123061383 6.062526423860932 2.268785389966435 -1.1426699786536514 0.21990465361256967 -2.9846481354978662
Ni 7.513437029704133 2.3330845395080995 7.232796484581388 0.2846638002668259 -0.3833815632547139 0.45243959439464015
Ni 2.9540029883411805 4.936791927005586 13.271707484925996 0.6172326517450467 -2.1218591910104165 -0.09457083069905002
Ni 6.182341109778984 3.5451410664737106 3.8766162027221474 -1.680521105845577 0.4848624908100359 -1.3506709388500997
Ni 0.21214113196466328 5.054043585613727 5.9944967470247725 -1.6777350584600073 0.4604578367134264 -0.6029476025809422
P 6.360986849607771 6.921441568770423 12.273781400445657 -0.5749529171402291 1.9666563484516066 1.7024806408358035
Ni 2.5386010211696046 5.169963564551952 8.175307364715264 0.14950322107087152 -0.03148830041626835 1.2057998172346007
P 2.133587979642111 8.490944633985313 0.834007262425857 0.19310321714900935 -0.7714145092385102 -0.4712821810224399
Ni 0.04952571418984744 1.839970854612574 11.938304840421928 1.607022522435794 0.5692568951967164 -1.3229775866998892
P 3.06194201035353 2.7499458816604063 0.9108232887553824 -0.0029976491757432245 0.2696357022891098 2.3286982696882794
P 5.986492987364824 1.466790429852285 13.29500275805592 1.4270923523336327 -0.8223668319166613 -0.06305450525832365
P 7.664518824584356 5.42649432288365 7.711568161853774 0.7544876515761846 -0.5227854911080545 1.2208669959803684
Ni 2.699506233888876 2.564057993489739 12.293232132610719 -0.6426423500674029 -0.6188653022524632 -1.066537814275763
Ni 1.9175913614002278 0.31488842748306056 7.699739927634946 -0.37211396076069464 -1.3462386141103588 0.8709653096506549
Ni 7.572304567989387 7.078278773730905 9.510111921310198 -0.7028676134070476 0.5578273132035361 -1.8506931681197094
Ni 6.491126613514497 0.16167959356842182 9.384157827270082 -1.2571835710232155 0.6320386064096276 0.5729369151514649
Ni 4.38088863356409 4.229560569155869 2.302145789916593 -0.2826789086263131 0.07228373716607552 -0.36885688727597765
Ni 4.504059881937824 6.156537535900926 6.478088010171025 0.19231980201576557 2.4803671309519024 1.2467911720452978
Ni 6.963343872904675 1.6630398803861457 11.11798286687788 -0.7528105209840776 0.5924981251128442 -1.7943533558774003
Ni 5.009313742454309 4.8449698774366885 8.681552688109283 0.40348913263786634 1.3400749085018082 0.30887870695013253
Ni 0.15944127719172496 6.979369634411832 7.918554051699004 -0.5741903279425917 -1.6796752129055137 -0.3228652510372117
Ni 4.488079725898815 1.9640268490683763 10.586493092645297 -0.23225494764780644 0.5090360027324459 0.8983280179343239
Ni 5.2402324698741705 1.9441155016750218 2.0120183953097297 0.20869515804999542 -0.15069724137897272 0.24216089390760873
Ni 1.9023591350388434 3.934967487107968 10.542653468224122 1.112780904403703 -0.855359741902914 0.04759523328045996
Ni 5.111378780169214 6.928419205397045 10.497517736398189 -0.39675541345845866 0.11496996318069232 -0.14783328956761638
Ni 8.291229167872215 -0.15609657215776107 8.012389126631946 0.37955936129514634 0.5552446400780244 -0.43257165182611956
Ni 0.16436940407978246 3.820424793307809 0.7205125822837356 0.40683619473322835 0.10607960266959797 -0.11528209510447242
Ni 3.9326963347942048 0.5628061371003552 0.285503912246033 -0.677163266662408 0.10556152538259886 -0.26393042437421643
Ni 8.136708720693644 5.872762070897697 0.10211429162050499 -1.0752659381773804 0.6060640367227368 0.35132710592233046
Ni 8.75110558758158 4.409902832399757 3.2952787396945915 -0.6076794608389728 -0.5581762119025225 0.6560732787613281
Ni 7.855687825966545 0.013623265445128024 12.569502761775535 -0.9301497904306109 -0.057549002059062174 -0.20982232967590314
Ni 3.4581440754348574 1.7007920869189421 6.420564008977407 -0.28265088360185514 -0.514374898446856 0.18976618235597642
Ni 6.855641999326694 4.106106566879618 1.4431230161022728 -0.17385336778046187 -0.3831475928670369 1.0364708196870536
Ni 1.2516329522243224 8.830805703716777 11.971705373184056 0.5802239357311814 0.31759114712246594 1.7580079844791467
Ni 5.314368718895328 2.483628189864177 8.471963638142174 0.3364638156572528 0.30427283274700506 -1.138975817631516
Ni 7.552183435442553 0.02655241566504565 5.78839195482416 0.3952317777250806 0.8210583975178827 0.4268689450143874
Ni 6.50301139851383 4.329573360804121 6.247699218291042 0.10794570934405925 0.17773161978894553 1.1963533271097204
P 6.011165545632815 3.6494134088469723 10.21973847834704 0.8837868868953555 -0.6697317500850272 0.36942870061904765
Ni 0.09329328197134637 1.8086398979949958 8.788643448414083 1.3603002344097475 -0.9174027751775876 0.23276891116974752
P 3.330959545864112 7.389755000087143 8.519033953926941 -0.3589517123471237 0.07105037897960666 0.44902311251392346
Ni 1.965586556079033 6.885021041907544 6.752769744825572 0.9576436249755057 0.2352816502892722 -2.019904923363102
P 0.1319329709143002 4.507854256887725 11.919815471525423 0.1462086094799998 0.033468306960774616 0.553596305841324
P 9.189319409920715 2.426247389840543 2.528208447088071 -0.324705389569744 -0.33208856940769255 -0.3937186835146639
P 5.951185233924753 0.6861014323474511 7.241714177823019 0.16975117268663026 -1.054656746567461 1.4394490741267725
Ni 7.669590152642398 8.06354842869085 3.1173818416527914 -0.40318548535451854 -0.7689398224457724 -0.3531662160135982
