# total energy = -340864.2416776508 ev
CRYSTAL
PRIMVEC
9.28112448269267 0.00000000000000 0.00000000000000

0.00000000000000 9.28112448269267 0.00000000000000

0.00000000000000 0.00000000000000 13.58386383085779

PRIMCOORD
 96 1
Ni 4.386769770973172 2.7330776186581476 3.9829656900420956 0.6237164596971774 -1.3718730268490116 -0.6214070948377104
Ni 6.33389394681294 2.17837266705126 0.9821851804381293 -0.7837725165832309 0.7633294182375305 0.9029994552680642
Ni 2.0184867400123947 3.228364812971089 3.696182663912757 -1.4492642604449815 -1.0667681851190143 -0.9801911712587184
Ni 4.751313768316444 4.911487410206311 6.103800027455145 0.31738674442114373 -0.15944310589240282 -1.161074192192452
Ni 4.575816990329685 0.6053520465073979 10.593959666079536 -0.08231541037046468 -0.09565377935058365 -1.056991565348225
Ni 7.462617869540727 6.641303343421827 10.660574935210636 0.6923152918124981 -0.9825720127860691 -1.0596297743020202
Ni 2.996856450281274 0.4950263947221948 3.86799112313216 -0.33037595759196003 1.030155418991987 -1.0839794067909783
Ni 2.4354783703559932 1.0854831649595125 1.1727563603925282 0.9162228959368737 -0.3523558042971609 -0.20580575231734236
Ni 5.731753169287689 0.6792418608067256 3.8630609899433836 -0.8966105210225849 0.40465127126676764 -0.540243795793818
Ni 7.45416276537097 0.3207714311568554 2.2106514889963735 2.0379016170508386 1.3218056778789753 -0.30931193783280925
Ni 4.26037942126543 2.639496043088816 13.666724575179261 -0.6819388336741804 -0.5793160792049312 -3.1823883371982546
Ni 8.735431245874969 3.872428428624543 6.238321570097162 0.17962600859818095 0.7179170515410023 0.7961315523692161
Ni 8.1990379523657 6.067794834133349 4.973242154580329 0.7964639960079704 0.797941094774129 -0.6321797599731822
Ni 6.506021676705713 1.965974139142487 10.197935951586997 0.20419444196616446 0.14415018428907433 -0.2021637846893809
Ni 5.712828956991164 8.51426205557276 1.5526903179271188 -0.5104351970728177 -1.1706114422589258 -1.7298451488916853
Ni 0.6879893203895973 0.749826666769225 2.577239189894179 -0.3326840368998464 -0.16081196121547142 0.11010826421301681
Ni 8.600845663475795 7.614856150217485 2.990840425558072 -1.5786365150939328 1.2262161761074237 1.0123153054867728
Ni 6.259301551409715 0.38023930652162147 6.306077489395619 -2.170340426440256 1.8034997982633585 -0.48374071850076694
Ni 2.1028057536043194 5.222906252480769 1.059741038806671 -1.975670893245391 0.6454124566133723 2.405736747930521
Ni 2.057588116375937 5.993536559202256 3.4819381203954607 1.336320069445066 -0.6934812870961411 -0.6312474779669
Ni 5.989341491052168 0.8873079599268676 12.535732345690676 1.5824247784917715 1.095815480193958 -0.13503228114820617
Ni 3.3002749634730413 9.14807002895664 8.573047768306925 -0.4782856089234666 -0.8208257126817865 0.5844089203468064
Ni 6.123101053395241 7.846596541012947 7.805315028568751 -0.8726193003143101 -0.7288133867385319 2.7605713527854783
Ni 9.123159491534436 4.533634280723158 12.977927796982014 1.8544235816964192 -0.8382670480866853 0.06662396777713687
P 7.7417940862545525 2.3155848076063523 11.976090764108053 -0.7914151207301531 0.6968977689768578 -0.065916400187151
P 6.727144461386793 8.736164454688812 10.340648086358334 -0.6142928523904324 0.5790373716222479 0.0319662684939514
P 2.7922076611010924 4.1658790143977384 8.608393073696263 -0.33449769306981747 -1.913123152420157 -1.0857339275882398
P 4.029214460171971 7.373769667326584 7.495195543685913 -0.2640816052401 -0.3893274964255037 1.5426696100810204
P 5.4131228934897395 4.476861643833581 0.430540215488507 0.3207271216482864 -0.7211108758879516 -0.484198631973792
P 1.073686856068446 0.3637783045946387 9.327876032921464 2.7861252899951823 -1.902064323502834 -1.0877427304881524
P 0.34662585891282954 0.4156950572892462 0.3524933856484173 2.2341721761842366 -1.5708414445295462 1.9527870466686819
P 1.054409961051338 3.0880899014214633 1.5266493395742047 0.33996668660418866 0.5889368901241471 0.5382889860602923
Ni 6.997893417303538 4.952899786502092 12.383348351363571 0.6946958762295325 0.09991692550231179 1.2720031525345512
Ni 7.037328914139212 2.8641456549757223 5.145322550739549 -1.8392569012583098 -0.4367021290547253 -0.8465585986715162
Ni 2.927210894090431 5.667453540650942 10.0064032471628 0.43381683708713026 0.5009267433617502 2.192355497258766
Ni 7.902719499206714 8.227911529832346 6.56211957586407 3.1206875177543485 -1.6476570081277044 -1.2822289440276176
Ni 3.3972163060121336 3.6436672787055815 1.7926899811711723 0.26571914084352305 -0.7277695188550499 1.6563977304348119
Ni 8.369457955400915 8.430026572098868 8.906151029222679 -0.24845521155675274 1.279778682714912 -0.2544227419940973
Ni 2.543826214568666 5.517470573161067 12.683021930930204 0.18849862849746246 1.0045307764453475 -3.563611973569701
Ni 0.8566310600231374 2.8253319934631818 8.421479584799275 0.6904299018643271 0.28218242860586884 -1.1184964667312416
Ni 2.7162787838093436 2.047341755230589 9.525942648800669 0.4581124764097013 -1.050485903019223 -0.3402857605065043
Ni 3.5049608771501255 7.9042508847039805 2.0655485366244553 1.3033132755017425 0.6295958012960898 -0.6623426567098076
Ni 4.466346130085683 3.5177966719544878 10.030297501482272 -0.5122845915767307 -0.8276039119458845 0.2766614987876396
Ni 8.152929327211634 3.9600608035650993 10.63501007853051 -0.32497946916673714 0.24183282114422872 -1.3043062355426311
Ni 8.86704686852187 1.4539994834714518 10.131456186869595 -0.7107956100048727 0.3695788530436667 1.5211039680951028
Ni 1.8385999902668042 7.9091884427921375 13.259779761810156 -0.04072087475812987 0.15957011838857035 -0.15990976111617622
Ni 4.5292628712127785 5.773017047595856 1.900939445467051 -0.15686506075258147 -0.2542111402039235 0.18293836080086556
Ni 5.699259953372959 7.069664350942102 3.6247727660065787 0.7318200347753396 0.7392901179001397 -3.7641850167331943
Ni 1.404781681701724 7.67528555005205 1.8838102025958063 -1.5834568193007117 1.3156818243694244 0.5252262393390631
Ni 6.3429337618089265 4.778720928155404 3.7239072382002414 -0.26881526327034344 -0.6473608385889947 0.041790967893857056
Ni -0.09478255304415784 6.046234782556681 1.5861877514830873 1.6408978350269998 -0.411720262298407 -1.419431493354265
Ni 6.086366363709293 3.541732691332977 7.493537934899176 1.4480185609633385 -0.5335710117593326 0.37800127277940704
Ni 2.689242868939418 8.07981263056032 11.095109746565953 0.8264769974302928 -0.4253121420502288 -1.1525759249134535
Ni 3.9227785275498253 0.1187204286474922 12.68798083560408 -1.9817443531329806 0.05848385516850573 1.721335311648461
Ni 1.5794617207566077 2.468389236860888 12.938629660784885 -1.107382359095951 3.6179910625412135 4.265084249291119
Ni 8.207567305529265 1.441794805114448 6.7541144802747155 1.1920122765322052 0.49182143862637234 1.06406415592429
P 7.3691569485863315 6.931951029678813 1.0058622564507171 -0.781513545345725 0.5531594754142215 0.12439948402470832
P 4.594369957657176 1.8604756000671527 5.8621566771106925 0.5553454273219468 -0.9804981609761758 1.4151187249115242
P 7.2205197441092075 2.767167187939726 2.895577110279014 0.423001234528865 0.1441506985097066 0.69921741824897
P 0.960447859388746 4.979480926284951 5.001754696314589 -0.6337661306236957 -0.18433832647218573 1.1442144403226358
P 1.2342967107969283 1.2296932731809025 5.042479341305233 0.18537499526681622 0.012901024332384234 0.00988666298609265
P 5.9442073839418175 4.955229348682782 10.105688073568922 2.356949037003857 1.30500763248503 0.07352840820645402
P 0.5346103895454815 6.992723831109735 7.099796448853775 -1.3283668760362608 2.625601292333775 -1.8519838619066749
P 3.036496131849915 2.3884416327793425 11.615738122465178 2.9250443077923043 -0.6111674193875732 -1.0098478177828867
Ni 2.6753768693459854 6.552445860083457 5.951728807014453 -0.21105260253857847 -0.7616582011826948 -0.2675253408143264
Ni 5.093694441008365 1.4348061185723764 8.412405429643652 -0.4251709884866742 0.0975175720321998 -1.3358852959004928
Ni 3.5500207352666684 8.843500656360867 6.059639510276088 -0.011088910824309935 1.4465306635639021 -0.07005639049745355
Ni 4.6346221934247245 5.439741157769501 8.365635988444705 0.5856546198284495 0.4891076392396351 0.30707790629596793
Ni 8.43690388515023 1.0641365792400377 4.273510355820175 -0.2758073783174605 0.1506620172656631 0.7205182366092752
Ni 8.732238539141274 6.886492083220558 12.879377107502158 0.6684994203398229 0.38387264395851955 -0.49919870492705
Ni 5.356944248550618 7.197400463662594 5.666155111371744 0.07484635568692917 0.5695317461246578 2.617320283271905
Ni 6.525623411070726 7.854968115064672 12.430783249169512 -0.3038537429317154 -0.16628121186015882 2.1996018944085343
Ni 1.670704453021023 7.257235871546704 8.865155375404639 -0.21412764191947642 1.0514816912735891 0.17465349508425407
Ni 2.65196987404837 3.9019145602900958 5.768496211985441 0.35182795681814893 -0.5356883152126517 1.7034486611760276
Ni 1.1501076329441655 7.911620097339313 4.4782463875680785 -0.17521399557341436 1.4305769684481233 0.6789242152175727
Ni 2.7180978841576118 1.6187208762319893 7.037962814923837 -0.06097576835242401 0.9267019410913266 -0.6502181055321318
Ni 1.2048291413798276 5.153724752501219 7.470377817505968 0.49406086947985234 -2.1909329058796265 0.12247269931564067
Ni 4.8972223222711655 5.301313189940821 11.91303480611757 -2.864719799870634 -0.34846443966255475 1.566684227828063
Ni 1.2739642357382477 3.571506537849531 10.781240687495869 0.304694750775772 1.3080790723215021 0.031674705395461585
Ni 7.554101911035016 4.574211355838611 1.3000191357775006 -2.240558282216238 -1.0185728563607104 -0.03809757820266987
Ni 9.140060418749725 4.529420650324618 3.235390624010064 -0.7596763948659755 -1.6603698277086822 0.024495671148519103
Ni 0.28977804491702336 8.093158887197106 10.864999121184551 0.11914286361145933 -0.8915328493893614 0.39478234889248787
Ni 8.440180122001957 2.1974639395838507 0.3338995813743323 1.9661377569439753 0.8174426551421664 0.934532749989655
Ni 1.0151600867001822 -0.15036256547071175 6.7955723340792025 -0.02721229874873378 0.0884109817452413 0.7612895049893663
Ni 8.369170240549913 0.2111038110792656 12.349267135093797 -2.328732979580957 -0.4485757405638597 -0.6036456570892313
Ni 5.081786758626589 7.231629249807559 10.798845123927476 -1.4573082137953803 0.8821508939538292 -2.0064567682779963
Ni 8.21488083141924 6.1351943582615345 8.305527715508356 -0.6752809620380306 -0.9017141607977374 -0.652190141656838
Ni 1.2148249121710772 0.7082945639709306 11.882661398976024 1.8835253841583819 -1.6864328433443216 -2.007107514488118
P 7.174355432209787 8.505305770694806 4.537526784223483 0.37437781709420687 -0.8654757472909934 -0.499418791357656
P 6.792316515700771 5.587895743786882 6.408377753062723 -0.028972475972950103 -0.9980413120662617 1.6478277293776138
P 8.118422107339892 2.6581511027827913 8.61616323089815 -3.0531068424908967 1.2367556421861667 -1.6663363297047624
P 3.5335560208899954 7.708344914544558 4.195769803079539 -0.11165786808832383 -0.643136258984686 -0.019688993788495125
P 4.5578116093315195 1.1358703883816983 1.661007534429846 -0.17262566602094787 -0.6303725315611143 1.1575335260290451
P 4.218131743789322 7.374307972531683 13.361889762430629 -0.424598660922972 -1.1038293516373698 -0.16518232236902522
P 4.054134278718402 4.723321897651254 4.055435492334867 -0.44026207849184174 2.001049738329812 -1.4794821787892585
P 0.8704849941550764 6.027319851384381 10.674104958107092 -0.5573264623077175 -1.0209030471557838 1.1187286373467056
