# total energy = -381172.3118561324 ev
CRYSTAL
PRIMVEC
9.18428085569956 0.00000000000000 0.00000000000000
0.00000000000000 9.18428085569956 0.00000000000000
0.00000000000000 0.00000000000000 13.44212339365045
PRIMCOORD
 96 1
Ni 7.690356302603261 0.2951414480423187 5.922545774359692 -0.2291122882537667 0.17714720804038522 0.5958924955063737
Ni 1.2566116352334995 6.367608663033351 7.006020862981969 1.7563624784559235 1.360595139942347 -0.63908548595408
Ni 2.7905793591984636 3.415431887323408 8.120319315602778 4.12344808967315 1.5334696887493073 -1.2291446626081282
Ni 8.176480272819374 3.249609701752807 0.7908905442887837 2.225020591591955 1.1133110658755598 0.5249169356287605
Ni 7.918356067587486 2.8445553760690494 5.081041578314551 0.785608284240389 0.004473976610953585 -1.1920444153217211
Ni 3.887467171155401 1.089788363081497 9.327166845032027 0.7664517659165961 -0.15301663354076875 -0.5052526244306137
Ni 6.825086862172493 5.2516818374686665 2.7776938135681366 -0.038530551975030414 -0.43332112839763437 -0.33851581309027506
Ni 7.612611367634823 7.476436039722593 2.4232246683709904 -0.6478084676493747 1.3360935552565572 0.3502603552207129
Ni 1.788409032690965 0.2731790779312702 3.4615617733087563 -1.1614524014674772 -1.8716921389688799 -1.3924331103885503
Ni 2.2762596476529815 8.547966053044226 8.778082794698294 0.2816720646283536 -1.0516210450649308 -0.9723593339191254
Ni 6.030380249309653 4.951254835962162 10.132927657980868 -0.7078663521732196 0.5856031977652237 0.2415517995687001
Ni 7.936678707311294 8.369359348929494 0.20579768515047409 0.6258414764599802 -0.2805384652445426 1.8008554186619758
Ni 1.6294934261039742 1.546348134164309 7.552577399304677 1.553892989600666 -1.3780647574820202 -0.05227952613000674
Ni 8.52024789430415 2.3368024251263355 11.106487113677536 0.304828705250475 -0.23874364069594364 -1.0781872255892335
Ni 6.779211380758749 6.232149709005059 0.1706209721649321 -0.19405323976710448 -0.2970369771201981 0.24382748297675427
Ni 7.433545449491925 8.407685351720195 8.157271350021206 -0.9649172758187835 0.9340272711081462 -0.06800619283664418
Ni 5.2229442235860635 7.231261670084975 1.9553452714938961 0.14382134019474585 -0.0801248304770491 -0.15722347253326469
Ni 9.016777654398496 0.6474623900157064 9.149891861598974 0.2950520854796854 1.0898682614715876 0.3508141708416539
Ni 2.965622562454631 8.205677100730144 1.4376080891508056 -0.4093391636607402 0.7833495701131993 -0.9965086774718193
Ni 2.9779937883734124 8.209497761444482 6.314248911388563 -0.8744414411247134 0.32082765178189265 -0.6110134103082122
Ni 6.353483239526976 7.892851320463167 4.450700524124972 -0.16208697127315314 -1.0998269153461961 0.7911500399942246
Ni 8.847006228185672 1.2142721018366305 13.036802465352238 -0.5475423863377602 1.2230825155744485 0.9850600693152454
Ni 2.224350093909141 6.3488084407202505 13.434971335897682 -0.5974495555808484 -0.43940872935261094 0.5522912138766553
Ni 6.735485020996819 0.6924497514989785 10.143856033423154 -0.19560335786304375 2.0691132667669527 -0.009208405972145431
P 3.125520887061896 9.197322241712087 12.665706098623271 -1.3962943931161693 -0.048747858827664435 -0.3578551368488353
Ni 1.8127014547809257 5.890953686078011 9.198391291969656 1.8351264240297043 -1.4626347682146166 -0.8487206393198415
P 4.017397188284579 5.839723769095856 10.60543134012159 1.2752306583329136 3.157889580725942 -0.5312796446219947
Ni 5.027043519170613 9.097378900622124 7.247723574566655 0.8970267826243971 -4.534352283828166 0.590538430283312
P 3.6759623740628853 3.4070190863274146 6.15122333924949 -1.833617186474029 1.585986784811417 -0.9201854801290474
P 3.3368328142625825 0.790159475555944 4.865698670374627 0.15469864922888196 -0.9749060116003792 1.1486375090909962
P 8.097660777025029 5.861462961189216 10.409297354979834 -0.14189944058168466 -0.05494241767415054 0.3018518820103382
Ni 1.6712084284225381 7.118772601745527 11.046575296278883 0.6472032299652078 0.0656171237791773 0.6256303888904386
Ni 2.7911028631905728 4.245020397765708 10.79071777149002 1.4696813906487527 -0.9252526102393098 0.9012583042072414
Ni 1.8947997387363733 3.7349713766821657 1.7612942811838983 -1.1428224450711155 1.2070576009011018 0.4228927339754588
Ni 4.977099401467322 4.682522786679647 7.5946781414069 0.0967359566711689 0.11974167353772282 0.287435192364376
Ni 8.502072203069355 8.744316787207277 11.151612239369259 1.1744385293144999 -0.16282230677728088 0.37427728696060053
Ni 5.978002297257084 3.8152328045249506 0.9409460754163471 -0.26088135313524746 0.11006918344496527 -1.295010669173318
Ni 6.590364203815924 7.990746566987512 11.98136790371781 -1.8218986124855205 -0.18902030532888736 0.05106005190060883
Ni 7.0537570796378395 1.280307079086845 1.2711273906638145 0.18529271996565508 -0.7912461992524567 -1.7292504527304802
Ni 0.7781087810288222 1.0388431587968046 5.332140727343563 -0.33745883258067044 0.4063219741009712 0.7548041543753389
Ni 1.535988265688893 0.2755431117482668 10.691635915916894 0.5113877907940741 2.068496202008244 1.1387192215360196
Ni 0.92500400121455 3.3342152943020387 8.943514648344955 -2.7120572072351745 0.09427849626961182 0.9059150862529625
Ni 4.8661624765430735 9.38128338139523 0.31776233106975654 1.949568282621068 0.0841897445750421 0.39299877462950383
Ni 7.810532613774201 4.459794798738764 12.139742556179623 -0.8444238117167007 0.45005103955780557 0.16206203157248864
Ni 1.5671505296402113 2.505747266088463 12.41803452310049 -0.11316890541621155 0.3445707610351033 -0.8274990109369039
Ni 5.506444596014383 0.8413269394302689 5.045124612315607 -0.1216517460762421 0.9630192874651222 -0.7304912886615871
Ni 4.111389115569516 6.9455938074437125 8.130050979287663 0.23838162937083462 0.11411044339387444 1.0609783179101147
Ni 0.16860685943739775 5.336342535701278 4.594329814142386 0.40719769183770516 0.5881331632759291 0.1409476181913766
Ni 7.97440773186538 3.941029895400638 9.19892857238261 -0.9613964071497184 -0.0660171874310734 0.366288355217853
Ni 2.5713413978716386 4.389847317968578 4.182610456053832 0.11316839119557928 -0.27934033117138346 0.7482105603182211
Ni 0.4952301843946379 2.3221626819084156 3.2106104911968143 0.639133565583196 -0.7461297665297925 0.0020476265576480864
Ni 4.847747994013634 1.9348432019924144 7.151074634914751 -0.8872388499996978 3.0674566834546653 -1.2914864580701433
Ni 9.07737553755523 6.657143107791766 12.441195441825048 -1.0263663842632 -1.009950404799022 -0.2653779554540204
Ni 3.199573741243882 4.0049249352796 13.313387992944442 -0.0877149841194812 0.6942477329485204 0.9132658701910787
Ni 8.947555731792812 7.917134558272565 4.556732124800354 0.10235073175478503 0.5244397388820258 0.6321622764716854
Ni 6.8571859227412695 6.144494935308807 8.452205233322795 0.5629348096334305 -0.15941430953699642 -1.187426971154368
P 9.215690802838711 0.3276767619378521 1.8532785247376953 -0.22640003152892624 -0.1502951208445476 -0.010104692534169695
Ni 2.8192894202393775 6.094266104908052 2.5285435688746603 0.41319813239551423 -0.9917585643813436 -0.7569728798918833
P 4.742340005988499 2.1070576468350812 1.365464646897932 -0.21719162555678082 -0.20967577679570987 -0.35464562877260214
Ni 6.898156998334205 5.333853595668621 5.146880930388767 0.20896049589624013 0.4656553217539658 0.754770472923926
P 0.7246094283194724 4.6480633660061 13.270238406001887 0.6684713953153648 -0.789109612525428 -0.18629827841203397
P 1.843422873265205 7.071023527096866 4.411529567522445 0.4185894786144146 -0.8632864529491584 1.3874492840207138
P 8.694657382201449 4.090412218762911 2.9536242183267194 -0.990185820577585 0.7189030696033555 -0.26290301155096657
Ni 1.1636759002133437 3.4396140980466092 5.8344455630561205 0.5921623390399802 -0.5311366912862273 0.5768809874008776
Ni 6.203246778072315 2.618686364175513 2.957764492004661 0.4235067134103739 0.5095723348518901 1.235740313547775
Ni 0.755418097469103 7.236845712667468 2.5945445642867906 0.666930018970174 1.8594241202348043 -1.2858300311153146
Ni 3.736128596033143 8.41939530943842 10.735578106272062 -0.18454324339414024 0.15602096758473127 -1.4418358291913942
Ni 6.896926304738721 3.5930191362956125 6.962253173957504 -0.3503696271050676 -0.041842389957082775 1.0880990853863068
Ni 1.9101834086799212 1.485594118237999 1.224657686297624 -0.9913986099387635 -1.284577389655136 -1.0466120218861137
Ni 5.51184495298561 2.901231571425249 9.031520261558725 0.9324504135393297 -0.2371441574193077 1.6703115123024266
Ni 3.7196428124219976 7.95743518138438 3.6600616291236228 0.33615374061600173 1.201363378729802 1.485557181338745
Ni 5.86225280931766 7.928715936062901 9.862055671327102 -1.385426082943098 -2.1580194429810575 -1.0723166257410692
Ni 5.6239207286997095 0.24219958116316195 2.69560287703714 -1.683942729932616 -0.3200295813606295 0.3584688591734343
Ni 4.01837072202429 2.0228377940695084 12.215085801780754 -0.09763738543951572 -0.09118417361500425 -0.32502163525858213
Ni 7.672373481260296 0.8799551050515035 3.5197120456953677 1.5351918136467366 -0.953145737105152 0.7816189605753378
Ni 4.310210421204098 7.264692451335431 12.513796261249977 0.5755866940694861 -1.874529608417675 1.4812454413372684
Ni 5.501402425985125 3.4115653052062536 5.074535433963502 -0.5876389972483299 0.23528550694401415 -0.7033617794346467
Ni 5.128548187956341 4.550774281998934 12.177649755776637 -0.8603674795301506 1.8676053704940156 0.7123662969261022
Ni 0.01359089837758937 7.26494042691064 9.22133638010098 -0.28764242327917555 0.38788947842739646 -0.004525655784495432
Ni 1.0597741342005929 8.691213276990206 12.947466049884845 1.6211648753744468 -1.0168885266797518 0.8267744740660535
Ni 0.5189724680788562 8.683140294375054 7.276315158388302 -0.08340710077274667 -0.39063670215523044 -1.586852989466454
Ni 8.686648689550239 2.194161363697534 7.365154704277221 -0.5834367862415242 -0.09113043755893337 -0.5739185623384437
Ni 3.3511051862579695 1.8344314625937224 2.9656547074366024 0.8688919720613939 0.9936735220158693 0.5744664644221139
Ni 4.7897033408534995 5.880290736344006 3.9446310518095125 0.3564675124726893 -0.3190458772911215 1.3070447175197168
Ni 8.836600438307437 5.770272239476089 1.4124578552562315 0.07157282714197995 -1.7871195571331222 -0.9112791787783532
Ni 3.44227753940997 5.660859905125351 6.268250360615269 -0.7543691237204493 0.24382876852833488 -1.5866005071360159
Ni 4.252193320885655 4.01232746541363 2.629924249872782 0.14163384562512382 0.622842027512024 -0.9434655337029106
Ni 8.239043592016657 6.897165096033366 6.616710231039842 -1.03086118680976 0.6223627738827604 -1.261355185902402
P 4.758237995643593 5.597102629454838 0.7101662287056076 -1.4817159532157835 -0.38517490770971086 -0.22793240901305262
Ni 0.6704074781470292 4.4932806856726 10.994970660649745 -1.75134522774699 0.8661779155643404 0.5262104576292034
P 6.7878813416105155 1.2971969710427762 8.022890630531048 0.042187432001327345 0.715071354562091 -0.4105370406235833
Ni 8.93559779849938 4.813821261612758 7.108396201565096 -1.171771781115614 -1.7765713493036306 0.3880856535986026
P 5.796805626023498 6.724987388312954 6.5546208207196255 -0.3679600864933212 0.17386082397962963 -0.20897437985331105
P 2.4204528524969833 2.3603968418934844 10.041642338177938 -0.6003554163737338 -2.2503292455600725 1.1378622728523629
P 6.660881109981035 1.073431159398238 12.394215091459538 0.325079227969395 -0.9593724347411541 0.390791739675856
Ni 6.191169449131559 2.879253588037243 11.368433816479875 0.7873041838855731 -1.616000814675004 -0.6551577089255942
