# total energy = -381178.1307866224 ev
CRYSTAL
PRIMVEC
9.12553325048954 0.00000000000000 0.00000000000000

0.00000000000000 9.12553325048954 0.00000000000000

0.00000000000000 0.00000000000000 13.35614033513272

PRIMCOORD
 96 1
Ni 1.5440311302049268 4.63776947240597 11.537915640378941 1.6213427957132076 -0.07737477853573771 1.4406222684992673
Ni 0.8633557668268246 1.8570734288624235 6.407555348938675 0.15021258843307034 0.7391535923222754 1.770781996315363
Ni 4.754047019324517 4.1051029607765175 8.20290093204524 0.6333645243099028 0.10115259768162578 0.8993695718249608
Ni 4.446042015118365 1.5656130167582436 1.1961648834391372 -0.4545345292504559 -0.5015312097149686 -0.8265366470236346
Ni 7.919439049989257 1.3830475950306935 0.9547863113321065 -0.09671667339745924 0.35993978729200593 -2.145379385619544
Ni 4.923325664383301 2.16409287545853 11.11145391187203 0.17454628008242842 -1.2841847822024075 -0.4334265436272471
Ni 0.42295022324445153 2.624850183688348 13.016600650824463 -0.7347305235539152 0.6481283128826386 -0.5393966173021744
Ni 5.405117327160856 8.656763899771452 10.726597315362532 0.32525766252878824 -0.4694448707033851 0.4180019815420608
Ni 3.286834629502601 0.1655627278475756 9.967634000719775 -0.5188079945175451 0.44685053034263694 1.139414190720515
Ni 3.4741179520115737 5.468156512070079 13.590406892246586 0.1732884964159274 1.0631455007647626 -1.2401803515969996
Ni 5.674302312171317 5.4887528410133495 12.228601713925748 0.6277644045143059 -0.05747161185390747 0.30665727381878155
Ni 0.982336296746256 8.26561616051783 4.977566922516181 -0.5289263138984697 -1.0565128259395933 -0.23792782966286766
Ni 8.58939921201814 8.687635579352794 10.243038036760293 0.16619199458046216 0.010551550263601182 1.1616830294210445
Ni 2.463446873976502 0.7934833824879509 7.864455885988815 1.541036445352972 -1.0265219360044577 -0.008502638154372454
Ni 5.602183221502875 6.088592404194162 7.090468293112918 0.518303544077301 0.062729260708421 0.014600780632310338
Ni 8.350291985180927 7.452093106625615 8.252706268379573 0.4524750756182659 0.5603194834977705 0.5298855924879454
Ni 5.247756628756883 7.602728286894367 13.252844285272488 0.09735147876798073 -0.7311497481811924 -0.2282643384311746
Ni 2.7612951594791273 1.8636164363291166 2.9393525676940606 -0.1688543719039737 0.0670055194862717 -0.7353568442840046
Ni 8.25514004814438 6.970392699182325 6.147590802902197 -0.1735972859055978 -0.8841931211948385 -1.6219143519459616
Ni 4.329782719266671 3.2960696693300666 12.971911088528943 1.1926653367351718 0.2104339951179731 1.0539322096966106
Ni 2.4915443913962325 2.22626513469225 11.723018872952359 -0.2022907971855484 0.18025721442427667 0.06888396745590718
Ni 4.027107026581507 4.307516417706378 10.95040558541047 -1.0913934398668623 0.1259233768684025 -0.4674250120598788
Ni 5.538395742852692 1.8147309537641616 6.4234483779540055 0.6016587085661895 -1.6234755257854943 1.2143546487831474
Ni 4.3579623664872384 6.605143223792682 5.082265080070033 0.4985636424462123 0.4998836468092165 -0.21624545959342759
P 4.197553739918865 8.6156716227526 1.4798740674509758 -0.6817760828440711 -0.9782034514047283 0.5768593901343226
Ni 6.24291429996716 2.314481666324771 2.351789584631716 1.1848628099716174 0.8690179561162968 0.9363800876110391
P 0.6848849719476774 6.6225547415701564 11.50495238853628 -0.1367351227719258 1.0003794732811353 0.22242793425505566
Ni 1.6222643282690221 4.168981694760964 2.737086944405707 -0.7479899596669828 0.6099687710937818 1.1210549714870368
P 6.221788690085161 4.536603808841458 0.8868503651863042 -0.7044709533384255 -0.3997018976812922 -0.25799863227081377
P 5.050134076875856 5.775495352336106 9.838640935524955 -0.07551689939139251 1.196325044974946 -0.6430048756131441
P 0.9375846808234375 8.635218515351841 7.31935218485259 -1.6818807051972646 -0.652843973190753 -0.48182730352813796
Ni 1.6125091330362542 8.884829231162781 11.594558738909635 -1.186383360381202 -0.48264748543658814 0.015457729315966928
Ni 0.18619190871118152 8.502542384866144 0.3227737675033561 -0.1964147980207456 -0.001406650539539513 0.3642538412863275
Ni 8.088982335517406 0.8957614485771346 7.802951615801905 0.17182759559968472 0.009037684722236048 1.8049074772441627
Ni 6.61679652997813 4.6530456153616795 3.1831959463795485 -0.9946813944550934 0.1134455561163659 0.21478018790181075
Ni 4.339455784698601 3.7762917403582885 2.0748497213155437 0.31046610604191044 -0.6646502217970618 -0.9861237346930692
Ni 7.95195332558734 0.7651057111920314 3.1017496479960354 0.2932823951737723 -0.2007036552040866 1.4520842463922798
Ni 8.3115632213195 4.143411950100333 1.4859644484597216 0.056225655261948324 -0.43099916513267705 -0.5033466656571525
Ni 2.9089462903174637 2.6028850247311244 9.48491700885279 -0.11001647583015892 1.1401955489712299 -0.8441530745538172
Ni 8.138917254426392 5.0788886327022835 12.177781618274407 0.6147975599409928 0.8398696166871148 0.12984199519651832
Ni 8.323052267903273 0.6383630025401471 5.680633607262518 0.3483543964472517 0.6132016762087826 -1.3828256692057734
Ni 4.33941015703147 7.636574890372699 8.47894558053229 -0.18310496828571693 -0.11814553269519655 0.7712005934554912
Ni 0.45530480200757406 2.1957767275148155 2.2237574381066887 1.2309616612122092 1.012050224750844 -1.4629031913846546
Ni 3.5155661248340535 2.5999922306349714 6.8326546353050315 -1.195979231599753 0.3720831075227592 -0.16146707830096707
Ni 4.886495011474556 1.4873980697610012 8.784908290357624 1.1154083147242209 -0.3035305552643418 -0.35436177898359617
Ni 3.1102099300356043 4.927788050228787 6.418239523474245 -0.5606066757208862 0.5550422942592311 0.37735823987876943
Ni 7.611160279780314 4.915924856774532 8.023394389122204 0.03934096369146773 1.71806589686857 -0.8109411065782228
Ni 6.782269827598127 4.3164868170644795 10.13200858411524 -0.8780692676852878 -0.8064517033483015 1.1160127810774394
Ni 2.549993432992002 7.651011484253184 13.527500027572044 -0.22058342484714913 0.1600599135407953 0.9163043999070866
Ni 7.058563603147714 8.43773284647221 4.638667424895123 -1.274789457030437 -1.182156723894364 0.11421328752032589
Ni 9.37365668021205 5.20401794704439 9.752653771708491 -0.8704192073391978 1.5752454871345127 -0.2196727401074217
Ni 8.957085204832618 2.9659808742321485 8.512856975297947 0.4511645843369585 1.265878527694052 -1.0312265405689789
Ni 5.376271516000164 4.180169598741669 5.59376582947041 0.953943293305783 0.11758400376477168 0.8639346280561185
Ni 0.8541763927532595 5.760483849849762 0.5227580074351225 -0.15576411437891885 0.02714724983875325 -0.7245402132844748
Ni 1.9968127222201153 1.0792585872675151 0.3395008702738549 0.32709960083353345 -0.14518428198054348 1.4103470145544938
Ni 3.4099837030911884 6.924920166118825 11.252602187590748 0.32853607616974384 -0.14996601963990303 -0.3173906010758856
P 2.0550518765470787 6.157855202900156 4.76047595762338 0.008794715473494532 -0.4303952130000911 -0.8717667225060276
Ni 4.477954005510309 2.396246445824864 4.379198395323696 0.5596638521916426 0.12971601114161532 0.044651063050471486
P 8.628027595011877 7.787210070641451 2.5581954624356054 -0.7965125898577186 -0.18956717897129288 0.11045459180884204
Ni 3.8039877343072597 0.1978269638297773 12.498943816574672 0.863715827177093 1.0170229953750871 -0.9047760875525128
P 6.659878173283926 2.9436141918041656 8.419964520337764 -0.9994482197161175 -0.3170915817782281 -0.2258701271673852
P 8.549949531016031 0.9166050794762598 11.956817776995463 -0.16233199740442367 0.3773430703701179 1.180127352169161
P 0.9386797448345994 1.1634416331255901 3.9555947838859185 -0.17618021614142562 0.5190309091616288 2.0789600776540453
Ni 6.252925010135866 0.7530627447292779 12.760109282810054 0.14144692642529832 -0.2905778517584157 -0.5892896454778755
Ni 9.372926637537942 4.626608945025544 5.789833390455587 -0.248079830495205 0.1200969999946125 -1.0698357683007447
Ni 4.669562830863372 6.026447521560722 2.140308085136092 -1.0243341843245197 0.12700169753424578 -1.4499162922066837
Ni 5.941132909557779 7.098588192755684 3.3938889997871358 0.7898161516741494 0.12071123653984372 0.46993235186276483
Ni 2.704963241638271 0.805049996105849 5.242792338572949 0.99256306256051 0.602709261317891 0.6047203782106488
Ni 7.056355224058538 3.065932841850956 12.53245368786957 -0.7287851046037577 -0.11776655208922299 0.276398217823924
Ni 7.192681567914775 6.646655275349145 10.052993327836507 -1.3165698834013326 -0.09318089233005887 0.5484091052134298
Ni 6.6053074833943555 8.624961415780625 1.5858817390515088 -0.48127708745162273 1.1289492866334492 -0.011107422767071192
Ni 2.6749584877324333 5.415264920330957 9.111839650890026 0.6482015893227353 -0.32144754475407866 0.08412598121664222
Ni 3.2106820530597133 8.313981487677482 3.6632820469597176 0.03324462098574275 -1.5752603995328482 -0.6204920392226088
Ni 1.2996219684470052 8.834857810120091 2.383296401339531 0.712375810007799 0.2842369971420524 -0.38711634770679787
Ni 0.8823916295541898 1.3057908290432176 9.529659499242182 0.8504417357760065 -0.843964869802411 1.1298599713731767
Ni 8.71364334961789 5.84008587792781 3.564473508679232 0.635012858546603 0.35664131904639224 0.44399686294392565
Ni 5.060427678580778 0.4285414375747759 3.3623018783851695 1.1697922887917402 -0.6631443266754966 -0.21746647648472223
Ni 7.806902971775513 7.546058724316737 12.293820076217184 -0.7145069974181888 -0.31302383946675766 -0.4694050186043851
Ni 7.457550175614572 6.558703384185988 1.2693927264188796 0.13528502058896055 -1.7897940186414918 -0.8891859464237397
Ni 6.317369527192747 8.426015661552777 7.1016872239072715 -0.6751310667237277 0.37683167795133815 -0.745791152243451
Ni 7.263532209436953 1.7425023566946045 10.15567565505648 -0.5484373873482038 -0.37094333749136116 0.45690251526200026
Ni 7.576163859090263 3.0894128393569535 6.513255490062739 0.7270079580986769 -0.06870733266872683 -1.4904183660857881
Ni 2.3058397861700186 3.6846713847577384 0.7060078441696488 -1.152510361782841 -1.6769326171633698 -0.42789455806542437
Ni 8.399277848613572 3.309776220536444 4.057635586106017 0.1866410064634334 -0.8272537276953171 -0.09304796629662039
Ni 1.9541964811190626 3.214633409033323 5.093524163211463 0.6315660376485833 0.313708267128292 -1.9543495060597953
Ni -0.1541366474444433 3.237766636269119 10.737361794592253 0.3594165677986842 -1.2256597893833214 1.8278136924183745
Ni 3.6975931400894493 4.499955666601238 4.046976963064041 -1.3627474103986594 1.864380435798815 0.030745765823288987
Ni 2.6822954166072184 7.366349594551634 6.600778481154858 -0.7829921867737806 0.18919514034385482 0.7475916957872996
P 4.243199658117466 8.877747817223934 6.35219347530104 1.1256166227157907 -0.0146624871081812 0.5233066537188471
Ni 1.4751698549696928 7.654260174152964 9.401453967582054 0.5164037559514267 -0.3883774738074085 -0.3219124002056391
P 1.7959323549058814 3.6703716738786483 7.798556758903774 0.15561833282967394 0.20939732632334263 0.03998425370242146
Ni 0.7813692368644718 5.712629552561985 7.5855531204326345 1.1850358452143719 1.053373251869347 0.4803702593666373
P 6.791550495092725 8.97720700603772 9.152509415711238 -1.402703639076623 -1.3851350340652402 -0.3739834098692656
P 6.736550905132116 5.845917093787247 5.098893627079527 -0.1985120468694065 0.48076775191537197 -0.25078205991771646
P 6.758671198157587 1.9775304700902385 4.761891327857806 -0.08940934110276859 -0.12316741138982014 -2.185099329916985
Ni 2.2068916272281096 6.479000975240251 2.324302565398209 0.05755054472095895 -0.2866808306968546 0.9278900478621568
