# total energy = -381164.3008351988 ev
CRYSTAL
PRIMVEC
9.29535170043598 0.00000000000000 0.00000000000000
0.00000000000000 9.29535170043598 0.00000000000000
0.00000000000000 0.00000000000000 13.60468680213541
PRIMCOORD
 96 1
Ni 5.089149275034476 3.691360765510519 11.94849324086649 -0.03021509013079958 0.49982811098093277 0.2192125126415515
Ni 5.8381315323472105 8.953134016673802 7.700470114855872 -0.3809359299276988 0.9588188762305292 -0.7758136667474703
Ni 5.177362162518316 4.78453130498886 3.9871936986793206 -0.5575866579476397 0.697773743823908 -1.5314742555858336
Ni 8.163075600268225 7.6331476007472885 0.7570980288682808 -0.15791715616617963 -1.2093983332191365 -0.33530116280771927
Ni 4.987876418434221 4.787329205845829 1.534364182285949 2.3697392467899894 -1.1869924547201105 -1.0088340318063918
Ni 1.4398871573020717 9.049164294924124 11.554365681777078 -0.48883767340770007 -1.2267681919561517 0.029220073207381937
Ni 4.193216802944923 9.195947193370626 5.85895404965517 1.9394131964649375 -0.3770178258202152 -1.7907299001922
Ni 5.975163606876901 6.878811220864408 2.4502853786373833 0.8620001300375671 -0.27473677096110105 -0.17536671910119475
Ni 3.931822218231219 5.990770502354811 13.19056044176434 -1.2384242881378413 -0.388378245138357 0.4835514853080962
Ni 7.86529900906224 8.875796690660573 5.903998394382035 -0.34229584895799764 -0.8721765563499365 -0.6746137607676769
Ni 2.717747039395418 5.881968410890285 8.010888384352482 -1.2467724029922205 -0.08138569946734371 -0.028256937963164242
Ni 7.830385668136075 1.6881752961409373 4.184760821517731 -1.700310115547046 -0.8346016834199561 0.9469018130779693
Ni 8.731653672092406 5.629106959022753 2.95832561354734 -1.2271692840493125 -1.0911898084964884 -0.11080374761814465
Ni 7.032686472646017 2.307096992687193 11.57700358126898 0.8479158840303591 0.07677519727852584 -0.21874714296935877
Ni 7.0494924684912 0.18714052685415108 0.4680051552057526 -0.6820031112532126 1.819214380785138 -1.0256490464812014
Ni 8.908200286631981 5.734925242596623 13.234925296283084 1.085926246104704 -0.06433260063979888 0.9547899575767944
Ni 2.0460184499307545 4.598456954972896 12.358633902302417 -0.3823852607797157 -0.4398051934600813 -0.02941779104048482
Ni 7.2276471788721555 7.150449283134191 11.940057709213006 0.34030787199369134 0.9152841861726883 0.6552399842267553
Ni 3.0719743013800493 5.042505200282747 2.1156378454405242 -1.884665925520728 2.3839402208807203 2.3389924525254364
Ni 0.46350899359606523 9.663633518013608 0.14918481732172098 -1.9071083136846447 -2.541729078999152 -0.5040421490622803
Ni 6.35376328097772 9.004862648796834 3.812305374880222 1.0276516787335268 -1.0256349054138143 0.9990669251172988
Ni 0.7975606947499619 7.220564120888732 9.504030470524143 2.1435688147733662 1.4700590857031457 -0.044791188172761565
Ni 3.6935172871012725 6.94373925237912 5.877333748540503 0.6736470259790334 0.10339742785174451 0.8507428119561928
Ni 2.008539591939728 2.9024735634171615 5.176066390493527 -0.9584756339584977 -0.5875510655202139 0.2743310508822501
P 6.918242102709133 0.8911490841128217 9.760559868166293 -0.018984768632618918 -0.4121532360707676 0.404302115457465
Ni 1.9838790239213273 0.49683189984904896 9.399097104430616 1.732314436367784 -0.5632513124325847 -0.725940178955795
P 5.861128232414124 6.8927728390942 4.833092081257888 -0.8213139651721145 0.059456760604736314 -0.41510023451423345
Ni 0.9666608030552578 6.651112286006228 6.17617372797917 0.26922201179045896 -3.048470629270466 -1.823471870509911
P 8.482027002611005 3.0061260300485935 6.366163280124553 0.5223041805962618 -1.4661638644137975 -0.9074821736297661
P 3.084606684318989 7.434022576966592 1.5282961767064496 0.35312610680428214 0.45586353247452455 0.16661005595448725
P 0.08753897448672895 3.450397363798868 11.472655822331562 0.340925193862716 0.20001948465286842 -0.9122400000297257
Ni 1.0219402595216849 8.584182917621268 7.014862635791407 -0.5781516265831849 1.0871326077079793 1.8480922401617523
Ni 9.316173272055133 1.4229045497748878 9.95131163914979 -1.2028152806849801 1.4071413631330023 1.9068810281651867
Ni 8.16256435592559 9.249730098215883 8.198959375910228 0.4721357872719869 -0.45049198374996613 0.9118787600355651
Ni 6.029048760590685 2.8236117997277095 2.7416574725328977 -0.14008089931570714 0.2563526120269585 -0.33673840947487815
Ni 8.290477690452999 2.541944052990586 1.964408050748261 -1.8093446870799095 0.4936518069668917 0.46830458645135475
Ni 4.897163081347308 8.250405429342058 0.19399491918614087 0.3102935850197882 -0.555515634351224 0.2794819989555703
Ni 0.7706673832569961 6.977314062662748 1.892588445494822 1.7428346191728177 1.2384857375033962 -1.1933711045529447
Ni 7.011613910377751 2.367098487809235 7.972142569926887 0.908401600120242 -0.608957299110132 -0.6480015574967872
Ni 2.199177959632675 9.732512073994139 2.485086245808168 0.968917398117112 -2.531552652686782 2.078929481526426
Ni 1.270776824109923 4.649646456698238 1.0162524338260726 -1.6492464641020113 -1.0082629897942699 -0.7640814659122067
Ni 8.59793074276232 5.8027441284851475 10.290177402940975 -0.1004637991447173 0.13774325232146603 0.1924820386252427
Ni 6.152184284352373 1.3658124997300258 5.871306642508413 1.6349755560052939 -0.4441017639529061 -0.6100618450282204
Ni 8.120372754630631 -0.026432262049425264 2.3233675762753605 1.5317758459866522 0.7993606008294749 1.6158604324423977
Ni 0.34350042614096965 1.1598646878130663 5.814058430555256 -0.4332823047398989 -0.034401360298005265 -2.5214790705008636
Ni 4.871433547885215 7.444173101005829 11.220234040598697 -0.8398724449005923 0.04537071482531541 1.1233026298706332
Ni 6.505732985664053 3.4650468380532966 0.1411322541576272 0.16908422852659266 -1.1828864029715371 1.79230984308481
Ni 3.2735532980053965 2.7517029590981017 2.6438666546735736 0.35728435194702984 -0.6782166476275868 0.6042493521115013
Ni 4.626045558771845 0.21405707672632748 9.557264949620027 -0.8889905425834819 -0.8123883805477106 1.1428203881885866
Ni 1.2479009636149043 1.9338979179149411 1.2951659678591432 1.5171874066495161 3.3648243044414046 -0.08444042713326748
Ni 1.1060910783194928 4.33113193588462 7.297418088614379 0.8869532004384789 -1.0720389465996505 -0.2316304266899301
Ni 3.0821434161226544 4.955407755001022 4.947929644571016 -0.611014952970109 -0.6990119871063833 0.164424104046762
Ni 8.13664891542981 4.725682433475668 7.463816967720223 -0.5251084828142764 1.4665153342159452 0.531814176969226
Ni 4.5540158785703415 1.8437608926324551 7.390963719359491 1.0021522489108419 0.5892760186311207 0.8188567618808736
Ni 1.782216369130822 7.076021402198142 13.294241723985994 -0.19335235704533799 0.20385402790761023 -0.09970995169782829
Ni 4.15607257761453 8.034920586597025 3.621513633884484 -0.25392034843638206 0.25516167704265086 -0.5284848554856769
P 3.1069341190646353 8.175838118130745 8.156091073012655 0.33579687149721527 -0.19439879603198132 0.007141496140787701
Ni 6.785011827018315 6.934657693783576 7.291989603230758 0.2905354285562545 -0.7059531943109068 -0.13818265385172976
P 4.941455432122914 1.1639174611474132 3.528647493347494 -1.4014512547267606 0.0207850550661513 -0.6589248892775104
Ni 5.360192434796464 2.454725768136965 9.697978912951863 -0.5605899635503377 0.6147746771228574 0.4294765578405636
P 3.4131880710066858 0.5139102494985809 11.648971912149367 1.1284818600787274 0.6710283574092637 -0.7325882803999317
P 1.2485237521777512 4.107550841822577 3.121187611337314 0.737435324079588 -0.9513595917390066 0.20652206165807657
P 6.125711122755537 5.765386110066016 10.414836434843716 0.49768715337853003 -1.7702832023020738 0.9021047113679367
Ni 7.279431583105293 4.058973333920517 9.669109409690819 1.3743484849726975 -1.420081468233438 1.7158514057157548
Ni 3.0638129826012497 2.9541743094851394 8.703053734030208 -1.3161595353367914 0.6681644055979074 -0.2841557502821558
Ni 1.6417264237745786 1.9664037627548765 12.394454469552969 -0.4053734941447728 0.3474923055572725 0.3299751226091156
Ni 6.089291934856519 0.23424472151425185 12.037195993384094 -2.6321308659221767 -0.4976884389301106 -0.9147972192339406
Ni 1.5408532672967465 4.663264146915712 10.028395202062036 -0.5431653403159871 -0.4128944851121663 -0.6301390753940697
Ni 5.027957974896846 1.4483738133898216 0.8565945437616705 0.08972275857812934 -0.13743703393495685 0.48403588114368246
Ni 5.987043066329414 4.832690522065127 6.073962040858801 -1.221200210950071 1.205560447530285 0.1523517462632602
Ni 7.907109500938142 6.2057812821639455 5.278740986127772 -0.2812984833390188 1.2621805100171746 -0.012362892440727096
Ni 8.960988588847021 2.7361611310819813 13.531030583256234 -0.8637502799594543 0.8975613149716285 -2.8158436429952216
Ni 2.0557506831441983 7.045207311364747 3.884164950145903 0.7529653013943871 -0.5952810871746199 0.298810266970537
Ni 4.769268337523268 6.467566271648389 8.584149454355204 0.6696425328053306 2.631390645322042 0.004051287251238184
Ni 4.221762827967353 4.913448537498171 10.172496391547623 -1.2745333751555727 -0.8412520988569383 -0.04528304020751556
Ni 0.5747483262722088 1.7400991306493385 7.85701963931705 0.3706404615389617 1.8230268125526927 0.5711402282623582
Ni 5.828864066717981 4.473127728213717 8.180035898951367 -1.7625786345689645 -0.07563876968123748 0.7283325904473714
Ni 6.1135063259940745 5.957948615557609 13.429812569230915 0.9740521482405159 -0.19117180445425141 1.2859184770640628
Ni 6.603956966911864 7.595956898658475 9.757689463566187 1.4502225105931927 2.920249971727455 -2.610178015800169
Ni 3.1531877890456244 2.7956699725647574 10.969826561575815 0.6527321302032371 -0.5046828679700728 0.03430160149534738
Ni 7.483557506092133 4.553281545787283 12.031454254648711 -0.48120355390120995 -0.08294353087276683 -1.2165904800922016
Ni 4.268973919171824 2.436553355594193 5.086724117780047 -0.12162166416925506 1.3223147563049098 -0.12092823764665625
Ni 3.59103603478206 3.2613206151888807 0.18229857816180842 -0.4844089482123851 0.11866129598935048 -0.058643520674821585
Ni 8.280652503722713 0.2273261912556405 11.665637548184117 1.0701332449365053 -1.054790186821532 0.5058015549555483
Ni 0.5170297695238261 1.9435557883149104 3.4351427621497925 2.752928748638556 -0.024079666657023047 0.7584312096049648
Ni 0.18494217618081832 4.578936716435903 4.902258793140632 2.0245406223629003 -0.495367761216734 1.282643405857217
Ni 2.639861287632816 0.780649661430747 6.941587378464209 -1.6481609443473162 1.7246525489471525 0.7721249050419734
Ni 2.9237692141258522 0.3296745200457681 0.23447524623602206 -0.08972275857812934 -0.0625999342194083 -0.7847935016485774
P 0.06200743201551064 7.3306396755340035 11.820540865862009 0.6330292524576712 0.5518371570583722 -0.6178862261686455
Ni 9.163143897276793 7.778582673199571 3.917387466600697 -0.7532162410629286 1.2484320500828305 0.7411184293581301
P 7.114569225632861 4.908977473338031 1.7572360410144816 -0.11046153378737748 -0.15818172268147596 -0.2819651703887402
Ni 7.316566513084 3.9501061749942026 4.634272874547604 0.4980208825688649 -1.3723463669410043 -1.3118567941963795
P 4.011697175254257 4.050895673306876 7.0446560970098675 -0.9682540535015002 0.2973843331572878 -0.9575289537745123
P 8.913489341740338 6.967340150305513 7.781472598038214 -1.275647691265674 -0.10349487266155724 0.0668957333812848
P 1.7420046777446163 9.066221265264781 4.754797334021177 0.2762316103390727 -0.13287795380936468 -0.2597076445421205
Ni 2.733149437136274 6.5758199373635415 11.132497075121092 -1.1432302220324955 0.2435711439915741 -0.5712461577126032
