# total energy = -340895.9960417813 ev
CRYSTAL
PRIMVEC
9.01449795993559 0.00000000000000 0.00000000000000
0.00000000000000 9.01449795993559 0.00000000000000
0.00000000000000 0.00000000000000 13.19362896379009
PRIMCOORD
 96 1
Ni 6.321326409399399 1.9847670443635743 11.350623785267118 0.3498384371919459 -0.4343202590861101 -0.26898752718214963
Ni 4.581654544639328 0.29278908435344625 5.921234152406565 0.4749663147422465 0.11887392622078884 0.4604200414969555
Ni 2.764367854163483 1.5135702319374205 4.891524299348901 -0.03655928718127252 1.0516642395980402 -0.2954099830397364
Ni 3.324348455030363 4.262252859998065 4.824342853340843 -0.18349089087022594 0.4235614779077092 -0.05183241129025911
Ni 4.954629389469772 4.523493005090179 2.7030972143368235 0.9691346563342406 0.6603834761009079 -0.310994981962187
Ni 7.268299399113914 6.087156801081322 2.505576046663053 0.3153833408378698 -0.12447867400207592 -0.04539591163629601
Ni 4.984845985962137 4.411064189024311 11.484235769619803 -0.6335375595526572 -0.016263770157030052 0.05505708887514389
Ni 5.729137008035138 7.801939637525337 12.582499976694411 -0.8356175262789801 0.9172019720206913 -0.8005080841703568
Ni 1.9613473791824383 6.27921969036126 0.4604434180479486 0.3223014081139417 1.5019286807182326 -0.6115736536870564
Ni 2.9400604155108025 1.7200292741404815 0.3848189934376391 -0.39943270318030566 -0.7250719174182287 0.04053369844798826
Ni 0.7812729991344358 -0.0451635352286406 4.664027222272962 -0.6458544292467975 0.05359567383826899 -0.1713938504963758
Ni 8.66987351087796 2.329796946137235 1.4172070537798742 0.1082508992893039 0.1394278391127405 -0.14364007742187518
Ni 6.903753109689307 0.796776132382518 4.8763781402121245 -0.34654176871854514 0.20162796679056888 -0.9573145237708609
Ni 0.7702924394126724 7.554491674006408 2.2588149878734556 0.10239495472915912 -1.397787175611612 1.2312663369368215
Ni 7.529187978793379 3.912517390393552 3.734892120726434 0.7890219379076283 -0.6287257399863108 -0.09456028917608877
Ni 7.462796202789121 3.8600530134288826 12.536282646677597 1.046930581567797 -0.23905294440624636 0.3592353050258135
Ni 8.008182331782152 8.918358141639317 6.803109847995193 0.729239418532357 -1.08335899959816 0.30107000953899116
Ni 6.884633359939812 0.8031088170590953 0.4934653262433052 -0.18501915458929427 -0.9727575977988085 -0.8071561856144938
Ni 1.683015746336885 6.6676814423438175 9.22644933594079 0.21371986495809642 -0.7898680879580073 -0.2791359284700612
Ni 0.10212885092500364 4.766866415621474 1.4284877962770544 -0.265435291054517 0.09310761588996223 -0.16194813170244368
Ni 6.245090801840945 1.9243158223833214 6.969574267985342 0.7462673205489212 0.29657700676464405 0.46394219571760104
Ni 3.565531342605916 4.448654644684564 0.4753732292384786 0.49199370253817853 -1.1948104081026327 -0.20889056189025312
Ni 6.193257439719494 5.618429961041477 4.613363040511016 -1.0562436314386068 0.6116662134008628 1.241876765462816
Ni 5.1382096363573115 2.9450814907632634 9.284501800067043 0.08846883156637021 -0.08550126429761404 -0.23487695865168579
P 0.33611095768966726 5.4130075860808455 12.37411994501864 -1.3744078774557233 0.468892854854657 0.46751268667767876
P 4.037647633803616 6.214847161855298 12.529698457513508 -0.5139840907663406 -0.14450062564995758 -0.17001059699560397
P 2.4447858795670148 8.522252095556066 1.3686144036032337 1.1690204436227223 0.11016225737940383 -0.28162835587461177
P 6.394668363176813 7.8865316845075455 5.811899111972015 -0.5369885220813139 -1.2602722372508681 -0.05616883388208391
P 4.714077516737436 0.9689683642495315 12.520608237972068 0.8896834548854484 -0.5135858268866574 0.03876195125954615
P 3.7680690782832675 6.106096260875613 8.033151589128275 0.007146381236794144 0.16706334144182197 0.4888464151584484
P 4.810487570283335 1.1803583367274504 3.7783654376250273 -0.2578348529994398 -1.311924157099205 -0.15162900916462274
P 0.321390282847175 5.616527902014065 3.5351804300969225 0.1421596362216068 -0.10044785830511734 -0.7443245950002535
Ni 1.6506356703820584 1.263985832449312 2.581835091915684 -0.5441040500801726 -0.5759466485120661 -0.19243138789296535
Ni 2.0125226829673912 6.412940750136845 4.815819645708525 -0.09436051446045683 0.2247229009368194 -1.0288562405645894
Ni 5.548991284794253 5.42241872174255 9.143211266522174 1.0277573510734557 0.9098373041255041 0.20523573874648526
Ni 8.519475630245909 2.493869819871589 10.103324689621807 -0.192082746304295 -0.9861322193335016 0.6061131447931174
Ni 2.073794224243827 5.186626503827627 7.00026232271057 0.6960575324637496 -0.32579887974423893 0.00022265753376735846
Ni 0.4736830109084313 -0.03068715327545125 8.985679312362658 -0.12333556153656823 -0.339325453475764 0.48956401005076333
Ni 1.5740575119087141 0.9614592876152412 11.582158455889871 -1.030215068585329 0.8303940730965118 -0.7028249330945702
Ni 4.206984974229957 6.864449899454607 1.7993604602298066 0.017846798373433784 0.5500206726749237 -1.6062697034301692
Ni 5.438392411773717 7.785920875005369 8.060554760869666 -0.11281100785616055 0.13008393600399534 -0.48292876412243285
Ni 5.262952256363684 2.9639758780687524 4.779840982247805 0.8659364889774958 0.2356773430657941 0.5624221316630701
Ni 0.8687307549546287 7.253804086715429 6.69633402347478 -1.0470889615225323 0.6182294684406772 0.9876054614449185
Ni 5.107713590434377 4.702043162227499 6.798017558210427 -0.007848292399825194 -0.40793868376878784 -0.03790320280367666
Ni 8.10598061798313 7.07702978563688 9.355945300616145 -0.3781563103000326 -0.276114368034918 -0.19794280462949781
Ni 4.592237565009865 0.28809433391990674 10.224693183116518 -0.25715942419897003 -0.05245256137276128 0.16901532296187022
Ni 8.268566099587042 7.0283064252427145 4.79360161307883 -0.42527177573059666 0.913150170548821 0.041102683577580824
Ni 7.182003612055019 6.159462087616307 7.105586813091583 0.3158433111934238 0.559622714541062 -0.8019476448303609
Ni 2.4431542554724093 5.252170917042423 2.459820258931564 -0.6607159197396621 -0.19951220599914674 2.051825940441415
Ni 2.2816955860885284 5.190827259783905 11.439799704360414 0.23018906625771324 0.02921364544947872 0.8243715210515158
Ni 1.0173581882265663 3.3566113425143063 3.7271081019104564 0.33974171507757617 0.20856403178876984 -0.08929621256367201
Ni 3.627992797586705 2.678757168934366 2.7097994934215714 -0.028586296278124965 -0.24892649476621645 0.07106580559857438
Ni 1.03462996593521 3.2711178457560726 8.193876478394472 -0.6355759301389248 0.10271865661716502 -0.10801075825403979
Ni 3.7193367033913427 2.7453021914005493 7.056163927671223 -0.37649794876100323 0.1432587828230565 -0.009523366109402954
Ni 4.284518669465888 6.84849423841896 5.920350731626059 0.00900451749145546 0.1445430488521188 0.08192048892489118
Ni 0.8477269751732406 7.516432464462623 11.8152508317256 -0.04615850083393341 -0.23159905923136243 -1.3490935670606508
P 0.1315052962261142 5.593270497792614 8.028111583430517 -0.4101971407856613 -0.04437466946063326 -0.3429131708270224
P 8.406650176278589 1.5985859603143608 7.986314963115332 0.32410889363632567 1.3098109674109444 0.4279526649968694
P 1.7297108447349925 3.2136233790411826 10.421317408263144 -0.1637687298509502 -1.0311460650400306 0.457839939474605
P 4.028002121200146 6.234183259551039 3.8008070297991763 0.1715440029209949 -0.6306872345880558 0.7873509779631085
P 6.748541487253281 3.992061318630019 10.340730502635816 1.2408493526395663 -0.0750211907018966 0.25833493256430995
P 6.06851481971312 7.646854218057955 10.181786878127046 1.1058900908211406 -0.8719526132645886 0.32065513075977037
P 2.5394200770541446 8.444267675432123 5.867470786314643 -0.5298812216125713 0.18872899934071366 -0.9694997529831432
P 6.819647845586152 3.901059963740271 1.6177760231463862 0.6655819895827118 0.753412673344451 -0.5460658017922337
Ni 5.407616916420215 2.7732381199595717 0.3697620778286895 -0.7879382179251462 0.5975313166613774 0.33382226426934763
Ni 1.555767095953162 1.0654234902842323 7.076574553499987 -0.34824923832795507 0.3705327323165038 -0.9829481651785654
Ni 6.860826071354985 0.49582081450805915 9.100780025564665 -0.5171360061317609 0.8174308280676246 -0.33958590622600227
Ni 2.4522498837125037 1.4988315280994078 9.243535414995574 0.8007029737899822 -0.23130389658844683 -0.26251014698792213
Ni 6.5864968755149835 1.9272996211419648 2.588366095542987 -1.3924642207368019 0.14113762271499564 0.4541036123606244
Ni 3.927914152568063 6.849269485226341 10.386406962787015 0.5767280067627809 -0.4737219008121842 -1.0988702078598818
Ni 8.109460214118588 7.109103368667858 0.2586268421914176 0.2076492332839843 -0.003314409085213647 0.3900520332963541
Ni 7.456071387459972 4.007385964822449 8.162673695847133 0.6589716833550459 -0.6479820171127615 0.6461606476333065
Ni 3.264212740471719 8.261985516222058 12.113888522225896 -0.2623543381363482 0.5057125947861678 2.6404147031975236
Ni 0.3041798037233011 4.789537877488509 10.100012763144692 -1.3190008614403284 0.7446305562764467 0.4141728376039577
Ni 8.802675091881998 2.226436714818181 5.795538699986933 -0.35220642320349016 0.46671204515325426 -0.1121137246788198
Ni 3.582911294287683 2.3540910176011156 11.216972137124287 0.6363158936287429 1.0940506749840513 0.5488726751134095
Ni 0.9442866693819604 3.1585177542327596 12.694368992449368 0.21668306135147844 0.37665452894352547 -1.1526522866773439
Ni 2.9781556830456295 8.336977123089598 7.9770129028765275 1.0060109605352996 -0.1635715262384796 0.5851645675659084
Ni 5.591305337280878 8.06060163625802 3.5506565198517235 0.31501670152707034 -0.5434522754287866 1.0356683783904164
Ni 3.0990941849971754 8.464009425527076 3.5764100385029884 0.2619524747122392 -0.3692512945009189 -0.07404597127282087
Ni 3.270703178859101 4.4313828669759205 9.514400339346311 0.20833854604152507 -0.047768011412898374 -1.7356959512455077
Ni 7.147378926157889 6.048764055120408 11.474815619460339 0.4200719766972121 -0.30189559076408007 -1.32895334466735
Ni 0.5810051139931164 0.1319307805203981 0.4200945260730588 7.713309483857684e-06 -0.3101701720680465 0.8199515376069493
Ni 4.708840093538729 0.35206481582576193 1.6247820908056545 -0.657730354748777 0.03909825155304234 -0.3894449958399745
Ni 5.856286498943498 5.537110176746241 0.2803211325012411 0.679304738485443 -0.0711478237894194 1.533267085820198
Ni 7.773796375517828 8.785177951729349 11.149882638993384 0.42072812222397216 -0.5340260970188804 0.9033838351906764
Ni -0.022255893520287173 4.773888709376711 5.555955885763825 0.1863450724895694 0.07738403450711835 1.3224404832494967
Ni 7.889281106324423 8.822092320057582 2.6101352061842205 0.08706500924030812 -0.6872437908268616 0.176540941914954
P 8.550016748657644 1.5925732903082725 3.5442967916818655 0.870705885341681 0.7946863352822572 0.9428813790646666
P 1.9557133180822808 3.3550698633973033 1.4910384947856696 -1.2757153112788158 -0.5721876956902662 0.3017446670085126
P 4.587991736564785 1.1835674979301003 8.23897240488991 -0.03090748821213387 -1.545729737063583 -0.7822301117967754
P 8.448964228765213 1.4120669871569784 12.358999927925368 0.02003737826684936 1.7533018372527287 -0.660307885667966
P 6.366101419774573 7.720691969212182 1.4600601732325622 -0.42193576937882815 0.3925611728714529 -0.04067125246711705
P 1.8252735354914282 3.198028297915946 6.064715208907175 -0.6438541109873169 -0.3381887687681595 -0.8049416944616783
P 7.005562847393597 3.79604106483333 6.034897954665587 -0.5954595217340133 0.6693429992870408 -1.2758088994338868
P 2.299769654097834 8.455869334049568 10.204282557287755 -0.599194049075781 0.6521196934302189 -0.18609387571071176
