# total energy = -340889.8340503 ev
CRYSTAL
PRIMVEC
9.07390148808165 0.00000000000000 0.00000000000000
0.00000000000000 9.07390148808165 0.00000000000000
0.00000000000000 0.00000000000000 13.28057203182431
PRIMCOORD
 96 1
Ni 6.455981179844222 1.8449782657713132 11.388409817901252 0.6167379714968153 -0.38349674867633954 0.9816286750361934
Ni 4.688893285459932 0.49402312860481423 5.75078023176977 -0.11788867948938406 -1.5927228179836697 0.8507726367528639
Ni 2.99934188030003 1.623674879499395 4.4716214336716185 -1.0773523883927638 -1.028185696860126 0.6922816103610852
Ni 3.134533940329769 3.8902175399899273 4.488076046844175 1.5766444243645685 1.6682034648204882 0.18690505875809746
Ni 5.136372743166261 4.5579387374802565 2.694787261572185 -0.3353610695113773 0.5664762471277857 -0.023190064963218127
Ni 7.3632624536380025 6.231910253582433 2.599619274136927 -0.5847876438424638 0.14697402689111463 -0.18991067835364067
Ni 5.099224189990762 4.551605154159177 11.472302575200732 -1.009748316090545 0.6076488647113535 0.586389441111945
Ni 5.733462690554469 7.856301971308713 12.665190346388437 -0.2258960953093142 2.0163683709647535 -1.1282077804817343
Ni 1.9438112020652871 6.582407850922438 0.4066913625966108 -0.1756017179301363 0.01619846413673339 0.2176235708878768
Ni 2.8152777862196716 1.374559984804687 0.37263973203928463 -0.5127718156257943 0.37337611530256987 0.403590176992105
Ni 0.5333031412675928 0.06350370039050468 4.6608703551297195 0.20808657793171903 -0.6068237977068969 0.0890074776786596
Ni 8.693986419783473 2.651593675146682 1.4097594639151885 -0.09343363177081328 -0.6200760347311127 0.26786601198319676
Ni 7.002756342826435 0.5137116803097964 4.724085505449149 -1.322312956532697 -0.2214084918516058 0.3233568459616496
Ni 0.5534254254693479 7.538025798572077 2.458180740241528 1.2195063681874159 -0.9521517486229989 0.6848220687592464
Ni 7.494461996961045 3.921268431286106 3.7588002230283384 0.6840597366719252 -0.09452275106993399 0.3345105485856239
Ni 7.981794030521498 3.9602136169796185 12.5420792789571 -1.3018590595537192 0.5743533358830173 -0.42547540710097054
Ni 8.408049632371087 8.882950420731142 6.616593775223535 -1.5613980397284593 -0.06992912089096989 1.3980705111799858
Ni 7.282486581540229 0.7041138946620369 0.36965260363054653 -1.3760549261408432 0.40244192232027465 -0.5750400775373967
Ni 1.6887166062121388 6.692401686191952 9.202560457003878 1.8375625442750223 -0.13996777077661055 0.30937235875709945
Ni 0.23460481863634483 5.037948132444562 1.3558532292534882 0.10829512226367802 0.08431341463709996 0.42238262710825963
Ni 6.103868428018324 1.9356083950133451 7.001093096662032 0.7991608261138431 0.25781608394636246 -0.2805749749094329
Ni 3.3953450941947794 4.259389226835349 0.5545950513863782 0.8639582822052024 0.8081095506666987 -0.2366703031066827
Ni 6.028854483440444 5.586755849386551 4.828829181249358 -0.21976684248312478 -0.2305240809996288 1.072261861243734
Ni 5.128405857556078 2.723477123670449 9.425222206346234 -0.9502738148739958 -0.33132932264416487 -0.8186950394920287
P 0.2660731094064056 5.679690749636539 12.263931528683417 0.7576351960662306 0.43776193777780736 -0.37003059586910464
P 4.260704942568238 6.222591356632938 12.816017646275698 -2.5333493395758886 -0.554351953060426 -0.9788151168467982
P 2.3838863560610126 8.534802963907124 1.5847042868813854 -0.6800637281386547 0.48486223369971976 -1.4079620592620847
P 6.451417007336337 7.858779146447186 6.282813026812505 -0.7034790217388014 0.20784309446234528 -0.4420091430899355
P 4.962317162557464 1.2091881280329575 12.80514076042043 -0.41401497186985475 -0.039714802091118696 -0.07646949311264895
P 3.877940551116833 6.170724935052295 8.356122415649684 -0.4946848762170964 0.2815159986664636 0.267586533069565
P 4.8695183708315675 0.876094273973511 3.626512718902722 0.688230580220163 1.0034845945690203 -0.27249811143856945
P 0.08373487141153335 5.558182133228846 3.6581869872392416 0.8228658830402668 0.4067768022502027 0.5121184983125115
Ni 1.3107250870055585 1.0902474257797983 2.755293852262185 0.2569100271923253 0.7472242851455517 -1.7176565772452936
Ni 1.8154790116497828 5.979646715030397 4.9308906117347915 -0.11090582041364772 0.7811541051237773 0.42322260651105176
Ni 6.197284245053439 5.587908234890529 9.326016332696247 -0.1372215754900411 -0.22541889856257952 0.7417444929779032
Ni 8.75428249595621 2.072379313922551 10.210090195742191 -0.7825530423538329 2.7097421859487527 -0.5424464598720916
Ni 2.3838772821594065 5.021778439782438 7.209611355570912 -0.513417162519277 0.13659911141469377 -0.40492432242249615
Ni 0.45142660490499503 9.163642493015184 9.376681369704238 0.7715188960268584 0.16535227228798619 -1.8388185281693106
Ni 1.3978980597356545 1.024552378151413 11.506978490188562 1.502655274471612 0.8880148089337738 0.3570616944132625
Ni 4.106049363593349 7.180731848929081 1.5744916106236855 0.3033778317365614 -1.560089862439997 0.48803163256663695
Ni 5.368165559694866 7.682573051157736 8.294712971749874 1.4324189067528685 1.1371894151550543 0.03956413544586735
Ni 5.287008583729634 2.906543088574133 4.790886661683322 0.3074897970224059 -0.19620782421626207 -0.04990176992644954
Ni 0.9836925992190072 7.30452708854152 6.974278810025756 0.10604566410786898 0.2234347782530152 -0.9397104375358526
Ni 4.8439390422038855 4.494494017450192 7.563245800696157 1.10230982966905 -0.9798525569723769 -1.0815756824454923
Ni 8.39411211950407 7.210566837410038 9.266572295884325 -1.3347187863962173 -0.9084931313927838 -0.1059163376188563
Ni 4.429034891263566 0.47711844991259306 10.691511489796412 0.60811397727323 -1.1739135100489653 -0.9174418559456394
Ni 7.869114320376569 7.105636239236745 4.844115075895044 1.449219780360291 0.5293119793726626 -0.1546621395639917
Ni 7.2625784414163785 5.946917151937085 7.275256496740464 -0.3956428971205702 0.8254727245354946 -0.9138099156200068
Ni 2.5569347335915285 5.499455842033969 2.7187986200023277 -0.39656643737610414 -0.12585935639968648 -0.8771123030886571
Ni 2.512127807460456 5.532757060928468 11.500856328774905 -1.5857942091846366 -0.9504674189420406 1.2184090213581789
Ni 0.9975393730699624 3.3442499542506585 3.8127590863193546 -1.4638457578035822 0.4133629401081526 -0.5383337232552987
Ni 3.905742985638017 2.4324317296538114 2.3055341230822357 -1.1784291385311318 0.7946328563365025 0.15570497900620928
Ni 0.9844911025603466 3.231960421874793 8.219638232031231 -0.5428202982717425 0.5571667968014018 -0.38251047350367023
Ni 3.557259794454573 2.5053677507638885 7.004718120353681 -0.21380882512747693 0.4621280253269977 -0.809227980541858
Ni 4.003187614986253 6.997783844746276 6.1914823923664795 0.8807157041691994 -0.9343671709460684 -1.4359698573289204
Ni 1.0433353544761033 7.6847235658383894 11.345685352188786 -0.4575843718203732 -1.2143834451385538 0.9929597837782964
P 0.2381263998496841 5.5576014035260535 7.948157077267573 -0.37418729834995557 -0.6622218148612273 0.34132628595587666
P 8.508116619283495 1.6247093042824938 7.971118585281886 -0.6106513989831032 -0.7964606535738606 0.39826902188950764
P 1.8202428099930013 3.105905780762427 10.627884384344062 -0.690419874561998 0.8043768230971436 -1.2554275075640573
P 4.11055001878999 6.189725685015532 4.1508299754097635 -1.5422011550850343 -1.1552534717456169 -1.3147400292814455
P 6.661623011943958 3.6916533511429726 10.458636156806193 2.538109479968693 1.7560086946609306 -0.9659840265204009
P 6.5427911965100725 7.970887200790929 10.294714309511125 -0.6421553831286554 -0.8751778050701057 0.336500325322143
P 2.4493454822476384 8.76816556541359 5.767539728036293 -0.46365654615638213 -0.514792702710565 -0.9435699204912589
P 7.13184166707525 4.313515049915918 1.535486537179573 -0.49980754215564244 -1.313069840667874 0.006028208471950909
Ni 5.583933865987045 3.3568263818767554 0.1972430287731023 0.20026991010077766 -1.3184177352433486 -0.005231166491952282
Ni 1.3255427683283696 1.132894763328612 6.888300870137187 0.8126323782377166 1.024604664377087 0.2892701886905857
Ni 6.7579424774930335 0.7246889665539378 9.149729479682504 0.051946311160304084 -0.017661421835505068 -0.3032328215182648
Ni 2.6305331495188535 1.719513428263346 9.13130945942206 0.5065592590571792 -1.1274230797969098 0.4891428633529447
Ni 6.26840548584229 2.3225104855971455 2.3397980829371456 1.1301206812337312 -1.0118527640280572 0.5761924459742852
Ni 4.156718030161982 6.666051075927749 10.516805310442454 1.2485660045575335 1.8496806676947952 -0.7546115787485584
Ni 8.450724191624719 7.1136575682565635 0.35167720454880186 -1.285933132352082 0.4483026894081311 -0.503131464322553
Ni 7.326032235348049 3.610414710063286 8.158002847981429 1.3017415601392484 -0.13925686075251503 1.856264748670216
Ni 3.190492691534776 8.274490874630452 12.470988889433709 0.3829128511484115 0.19004771815213722 -0.18171991501273219
Ni 0.3321302057088754 4.827252137150212 9.991173245592684 -0.4147917021348792 -0.48837513194898474 1.5562396354559713
Ni 8.306022682711756 2.22715285361832 5.825682567357895 0.5381169792588023 0.7454710498998709 -0.07441698145899442
Ni 3.6524450223028824 2.5155123727595425 11.582770975524248 -0.06149461697037151 1.0787132732960327 0.3377761067107731
Ni 1.381029676649858 3.5262089031583943 12.737728930608165 -0.890590282970434 -0.027744259992803832 -0.6194731110397912
Ni 3.069483139715419 8.289480960083779 7.7675809909646105 -0.7420435122755608 1.7073523671058077 2.2034729473281662
Ni 5.551213376795338 7.821948179827902 3.765772609022489 -0.12119614659606223 0.1611472330677031 -0.5512157214242894
Ni 2.936886215545033 8.251261686518758 3.646592355766928 0.477214744456791 -0.58987045768201 0.9037671866720242
Ni 3.33643732496778 4.382150041664689 9.559661132542665 -0.27865950305427495 -0.4208718468906881 -0.353349792779314
Ni 7.086435863438172 6.2134811594203825 11.503246394457959 1.3327277241081177 -0.18889406416366825 -0.3743927294925423
Ni 0.573290010865489 0.08114427250298309 0.3444770636243372 0.4804149965616436 0.15553914285230633 0.1495595282301037
Ni 4.817416027809165 0.30875129822068004 1.43339879237948 0.14995547811694176 0.537762681243177 0.4984497425761673
Ni 6.124411741254605 5.748080746041945 0.34630001045700887 0.5467232328705746 0.1966667661305516 1.1567380267109435
Ni 8.194658688299715 9.112374948940547 11.363668010391816 -1.0983678143021665 -1.170599358074068 0.4784177636259567
Ni 8.833397844060062 4.624414140646769 5.922232510007767 1.155003817628656 0.4993992509736303 -0.29218633389611615
Ni 7.9037947723152 -0.051960790157346004 2.4899076372073634 -0.10733970032894416 0.14671845923688281 0.4457354429015872
P 8.27728563632514 1.8219577773965598 3.592726953662455 0.8537738854730329 -0.22446476217942632 -0.5664304814915149
P 1.7462905119030374 3.387750238550448 1.606444447739514 1.1795149153961428 -0.9665393848032386 1.4521094432032604
P 4.635048753329154 0.9372251490940126 8.169092063134281 -0.2909336924359377 -0.719102072988039 0.5827341037475448
P 8.647727669395419 1.9608338414783881 12.441558596964386 0.3200419226558036 -1.7694869316530237 0.9337202813906886
P 6.33746695096655 7.847981203535891 1.451114677875289 1.4425400543472704 -0.6556752719919612 0.4889353753278289
P 1.7011115558061132 3.2838631390618596 5.962897200055641 -0.17157794148272387 -0.7290285880731315 0.23963607060322598
P 6.732308705455715 3.966265909350908 6.178600174256256 -1.0998258869049318 0.025649068026671957 -1.439212275525618
P 2.464371863307391 8.657872291391072 10.005596212195629 0.6368352564673226 -0.02625302015925801 0.6963624652986782
