# total energy = -340874.3675138681 ev
CRYSTAL
PRIMVEC
9.25736135953485 0.00000000000000 0.00000000000000

0.00000000000000 9.25736135953485 0.00000000000000

0.00000000000000 0.00000000000000 13.54908409810673

PRIMCOORD
 96 1
Ni 5.850846887328607 5.273863315664801 10.452901625773956 0.025371903105885336 -0.15071189666699206 1.2844164385972396
Ni 2.8980540543206152 4.669959336691188 10.739438256852134 0.6179142511931036 3.192510770344237 -0.6472415394023111
Ni 9.097088823264237 2.4393795629248065 13.161445455142283 0.21387773069219937 0.9154986161763393 -1.229494589748379
Ni 5.438348115211105 7.789662397964593 11.362262431307103 -0.9061919940634329 0.04032029688560152 -2.0035434512859434
Ni 1.2610563014293472 8.454220609638982 3.967266349957646 -0.6063039206476849 1.2244004630549237 1.287019166327409
Ni 0.9796510258435439 1.2525210141048486 1.4023301184282375 -3.0617958856244623 0.8486041683466352 0.26299248594097935
Ni 6.390088196061846 6.3841634846869235 13.063552559977811 -1.4766850756600953 0.8191164433001635 -0.3649814634809714
Ni 9.00291368448753 3.2934267076199792 1.7087561907392632 -1.8773313395325282 0.6254046460328778 -0.4775926966215
Ni 2.430825760877261 0.1213223514438366 2.376658161395874 2.903825507622844 -1.2642235085891325 -0.15097080675533353
Ni 7.75438259319923 6.739951660112583 11.137265962427483 0.061132605645262454 -1.2487711785898041 -1.1727464863240578
Ni 1.1602899212480369 4.1903817229757285 5.438561960262294 1.1706353535183258 1.2432484489993623 -0.7421514986083348
Ni 1.5927197927252408 9.025112837420444 9.881374342991993 0.14004593231271364 -1.8946675168181302 0.44439538393392497
Ni 4.8359160567197 1.629471517972811 5.216587094183883 0.7103916896982346 0.6174910476127559 0.8011832558605105
Ni 3.2468529217961692 0.030686301977492624 11.531340733641278 0.9747723142359921 0.014436230029988041 0.200822440170138
Ni 4.138744160398664 3.673395111344543 6.4927486324108274 -0.5994262196912451 1.2937806534209588 -0.6203678549399186
Ni 5.961629732678146 8.635424204096397 5.143814975249086 -0.7690046142454369 -0.6100189076054269 -0.46836423604469657
Ni 4.816929208235376 0.6708819153309665 1.5106412482510516 -0.39292446974814266 -0.6942703586563398 -0.5678011365867964
Ni 2.5152621553314396 5.004335234913414 7.879700421876531 -0.7407024248666341 -0.9851426017267229 -0.13450340522792964
Ni 2.228635727846485 6.033096563638156 3.2501411366092516 0.2830622601076609 -0.3925354618398401 -0.25642588846705516
Ni 8.282107744197463 1.1651685507708252 7.842101648049576 1.1086290870188584 0.4721789818050965 -0.2989917868537238
Ni 7.43447595103795 6.3834136384035345 4.844881811355032 -1.0549375110326733 -0.06548625462826786 -0.2209698616522904
Ni 8.978687169381008 1.0386759629162157 4.456794701574519 0.7286830318082547 -0.44725599331117166 -0.8731178372172833
Ni 8.252715621360931 4.330204911423915 3.6807713770063226 -1.541157030091236 1.4085950648603935 0.879019290303383
Ni 2.2267287113726817 7.413369166764785 7.818187106026391 1.2638123891936428 0.3709801042665675 0.5658087887471158
P 3.9288057157728713 6.523820040627691 6.632561637761339 0.2350343101651565 0.2751754011604164 0.06684893930374938
P 8.06758690561763 0.5669874726909274 2.08172232620759 0.6811610749678914 0.7326358458084156 -1.0162511502060692
P 5.916666727759393 7.154829574141576 3.0765230241840427 0.9739932699781227 -0.8326782411449983 1.515877172478525
P 2.177951673506322 2.0114024823403183 13.338436950106589 1.0150794984954712 -0.5246207445445804 -0.24158033881379037
P 0.5053723258640312 2.9862859669993536 3.7014069615779497 1.2680436536661712 -1.7627899792488222 0.2542234814990976
P 0.20253810982405276 8.013783120444108 11.59194590232598 1.3732146284785705 -0.4111260803578339 1.5051574720681755
P 7.54640670921638 4.967361332989284 6.54176913888525 -0.0007443343651922664 -1.332382424953557 -0.3601475324274378
P 4.144085657997619 0.3778132899619357 3.6629139266278434 -0.15667994132496887 -0.6500368427592612 0.4889734276546159
Ni 3.3297988810450936 8.88365109598263 5.829764172195403 0.8546156646480378 0.25552368836775996 -0.3271204267691399
Ni 3.78193767520544 2.7705338993369177 11.187613974544348 0.8267863011405954 -1.019677916499431 3.0212763282438613
Ni 4.284519832306343 2.8756419820726635 0.4854106772113018 -0.5861379872227712 0.4272466400687803 -0.7072606002684207
Ni 1.3317269992983525 0.6213753973765695 6.640961767607597 -0.2418191942974739 0.3093073098471189 -0.6727299134814027
Ni 1.586165580766732 8.86400697483015 13.532568449931317 -0.22480311935545155 -0.11025430287257786 -2.535963380159968
Ni 6.144527424294329 3.1214804746858817 11.472497240854464 0.7370949100210338 0.2819039781335016 -0.04674676923723563
Ni 6.563348974332256 6.928718518934548 7.0668365013901395 -0.9361952252937426 -1.2358454716670715 -0.2740199473997345
Ni 5.4457354897067125 1.050025488143803 12.502946186584907 -0.8432634728600121 -0.5026000172991151 1.2165488282209889
Ni 6.28762771872177 2.886417550885805 7.035673445294196 1.189210802527668 -0.21505246772659092 0.4034161133080858
Ni 1.9896199106759525 3.276328360886412 1.9728826010417944 1.8279682157183679 0.6018677392532022 0.34260309578577125
Ni 1.9169218506333405 4.107343190111571 12.926301066560802 -0.24594272954754415 -0.8316827100009482 0.3152020780649991
Ni 5.902780685474417 0.835931413930193 10.16597248256719 0.08804922753044836 0.16732148019921506 -0.8357681929242317
Ni 0.6659181180821637 5.484468290320272 1.6076935749892067 0.0873488590293141 0.1951932669088187 -1.1183481140788352
Ni 6.932791758004807 2.061503322904512 0.9765636957755175 -0.3474298277504533 -0.3378031032939666 -0.21142309850411978
Ni 4.2742534183769845 1.5125973287409284 7.4501403324715545 -0.8583442784525347 -0.9939103206170237 1.6468465964112666
Ni 4.431082379943505 8.43367852441874 8.69948792304621 -0.7004749448051549 0.6004492616391208 0.5246451700246125
Ni 2.2455026405419694 2.0401743619547887 4.797690559517617 0.5456639383681248 -0.6003132502818888 -0.9701600122749614
Ni 0.26630003878820624 6.271482880225104 6.811774899491241 -0.9931037655553284 -0.9265433040262753 0.2660112181626451
Ni 5.891162696762654 4.4061060185535945 4.840288308567162 0.16579887290710155 -0.5668595986091334 0.4873016963791479
Ni 7.529382421374999 5.869028345360402 2.2059672266843378 -0.674352022465858 0.9565547627867009 -0.6536489855905516
Ni 4.663960566424079 5.059647970015235 2.812532697095904 0.019565066616121143 0.3443439897362779 0.07518111331852857
Ni 4.627069980753658 5.961157607240457 8.678405207913007 -0.5532790317112214 0.4170185345828689 -0.8106472294868878
Ni 4.23029020850275 2.5425435997406556 3.0434770207542567 -0.5064139917285666 0.9347037283498806 -0.5113484529157064
Ni 0.9253612291900488 5.786258275980421 11.68090914656506 -0.8066787317574431 0.8411901352707511 -0.16314960820971258
P 7.5411577852326594 1.4662827490397714 12.113260330469316 -0.5544596822828838 -0.013942064002388893 -0.5075316502727776
P 3.4982736034079474 7.108153957341011 10.337233670748562 -1.0494651750641926 0.09527557007555851 -0.03141091021111365
P 8.481992694208934 4.7140151201806555 13.06269903124536 0.5890559322005146 -0.008470242254540251 0.16551862266252138
P 4.835897541996653 8.2663609722463 13.29697693078826 0.6453589776676175 1.6655292604224345 1.7724735250851735
P 0.39162434761857295 8.453813285731956 7.923518291174848 -0.643726327160201 -0.24769853589638632 1.0296815646793622
P 3.7483334528757983 1.523993140776132 9.615175209444393 -0.35155747676558163 -2.341893428222315 -1.0237834540273723
P 2.2703679135936 2.6569738455303824 6.926251432088584 -0.3538107915761326 -0.111866127444388 0.14005313140156528
P 4.643585113711257 4.840526222758312 12.574742579615148 0.6236876633417711 -1.298333562898964 0.05100323052074442
Ni 6.455047101870965 4.477748739382548 0.5337581735029795 -0.18347957801631629 -2.392598667886667 0.8720258897046853
Ni 6.542094072274718 8.101237414754888 1.3281610636395706 1.0318312640325131 0.8506235127695092 -0.8899156255009125
Ni 8.474105422191066 8.61760378316401 9.860481403770018 -1.4199966218291158 0.30255842115905957 -1.9143449406423998
Ni 7.831746363449594 8.402064634816611 3.5578400961297336 -0.5982782221297309 -1.298199351313945 0.8972967484563321
Ni 8.300363261121445 2.899007562557517 5.56716985522498 -1.38867750000086 0.6269748187334752 0.5631379267831721
Ni 6.462360417474386 -0.19324371885464206 7.629299901504622 -0.935236203814583 1.3449592331773028 0.6100250782530139
Ni 3.274652778450692 5.205108891631122 0.8554200114090809 -0.1213730384935587 -0.43494092338924445 1.2904289633399066
Ni 3.429380318951419 6.687953060436108 12.706114722728698 -0.7015897751358885 1.0840316001851524 -1.5859587597869589
Ni 1.4491473728601107 2.009523237951085 11.21308653051191 0.5766953537526326 0.37283001299111274 0.6428220701783769
Ni 4.791647353915195 3.4353142876878655 9.075935752183456 0.31488608948647706 0.23161217185748498 -0.575996270803079
Ni 8.485556778395411 8.357545983250978 6.06699517006424 -0.10565665619956642 0.5611468644950723 -0.30917824046842235
Ni 4.303747372190274 7.020301596484728 4.466659346013766 -0.2704193745326698 -0.7543601248593846 0.20569210955761347
Ni 1.4755123384785187 1.7021510632923762 8.862456366774994 0.4022981976535588 1.8063110424599083 -1.1764421900080901
Ni 6.3352661011207605 1.3975098102830463 3.3582356441724204 1.3910182323188947 -0.15983365646260214 0.13103730105620015
Ni 7.601441723472503 5.489587611242667 8.708619384452811 -0.14999892976036747 -0.5493966659376796 0.19965361667301745
Ni 8.620964205396975 1.6725552785023303 10.193165982041934 -1.3231704194369855 0.8601419937829058 0.1443746415950546
Ni 4.238955098888575 7.31238986726844 1.7169535843681607 0.16337277996411217 0.6951751298587964 -0.011927347565205264
Ni 2.05904086473931 6.936985342774871 5.421828353572745 0.9357442537992531 -1.2688041859812793 1.7134489669218491
Ni 7.318036857797663 8.651874535523332 12.628030729751819 0.5845192206724256 0.6579823228585829 -0.4130716341199789
Ni 8.544526171298942 4.083329594320086 10.741388782925098 -0.2363831108835671 0.4790659387329168 0.31423045818034917
Ni 0.25401181710215465 3.3827509889584695 7.459191254832902 0.25092758435664525 0.8597591565221904 2.063711636135407
Ni 0.6166476628466114 6.213105958459064 9.232820257919117 0.1481940153411448 -0.15093943929676584 0.5912290285924334
Ni 9.452784425074663 8.035445346408672 1.894406095936328 0.2017295253654397 -0.2227323528693519 -0.8141223325196818
Ni 8.657725188006069 6.8499476297326405 13.435448544454044 1.0501863695009335 0.040591291158801064 0.5650839947659494
P 6.268677899683539 3.5711197812349322 2.719504545411935 0.7883683634840294 -0.08237274597096138 -0.6152025086888953
P 6.988428500759946 3.3253923769599942 9.172066045713889 0.06914981952278414 -0.09516501263962321 0.8350498267009682
P 1.2344413870498094 4.012279344628625 9.644306274685967 -0.75215951766364 -0.36741681239534135 -0.43330313067550535
P 2.206288457129197 7.271185351128153 1.1394627092928773 -1.0507926356263646 -1.666251226190124 0.7902295850624843
P 3.287872290705989 4.144483724543121 4.3883994631679455 0.6535268581903906 0.2664675889737734 -0.3261536919804964
P 7.171798317813817 0.9171693899780652 5.833110708386083 0.3291379714198009 1.848018449501024 0.011298455731954735
P 6.3790441637645285 7.531233893679664 9.352973404602558 1.1102195714344298 -0.4970482342429504 -0.4847755875231845
P 0.19906752498896105 6.700274608623644 4.468474714608489 -0.058335759626415656 -0.5065314911430373 -0.6565785005325209
