# total energy = -340888.7057694524 ev
CRYSTAL
PRIMVEC
9.08084926381658 0.00000000000000 0.00000000000000
0.00000000000000 9.08084926381658 0.00000000000000
0.00000000000000 0.00000000000000 13.29074080390666
PRIMCOORD
 96 1
Ni 6.063573580452398 2.09010273091361 11.319112315475955 1.8984205561026595 0.4056419173148111 -0.38441463250491864
Ni 4.5567973579096925 0.5532498278226957 5.993552968643839 -0.2695043189175681 -1.703784961469524 -0.4288191267622228
Ni 2.425195146272278 1.6827721603781665 4.779549680055612 0.7006325534289418 0.015210646302167353 -0.031210364164533346
Ni 3.350370221787082 4.050040569771418 4.903379771727841 -0.15211674743431863 0.20718643471495285 0.03204571558163514
Ni 5.217047739631001 4.325035925298546 3.310058516135197 -0.2573496858329052 0.4008015585033743 -0.5434360774788706
Ni 7.019587219761084 6.021156933962049 2.5339864436279442 0.48712943246734164 0.32641517317199914 -0.43150798644829563
Ni 4.863539362148072 4.5497869423475965 11.277433033938513 0.15531160022253251 -0.12231946156722805 0.870887662335184
Ni 5.632841661596332 7.752920275632323 12.244666062401304 -0.02344820372061123 0.33208085609820875 0.01598583390529505
Ni 2.0503467732311553 6.2099568691324265 0.6819082070005809 0.3640918617871665 -0.4913213590615022 -1.1187610332465376
Ni 2.8419607190991947 1.5719585579115174 0.4096607164334147 -0.42347791705496746 -0.6448303588576573 -0.3277089522827582
Ni 0.8225296968798972 9.075818383256795 4.3296580775279585 0.4594504784948345 0.21802980518735995 1.2325626871507418
Ni 8.554332457758782 2.4523922895475065 1.5253383863386636 0.23693024163628873 0.17069219644366085 -0.22979337348119136
Ni 7.188500095241059 1.234287181387519 4.7741538394766 0.6664214547648716 -2.540164562725509 0.7670351492238919
Ni 0.670397322588 7.569005837317396 2.3218786928834345 0.5355101377635745 -0.5835740831503369 -0.31307371886808666
Ni 7.6967370617946465 3.8950395552255492 3.8310422706739056 -1.0315877805631395 -0.16721195120454427 0.1324902314526428
Ni 7.57093097734222 4.015878415179962 12.477281094834778 0.014971533708167764 -0.9142048370655803 -0.14948085247336834
Ni 8.129167099446194 8.611469160759697 7.499632690054923 -0.9329088412329869 0.6356846878026472 -1.298215549263861
Ni 6.979259168580686 0.7735103649553525 0.19801608899676357 0.24878765519550702 -0.5478946274708564 0.14696708491257915
Ni 1.636986518844376 6.803290473292747 9.041358376812443 1.4530347832310073 -0.040290472088930614 0.903608806717289
Ni 0.07222907432760205 5.007361851361117 1.5575953787734773 -0.23124373277447274 -0.6951720445350027 -0.511189815850655
Ni 6.321215433208586 1.8154706093534303 6.948093694216551 2.052402895990807 0.49185280608494003 1.9116499103087397
Ni 3.6171020045661435 4.029681305923985 0.4041704350229962 -0.8914847697602454 0.9258156818316313 0.015072578062406299
Ni 6.533480282643801 5.932400714138315 4.786687227506139 -1.3332766546330521 0.11952698642375546 1.462797776155042
Ni 4.843252745094028 3.031160211633214 9.257466241617967 0.8279702941463677 -0.10444129573522658 0.3015829446196677
P 0.1627960154765719 5.676030180266444 12.70060551047864 0.606810170860142 -0.6239329465833577 -0.7094900038195717
P 4.08188710782358 6.062211453076343 12.732609147221508 0.9375450544534176 -0.7012313633552052 0.6717451809706302
P 2.698574110646487 8.108253903799165 1.2976796813841944 -0.819373296505976 1.6507222773165895 0.9566810039519201
P 6.659595115968133 7.919926172785821 6.106670382545856 -0.8889956847898044 0.3936153251675802 -1.6953170332078284
P 4.9014882308449605 0.7987769196962526 12.4966986746229 -0.49315018474012495 -1.4477205701069455 0.5852213889457727
P 3.8131393765279578 6.36286020751917 8.179640275323449 0.7927194413638735 2.1608679681734464 -1.1498240731999294
P 4.622842373950005 1.014185559115402 3.8031059462759376 -0.5036359147627971 0.09247666717418267 -0.5098083621220962
P 0.185602568176317 5.8458965449096585 3.5873041060875677 -0.03323022280803954 -0.34504255846519927 -0.19864497290284497
Ni 1.5501100347995973 0.9587015706641009 2.351623922436803 0.08331736927241781 0.3728860630400288 -0.2033878869044691
Ni 2.0097372157263735 6.4635668248554925 4.780028240807066 -0.186736137280401 -0.1549747857084041 0.022003757964600815
Ni 5.850137301473776 5.6473346968775555 9.190161711797263 -0.0712295848699483 0.3806327968649832 0.016587986265668205
Ni 8.42065327707276 2.397044513833811 10.105654785923068 -0.01662758125435201 -0.3204034197602805 0.2306814325130995
Ni 2.2638829415506883 5.282865734441971 6.87217688703951 -0.5616873103795745 -0.26322079990170155 0.46201104013315913
Ni 0.5770343879784483 -0.03319958457904364 9.27338860255913 0.4468590149830692 1.1257323223580484 -0.06607066637682815
Ni 1.4143967438986655 1.0888028967756869 11.581311846432424 1.599213053693704 1.3755759296218955 -0.3633097322055034
Ni 4.596199162474372 6.71828464417775 2.004868064399436 -0.2556501866432952 -0.18883724278380382 -0.03404937627522523
Ni 5.449889793293818 8.035616191258747 8.031515279771904 0.7812762325239383 -0.013405988993260783 0.5325646819820055
Ni 5.474943856164053 2.59039395444021 5.012243715876898 -1.8352074137792844 2.3486117207827553 -0.7040989147109874
Ni 0.8377255898871652 7.440811489532287 6.79873188700755 0.6082433037622428 -0.26159791958629786 -0.6068901321684581
Ni 4.895213364065934 4.64116752758253 6.872655447790964 0.6299698968060571 0.4978961840655425 0.2512183761241867
Ni 8.306643215696967 7.143558972680423 9.267141886412544 0.18293990346276234 -0.5793086230057636 0.990873847783545
Ni 4.514980047464808 0.07869373085435839 10.26390765255804 0.6587659951021428 0.4326896654612225 0.07857188416763242
Ni 8.314779656556603 7.505648752632498 4.582926593322094 -0.5806787638804128 0.27731507321123855 0.2562597952028361
Ni 7.231043873619839 6.266712176468045 7.307514612596476 0.03765432001766418 -1.3456099793874245 -0.7275476326522308
Ni 2.371300306426374 5.101584742387417 2.8183150959358 2.21933999626741 1.131133952989594 -1.3735344737118345
Ni 2.44437389972713 5.247214320586029 11.621768845671088 -1.7227980122369169 -0.8073791002585772 -0.6553040046954713
Ni 0.922886701523032 3.738095238956509 3.6806180041115812 0.49523972027930185 -1.6623958569997757 1.4630204336888095
Ni 3.6165480727665473 2.6184083741410715 2.6386904507705284 0.17974633622612912 -0.16622001960492017 0.24228867773472465
Ni 1.031956780948331 3.197067326036695 8.261099124751198 0.1570784623149682 0.7395063476760039 1.008147290152012
Ni 3.7348533758014986 2.5723412262828966 7.028250349872793 -0.9617419634145953 0.7276193664304308 -0.5044530113474538
Ni 4.338166833203714 7.001543572452944 6.136733441820304 0.4036125455896082 -0.06347488062519391 -0.8670641748240357
Ni 0.9010626967038811 7.523628833996423 11.69391165193154 -0.3667213289902136 -1.4258625936915896 -0.3565567297523859
P 0.19106742320904907 5.499888948844204 8.152340518452556 -0.1240457002297154 -0.18402105234208307 -0.8002270625948282
P 8.487951450299043 1.5289607370740523 8.009970965107303 0.028087502264835494 0.3250920834852014 1.5627316709382184
P 2.0849357277337752 3.2830084826165824 10.344355803472757 -1.0964430864756278 0.923815363572151 1.2794812060791512
P 4.1764641519676555 6.08820084341147 4.158314258724183 0.030030999144451506 -0.6226975315143599 -0.9579542142373889
P 6.666605531530228 3.9524396028525013 10.262059699751191 1.5882629824401033 0.15737233940630316 0.07462832613885212
P 6.397630779005264 7.688037608286242 10.071749619363228 -0.731048703826954 -0.10324881808902218 1.1301672182009503
P 2.637714259484356 8.376474945842713 5.562546808142728 -1.8068147215692043 1.6519024136676197 2.162080243313993
P 6.7088042376404085 3.8647095189853946 1.7688913016018586 0.12676412760214298 0.2638607474785456 -1.4571740022103612
Ni 5.229297805166321 2.4123820680881884 0.6103974278426185 0.528259112628116 1.1126160966910645 -0.10959867156644996
Ni 1.6211676795837922 0.9790335919640131 7.107528887413936 -1.6211821017656274 0.6283971530022984 -1.4103845526606482
Ni 6.895170505232233 0.5981128550804384 9.341609390061462 -0.6586122431330981 0.43568705752664966 -0.35400105321006775
Ni 2.639939067531912 1.5633499128948507 9.223787188202552 0.7768145972081589 -0.7679450626326709 0.4359428822911976
Ni 6.342464620275042 1.778820302088381 2.6566995908518085 -0.5399002964114702 0.6883812468654145 -0.4248352024138103
Ni 3.898199690737997 6.756006491645295 10.436647197879811 0.389929905896193 0.7049826028675213 -0.672168641661294
Ni 7.765987617593275 7.1697390608481975 13.52997399487125 1.5864652671097321 1.380168176978268 0.5963678924808955
Ni 7.7130462669106095 3.8362773802225427 8.082896540566528 -0.8025623955962242 0.353757569740694 0.11908038580464009
Ni 3.093672777344958 7.969008162569664 12.387781153463717 0.5919790193845805 1.3273327783447915 1.0625749729732732
Ni -0.018127191120537994 4.678825809105859 10.301785690631371 0.7204187349169334 0.34451651075840023 0.15541135902519043
Ni 8.765607494634063 2.469981894396961 6.204729024263127 -0.0322208077069187 1.1786461396379444 -1.9639636321107916
Ni 3.7188983238033093 2.336502492392759 11.58726615923562 -1.1814321870235136 0.7905334894561482 -0.5738074906818763
Ni 0.8786075728671582 3.445337742445626 12.771777573962424 1.1024633245277788 0.1739605827822875 -0.0806922729447449
Ni 3.1220231884652465 8.563513196273393 7.820909501480724 0.3734589048243633 -0.9540924172891376 0.9134484185155302
Ni 5.877289040503135 8.235830753840462 3.958341246730488 -0.2556247327219985 0.02026517800693929 -0.2533127967593702
Ni 3.242289954921716 8.27922813204157 3.53109728204204 0.5019065907765162 0.49113315431009613 -0.9015578377255312
Ni 3.2826180061021133 4.698340553980139 9.083955732201346 -1.1200293584360002 -2.094790874038715 1.25661278612141
Ni 7.527179446023338 6.267111733831688 11.392756186104823 -0.7121747497405863 -0.40921189405425656 -0.589490705745088
Ni 0.42767893736386825 0.02292097139933371 0.2479861858297946 0.28734468953309866 0.06816148746758584 0.905568501546821
Ni 4.7078391222158285 0.11498262032229443 1.3687863627539272 -0.23272006020968308 -0.3105967180825038 0.33824456170675943
Ni 6.12097362807935 5.619002447455614 0.26074477891884174 -1.665721578938899 -1.229631886657192 0.01754649352419559
Ni 8.359620889776327 9.065947500204986 11.350039871591742 -2.417881610823171 -1.4328670500338807 -0.9042376985505395
Ni 8.915096433731497 5.252744557732812 5.669244969763856 0.2615446977508592 -0.6135107228087692 0.8715402083175184
Ni 8.100289999073832 9.226324377461683 2.6109393756957044 0.8261093296782288 0.42778117241601166 0.13713210110002835
P 8.829200681397479 1.956378145981718 3.757345731119834 0.7650286603168244 -1.2592887902916765 -0.3098642107918534
P 1.742733007472101 3.1620243290753907 1.64541990347199 0.12978928758171196 0.3315843760777644 -0.9601720478243141
P 4.778633422373986 1.1819270050519703 8.260886632880533 -0.274052857520199 -1.9459702808571648 0.6156344540199913
P 8.599355307961982 1.7854129985884866 12.249171979761293 -1.3250853770715114 1.3111463983929161 2.1898491858971445
P 6.6071078077441525 8.087622214476522 1.7721213596529433 -1.3126083276504232 -0.6739753558527296 -0.4909801736719996
P 1.7296929080586694 3.2298764341012696 6.236227765791938 0.9004640904407203 0.039675464212751026 -1.2711996827966494
P 6.849521076436049 4.11902778094401 5.952325005310328 0.1361728225105526 -0.3522161933955031 0.8552463562535013
P 2.385629886422471 8.662894009630355 10.408962413003955 0.18133167843537806 -1.2070969387794694 -1.2612680255052342
