# total energy = -340874.6525596448 ev
CRYSTAL
PRIMVEC
9.19127696326246 0.00000000000000 0.00000000000000

0.00000000000000 9.19127696326246 0.00000000000000

0.00000000000000 0.00000000000000 13.45236290424928

PRIMCOORD
 96 1
Ni 5.432743134811595 8.222148587790842 10.261273790857361 -1.637139139315516 1.834926906424388 2.2943125931195585
Ni 7.640248852621554 8.891181627168073 11.471125234550733 -0.1785281475483119 -0.6311333209865388 -1.9293010477316002
Ni 4.3075654096504215 1.0341013631995168 9.420245307565276 0.7621611089610423 0.7094298400055976 -2.0653854242934044
Ni 2.9983875139260823 8.158866646918302 11.745539995144862 0.12158592583531318 0.6788401401441987 -2.3001235433743807
Ni 2.049314652543831 3.732871635504237 11.841388468028962 -0.46218844625128785 1.06246030177228 0.06382506487576105
Ni 3.4305337759455803 7.587932104989528 4.955164391494643 -0.9641636854822104 2.17484422784788 -0.2212154020041932
Ni 1.9533025749324209 3.0771107998481315 4.321746630648568 0.38320672823974644 1.1607654027027814 1.2664248871158255
Ni 0.9431261052828274 9.048435182199052 11.185289393386057 -0.580033159876614 0.06335763832103927 -1.3082125125755728
Ni 8.210337797083332 8.080731602712424 4.555064435218965 -1.5240141997633625 0.36513418700875183 1.0308035940989475
Ni 0.6683170389133278 1.4551353715494577 1.225223854166768 0.11965477025087135 -0.17892178344230478 0.5793045092407055
Ni 6.750974438198889 3.245439843441409 6.01321914120221 -0.3703553261983751 -0.0904480667799281 0.043912128001917926
Ni 7.2702723869799595 5.100303843683211 7.989075271183729 0.304422728061308 1.0872575633216177 -0.25345780697766673
Ni 6.603399297654297 1.5048877529500475 9.74315600201936 2.2376303099361654 0.5452289077132352 -0.3163693589002229
Ni 6.817583621278526 4.494993926465649 11.894660189322085 0.5000417696536356 -0.0101946811448147 0.7404589413972602
Ni 3.646979153666344 9.164879468170616 2.898823007825604 1.0318577463950744 0.40635694110396464 1.4276556810362704
Ni 7.377828708271242 3.056219027647219 0.8528962599158494 0.17524150637724015 1.3469667505256349 0.9095583394325046
Ni 2.0148197906564462 7.784064760948736 7.835664588989178 0.8612210857796975 0.19447387224429086 0.5029975098478499
Ni 2.592831615732911 1.3951163339463073 6.761412971277893 0.14496445266025357 -0.2121502064781314 -0.32405155803582897
Ni 0.9772900812048657 8.51385214007433 13.359905046240565 -0.961135440178848 -0.5464314126617686 0.4077507361276978
Ni 8.852826429018311 7.094130758093777 7.022308282804567 2.004190855061955 0.5518065609307529 1.3102840503926207
Ni 6.412294270112995 3.168398561176538 3.5816778892775076 1.9047986917148618 -0.13945586413719854 -0.4585403079757393
Ni 3.706575392535996 6.76455914533173 9.720676896312465 1.0676292475677291 -0.9285850170466524 -0.6271116014216555
Ni 0.6742637950127517 0.520826458115436 7.91343290125013 -1.4563687327002468 0.16397416099353695 -0.31552500862205657
Ni 8.252544140218655 6.487350236585787 10.993270752929327 1.3011759174437656 -0.040397944201072365 0.5118583026725895
P 5.222244513190254 4.794445725104339 6.140021996144486 2.03375802719611 -0.011026690127806816 -1.7977567251319941
P 8.620535290068169 0.4530803140937606 9.700808113221083 -0.059621825427690865 0.6543205577362795 -0.32435263421601557
P 1.6430142609286302 6.679742042881213 6.072584679023801 0.40845418995262556 -0.25179687433547604 -0.876358198531452
P 8.45656291168529 3.893866040198997 4.69404021717527 -0.3116200171406956 -0.4796544642465352 -0.47285698170872764
P 2.7253238710237864 8.925051482232025 9.688916439277596 -1.1405308208234615 -0.5156619926893958 -0.3835255450317459
P 2.1941691751511283 4.539332645822096 2.543814536477536 -0.2060705759429548 0.2970606312692819 0.830548596396505
P 7.13053740555872 3.6182747961725252 9.617444151635045 -1.3281295632144738 1.0309059240047664 0.8025965912682694
P 5.646596572470476 4.574149202398012 0.6512506761228944 -0.4533500220240515 0.0043171393181151456 -0.361329725660997
Ni 0.2070206424744744 1.1112713233398004 3.64202505546296 -0.06524457093110698 0.12069838102403731 -0.8276887583502068
Ni 7.683944182600938 5.836901958928857 5.551170898319874 -1.4282223521730177 -1.5318064421142714 -1.501817609061665
Ni 4.964033973621295 4.3919964784747 8.190632618719258 0.3150010177977865 0.3628988699203299 1.365352195011358
Ni 1.9995806536968714 4.951221333740929 8.307641249087274 -0.6969288793251095 2.6415002229522186 0.33693946974209066
Ni 4.329109762505212 2.8951419014611224 12.969933877015219 -0.2842017730287428 1.2156761958080484 0.7591130661633377
Ni 6.066720644415714 6.166657397227207 2.0995504951049 0.6250824868067687 0.06549808170280978 0.2996109084949614
Ni 3.8168890968718325 6.500080154974816 2.5730069507702416 -1.0627143267646149 1.8836369700355817 -0.27669852267316214
Ni 4.596346135906681 4.192325180941646 2.7661689860627816 0.19150476231363794 0.010623798262433317 -0.011121820944774395
Ni 1.081408864967268 7.780719136188009 3.522528346461074 1.522035992991069 1.273402089764607 -0.5953163112879295
Ni 1.6679685774818542 6.273092382747037 12.417176923243833 -0.2614945612392142 -1.020264128020204 0.3059517631113247
Ni 4.319045314392586 5.552762827464265 12.080585013250351 -1.1303394821127566 -1.2781342051329536 -0.5210232570013091
Ni 6.105930631309287 5.982841052200346 10.29976134339326 -1.1174765101071593 -0.7507505531312555 -1.5744543586917852
Ni 3.0476619489322827 5.313605804733181 4.401128931118266 0.39023920960649566 -0.39830810265755917 0.6172789316019498
Ni 7.23983087816807 8.013681238345658 9.12358030405695 2.214497323463128 -0.5577473518952202 -1.3016772825602163
Ni 1.570651338562688 6.994304300604065 10.160166069379612 -2.274377544758528 -0.760253093305052 -0.4323248259226361
Ni 3.3500365735982007 4.9459823059562735 0.8898497883512959 -0.0713411707471481 -0.24670943251023963 -2.687184869473527
Ni 3.411820336349866 0.4356904183594328 0.48645935497578213 0.5564528014535126 1.865372881619071 -0.39149647905236445
Ni 0.4118225107257634 4.4250850750093615 6.46765424949853 -0.21053375392063095 0.5734344236131736 0.4184542385881309
Ni 6.443857114696337 0.7735884087883542 7.626588777018829 0.08885501126119535 0.46738361729898215 -0.41659044590651484
Ni 1.0299009496949778 9.104474396941228 5.543193789171977 0.7241584044650238 -2.091629445591598 0.7917262242126688
Ni 0.9981634708521482 6.319333696404226 1.6084449496990423 1.950288962837177 0.16504451123958025 0.3150028175699994
Ni 6.6882899303193355 1.03825582031998 4.75290850692116 0.8639099454657702 -0.03381000657090952 0.3481556501728843
Ni 3.514468515821839 7.340034178007206 0.17781995603263537 0.2827688972369582 -2.2761901724872344 3.1478419666819533
Ni 7.3466610885909525 0.6313800547761486 13.449403265973054 -0.20742117643357827 1.6977492967984051 2.5256658548887017
P 5.743729985853339 8.503291363013684 3.9941676867000537 -1.124490222420831 -0.5832809773899503 -0.8965773537918044
P 4.647817286071711 1.739458328550354 7.044383891459276 0.38369832316418434 1.2577255595696146 0.017656536739498626
P 2.1091774384411233 8.427178399707147 1.675478769767541 -0.7766731865342882 -1.3797526867074044 0.8129923326802967
P 7.402635964395421 1.5246398068258777 2.368261149307525 0.35755688888212617 -0.4018726800803659 0.2623566521291933
P 2.5197609650521997 1.1534409013678637 4.557633397088809 0.03102010253059819 -2.241016195689263 -0.8944227693426468
P 3.223362396531337 4.71255144868105 10.322360854826435 -0.04389155917662763 -0.11599171957698733 -1.0983158780183084
P 8.07175172526399 0.24708449898417917 6.42651685185681 1.290349773362539 -0.5261924599070744 -0.35908849503530416
P 9.093628690299312 4.909814631688526 12.388671097329222 0.3803564032751449 0.29597896816932895 -0.9576924759355699
Ni 5.36053646415151 6.435612539393117 4.460857524374057 1.0097657995920415 -0.9741642483383481 0.6450949253729535
Ni 5.22574638965684 1.949809889742651 1.4422142746026723 1.327273900082398 -0.5149400269217067 1.318188907061994
Ni 0.3241083178231011 1.7938614960194272 12.332346033878094 -0.7552440701262348 0.6547134222993239 -0.5603223117112479
Ni 9.225927928777068 2.0061340340660974 5.767054689027231 -0.5987754734811236 1.6516833556782777 0.6997817753928722
Ni 6.071169222394263 6.6868928562434276 12.85920748435038 1.0500986948831332 0.968359725841429 0.5727196569343362
Ni 0.3883672914210958 3.4299455342294087 2.8210004670314426 -2.6065018525001626 0.12805019340341817 -0.4963123845181904
Ni 0.6979818848343335 3.884058947837196 0.5991370557084837 1.1619367973030634 -0.4664446504244806 -0.6295112120020835
Ni 0.2827889329004422 4.1030962656198415 10.16620565737487 -0.9074603192528952 0.0005756699978119119 0.11717545547244335
Ni 3.719617814336742 6.092336732899631 6.730338183493439 -0.304384675734521 1.39432389965336 1.4247567622219204
Ni 5.559803345504696 1.3029462100436437 11.598936372559635 -0.06529625010464883 -1.1244771097947086 2.689554655257284
Ni 3.3490347244253456 3.7797103821544136 6.232022081426069 -0.411456210003743 -1.1377987666042793 0.4191962589604781
Ni 0.7231025634979125 5.69752543730341 4.437288333236881 -1.1764072230050966 -0.7888902974257704 -1.1999693265957527
Ni 3.024380444759422 2.423620209565377 2.1543020119652683 -1.015358977409103 -0.15683292196306536 -0.633560956591425
Ni 8.195999405251644 5.617671624333092 0.8999307807621895 -2.0070877169937758 -0.07342273586652516 -0.9444070716805735
Ni 8.149987873514833 2.7927694602936053 7.938131700307892 1.267727150867017 -1.028553621722506 0.5873330359721368
Ni 8.40906239310442 8.655048534509186 2.108429268508367 -0.07131031750921267 1.6377256079466054 -1.6850313350111046
Ni 4.481611427422742 8.703385459280238 7.2731409844739785 -1.332292179232596 -0.55016902532733 -0.02754757060096546
Ni 5.572689515599583 8.496443861786373 1.3052918238868787 0.3383160383746432 -0.001048238758856259 0.39641834183401403
Ni 3.119298760429826 1.4849794473683595 11.302378906990047 -0.043462699169325145 -0.37663807388329323 0.8914096935479356
Ni 1.3896750980717183 1.8176577116939379 9.793172173064546 -1.2599040552781722 0.08665980338208946 -0.2354976229548202
Ni 3.0721934667520086 3.0580021353493647 8.675239931416781 2.3970875568959555 -1.5974083963847971 1.0847329971275512
Ni 4.886928352418718 3.31328065761428 10.732146578609953 0.223144500706106 0.840945623360113 -1.734827175487309
Ni 4.481859591896752 2.1284975023066397 4.469601186008341 -0.5260880731187262 0.041405559529980304 0.567802422138377
Ni 6.703326859188976 7.687510398005229 6.67365006460811 -1.6601448561820702 0.1578143120397282 -0.48879962108091296
P 5.359268067951015 6.968099970403976 8.321510885801386 0.5950154922180592 -0.9550516958786133 -0.33375721535936714
P -0.030683239392128164 5.9470686028356505 8.967533563671806 -0.0004268031247734585 0.9455648394341006 -0.2523895136141524
P 4.91581653544884 8.661693827646564 12.578080334298123 1.491787992739805 -0.2143659831825276 -0.03388688255543196
P 8.170392508044541 6.782316692138666 2.867600240484424 0.01953781292261151 -2.844704018870339 0.3702164866276656
P 7.389326995567036 2.526305154144611 12.282114786955434 -0.06194327447201591 -2.44515535893746 -1.1848975198642948
P 7.992008207615454 7.787465533370353 13.305678351286343 0.5716012270591769 -0.8920632679715347 0.5231726992441441
P 1.2608409709532866 2.9180465632845607 7.671128785337528 -1.0932752302706075 -0.9515207999072195 0.2905007186635771
P 2.2863852554378674 2.101714121667194 13.18693440785562 -0.6976444173348954 0.5863449610272548 1.8752361475663961
