# total energy = -381169.57306055096 ev
CRYSTAL
PRIMVEC
9.20001468779804 0.00000000000000 0.00000000000000
0.00000000000000 9.20001468779804 0.00000000000000
0.00000000000000 0.00000000000000 13.46515144732495
PRIMCOORD
 96 1
Ni 7.463005834725162 8.025770727149471 -0.18295241012324787 -0.3023427056038277 0.5078820916336607 1.8240863641654586
Ni 3.7505699475987977 5.876601319028155 5.841667023629863 0.3155306650490114 0.4488439066235818 -1.6724861513562423
Ni 5.74401070876791 5.662204179040316 4.312228078268022 -0.19908797397753455 0.04117364602483232 -0.21934158202024806
Ni 2.941382664401476 2.6122705425003017 1.6681705653604086 0.42225227217798245 0.8085499806382268 -0.6301403609456502
Ni 7.349772055160695 7.265555121610718 7.225602218253989 -3.5128835939768983 -1.1644703623581947 0.356094959624619
Ni 1.5342680330197374 0.31382261765530295 7.28238470829883 0.7203516291244239 2.379307092984083 0.5981825770921311
Ni 2.494215955291069 3.417483419395068 10.411699750720713 0.10002568316603419 -0.3968369174286714 0.08004538338936537
Ni 9.409774921883018 7.552512776663957 3.7087742813198434 -0.5251174816753408 0.3674594927078188 0.01930872763094094
Ni 4.112792922006676 4.177754225021357 7.427175457905876 -1.6554196827922585 -1.479493234532852 0.6458364315246683
Ni 8.554872766191723 7.801557171594905 9.06441649421869 0.11479384261414423 -0.13960601656181762 0.6090241477923254
Ni 6.295027182561751 7.537157952314502 11.244801551841327 0.7834848101394829 -0.6130165567811701 -1.8252567303244758
Ni 5.743964708694964 3.2567131644479566 2.0802980989062045 -0.6162060102527452 0.032101765630551164 -0.1740847670649776
Ni 5.770405550624464 3.5537540354910115 11.857466403396261 -0.37282358523320946 -0.36583198440672476 -0.49309002092615084
Ni 4.3392420811064305 6.994145491213308 2.754686768341863 -0.5369317007014495 0.4439649812647257 0.6751053556921147
Ni 7.813323990254553 1.6256609779493285 5.06987227972908 2.179910586627194 -1.8652931774210715 0.12652732900098854
Ni 0.10965037388195421 2.200671089791928 0.6908281755051855 -0.013931265369111493 0.026475163472393114 0.2969084219621338
Ni 8.381461691198984 3.806257635907517 11.73158076376866 0.7121338692003218 1.2269016322102224 0.256025824815159
Ni 2.31798967583402 4.010507159803415 5.834665812527445 -0.7720693692136896 -1.1204865005780766 0.014248796609530299
Ni 9.043540741114228 3.403361397000572 4.7051413813441725 1.2594852225731987 1.4734411148015012 -1.5041418863194678
Ni 1.6284393823552814 4.003174748175784 13.535170023874048 0.0829090780904056 0.42080885486323655 -0.5359549386104769
Ni 7.974351845610164 3.0377712172530287 2.481694735435102 1.144504974979861 -0.35112604565511785 0.40948185988619157
Ni 2.229338335252025 0.956994717588183 0.1700457096559916 1.939589317031485 0.7463148859574049 -0.7897786135679946
Ni 0.4091347687999139 9.020007103794931 0.5729916286417183 -1.2644641638450287 -1.4538459662783931 0.03488267080979799
Ni 0.6669200975921064 1.8691669640975488 11.88607936877028 0.9093341392368404 -0.6091210783815058 -0.8636322663243513
P 7.57290920900832 8.338939223767479 4.7256886939277996 -0.6309554006477779 0.5346421333363244 0.5714245922719965
Ni 3.0777728806870797 4.490609921143331 3.438824693237747 1.687064563391049 0.309869352998176 -0.2436955853845803
P 6.708126237648171 3.3971053870798835 7.10354102469114 -0.8182109007667586 -1.3956608732972287 0.07571873098955346
Ni 8.923802551235163 0.6450599429265937 2.8318831707587853 0.12604036206224098 -0.05039439329215192 -0.18179679099725463
P 4.224444299061791 4.631701344884041 1.3316607117280197 -0.7058891738421906 -0.8330474515589589 1.489770190978828
P 0.8341616428012951 3.6921314549278934 2.1658287945395274 0.4155702321721166 0.5972736921246166 0.7954586946719074
P 5.20610425576375 7.672324566659736 0.7903760133666863 0.536342660967199 -1.1250029003911917 -1.7902740436017037
Ni 2.374845765995574 7.789146351914009 6.139408935784618 1.4513237140771715 -2.1920878454196764 -0.19978474293424303
Ni -0.058840533308454464 8.127274488112647 6.457482880181612 0.6352697117524156 -0.340625146123794 -1.555386800537373
Ni 6.731135474135881 3.479307517434816 4.323970056888279 -0.8390237237470519 1.021201809343125 0.32130073476356924
Ni 5.67781660379827 1.6224777729014488 5.722325354379594 -0.5865020554304092 -0.7384375400918574 -0.6547527601776917
Ni 8.87011126609231 6.924648581006127 11.841968058819214 -0.6115186320794048 -0.5581463871058516 0.6818431886365806
Ni 3.332070483948488 3.021652791692666 12.550234861978318 0.7215415356674671 -0.9156071167297458 -0.5973112302307714
Ni 4.9458174430047395 4.187865041054941 9.48524264155862 -0.18804354323791486 -0.9474098630626394 0.3045695380518174
Ni 5.198578643829744 1.914927836664469 8.000575567195357 0.47922406157733594 0.9718420279630747 -0.011457092797006074
Ni 6.1485905503446885 9.150868111312398 8.991920379255415 0.8673904478152029 -0.8880148089337738 0.5097625964858253
Ni 0.9558447157645269 5.5442139919332085 6.84848350022466 -0.40687398994969926 1.248280612106631 0.08794098408735822
Ni 3.0604400532009364 6.246313105311683 8.001935329351648 -0.4023128529415781 -1.057781665349688 -1.0517578277531112
Ni 5.37741772743014 6.70398623108301 8.832250446053179 0.6748366754117604 -0.5334905362303844 0.5056676004808451
Ni 6.735082280394669 7.907007738816867 2.461846623960258 0.7348683346833602 0.9635396787449663 0.5604848054310412
Ni 1.358188953796117 0.539613055710467 9.595765176823635 -3.5993554497178977 -0.6108375468519802 1.9895183406514447
Ni 2.639143785115495 8.029919933729223 1.260681679170511 -0.006770743064930275 0.4683146137536838 0.7068957607298342
Ni 7.954415413995263 5.654319766537331 3.101105037686872 0.358180381398738 -0.9929356154085803 -1.4614705727031863
Ni 5.754710325735207 9.3341508019594 12.381637234618674 -0.5790864796926285 0.8262124309149964 0.26544146170210414
Ni 1.6034889427892405 5.789799181378599 2.103472015655062 -0.11573280948864584 0.9618206391713304 -0.7496529491917024
Ni 9.132247281783759 2.82948288695245 9.677229466008512 1.9116753642300366 -0.8400048567133984 -0.5575306078987237
Ni 4.268825169440325 5.263070746100374 12.83434971252348 0.7418128843219934 0.3305615912402049 -1.1771572137972437
Ni 1.3789073866511035 9.172782546063987 4.776182974000888 -1.142375587341684 2.9514955600052977 -0.5094059844773549
Ni 3.2848928091348237 7.879913695851532 9.43249987791992 0.4890744720088545 1.1708940064963511 1.0610562223359017
Ni 2.397082201257787 6.465310252594145 13.090335518462014 -2.1130711604051413 -0.5888918958188245 -0.48004424348578617
Ni 6.000773915939237 5.780359966410031 1.9100453889219553 0.31909035737581176 -1.6622747580408794 -2.0017575630301137
Ni 2.084750905967401 2.4560818948186354 3.883605838565162 -1.1694464754165472 -0.4101786288429001 0.9010495306305449
P 5.746513112736186 5.534737976906284 10.93259905675519 -0.4466679820181855 0.030953253848404753 0.032891608521698194
Ni 4.3940833680729385 8.473093836507896 7.545924646216596 0.5343400287148733 0.40062518082651005 -1.8374933815999839
P 1.270374814541743 8.830036002541545 11.923108507490545 -0.381068341740505 0.4370718536893182 0.450753722051785
Ni 5.291765591604239 1.504193185327485 10.407592864208073 -0.5303069962960802 0.875584039369589 0.6223460617122121
P 7.795328761717983 1.8360009115033091 12.55971455701108 -0.8352935672806583 -0.4846634874253525 -0.5453096403524995
P 2.255650376977275 0.679710877875538 2.669869993840666 -0.2951950388154529 -0.7457155618105092 -1.3224065446877677
P 1.0460692588412837 1.9819223429033743 5.8751421967143 1.290211962233094 -0.7217904184534795 -0.6992744967391505
Ni 4.616254520388693 0.17645351981740295 1.730756424608146 -0.20359357515737195 1.53271506997147 1.1017465009664122
Ni 7.04954797906976 3.2503835544105537 9.825803261614656 -1.882463775663087 -0.26785161380549355 -0.9575196978031315
Ni 3.3207360659745344 5.721093472426094 10.253079539183108 0.4278840165424631 -1.3647484999890882 1.11303878605078
Ni 3.8580169179866273 7.589082834656219 11.694483544940434 1.4963123629727197 -0.9822313416171988 0.9094958616256852
Ni -0.2207055899916866 3.162532615097823 7.00216146392492 -0.6264775673820824 -0.6294024543383612 1.3010774441926884
Ni 7.813351590298321 5.590940866032 10.079527703967155 -0.16279633863535187 0.10616959128024295 0.14275201838996707
Ni 8.070317197790612 6.055026401972034 5.264766308789173 -1.4308073392913745 0.28429458985286526 2.039754353988861
Ni 3.311674051604125 0.8357964853938045 8.94850827041313 3.1779791523869654 2.4108596709793835 -1.2725034892097375
Ni 0.9661027320315385 4.8856125475327 9.180850038857297 0.07364462206934415 0.7384444820703928 0.36172361866530606
Ni 6.995157492818125 1.0882145256746294 0.9379571273986518 0.8593614068631394 -0.4367463520290994 0.7428312982841787
Ni 5.0061971387539765 1.887971793917972 0.1339853324719745 -0.8090022376842971 1.1945360713953233 -0.04232832845456581
Ni 6.465715053236072 0.9257146679847392 3.413428972965586 -0.186522221497382 -0.16417547837106564 -0.3794135797459014
Ni 3.376598554560449 1.7425563633203156 6.096454987668878 -1.244607791240734 -0.8454298843837117 0.7650376591778889
Ni 8.976031034058325 5.211707064648602 0.6593668856143335 -1.3475197948156277 1.1194395473708012 0.18729972309335485
Ni 4.4485382544266985 2.0537928568745807 3.430880480639931 -0.6187079507389925 -0.5814117853916954 1.1300880282235828
Ni 1.8163312803114966 2.67310103896441 8.240200987189832 1.0087774675368433 0.09610860749981512 -1.2638563550577007
Ni 8.000056686372522 5.016961155823396 7.710657347447298 -0.23844564983955066 1.3825996692378963 1.3277906918178164
Ni 5.328584049990409 7.8576956606184964 5.320418117040993 1.1144261533166095 0.2417466891883256 -0.024198194512758328
Ni 8.081541215589494 0.04147274576687178 10.868315794815736 0.011891352120947263 1.1607592320551945 0.9145827892302894
Ni 0.8154304130975859 5.4737970802671025 4.369454929017521 2.1323351508410764 -0.8118127105498986 0.32603490701444493
Ni 5.869710508100808 5.281755975731137 6.701807667628276 0.8436576229746373 1.3668848296058007 -0.5090894816782007
Ni 1.490724363968826 7.137150517988581 10.610121985375782 -0.0341830736396121 0.019697735539243495 -0.7734909321515647
Ni 3.24064073896054 0.43110532364049736 11.296009753046542 -0.3293896824192908 1.8976685084279834 0.4552089296096612
Ni 6.911621360347752 5.810986814977637 12.99633528939783 -0.7701140452595318 -0.13432548488916865 -1.0321439101769256
Ni 7.172791374507328 0.38235812633790717 6.8672000099050265 0.4730924947583014 -0.4802280773618181 1.2998037196865873
P 2.6673602298607193 6.605766875328197 3.92853870981905 -0.8891358099120946 0.9245208742796078 1.5398239131021094
Ni 3.5792564759324077 9.060744768396122 4.155763430148678 1.1905135804994915 -0.5834753527889436 0.1374804855783826
P 1.3080120742263572 7.590122436304803 8.271602476985855 0.5808037194940513 -1.179547568406291 -0.24237583813189223
Ni 4.600936496097595 3.4945335415800214 5.261063302917 -0.6231443892437913 2.117071025593154 -0.7954952043367978
P 8.377560885013143 1.0201436177287824 8.741495062134621 -0.5021703859608642 -0.7935573638841367 0.34374800802349187
P 8.777273918872208 7.348704853468343 1.6865236744644996 0.02657980737105745 -1.1365780068233005 -1.1514538954938687
P 1.2624444019658112 5.034247983236594 11.559738291263388 -0.06282464863570471 0.10301073393628711 -0.41087745468213754
Ni 7.118290488080623 3.662130207352355 0.24753927254414673 0.0614604212983264 -1.1362838726216498 1.1714023135913374
