# total energy = -340875.25622650847 ev
CRYSTAL
PRIMVEC
9.24615228528636 0.00000000000000 0.00000000000000
0.00000000000000 9.24615228528636 0.00000000000000
0.00000000000000 0.00000000000000 13.53267848490979
PRIMCOORD
 96 1
Ni 7.556529077663625 8.310580551818427 5.377832276819713 -0.05129659339144714 0.8957216906597284 -0.11540293695305284
Ni 7.177973102348849 0.6352014300266173 12.666452236806117 -0.010957270342452098 -0.41983286410321247 0.22407086917511734
Ni 1.0093562367553484 6.748369119127452 1.446399674271559 -0.03142967926419104 -1.1089437900458 -0.3416618149184245
Ni 8.965198902077592 7.688379212195125 12.729243782992436 0.4605241711749875 -0.36909728542155784 0.0435881690035959
Ni 6.717070892943082 7.600513025066595 11.68278828397943 -1.10406512179726 0.03202154721191905 0.12087784402469505
Ni 3.86605675674041 3.4940100727797843 11.42381372345493 -0.12626661914043413 0.22057879686145884 -0.5958937810579544
Ni 0.7264674274263427 0.14874840282531346 5.774516258709696 -0.2608695260607055 0.5032582197084043 0.1927142092407068
Ni 0.3985147200833378 6.3273640577233285 7.605094493626227 1.1326637593705589 -0.6528254612479918 0.34310831755696397
Ni 8.179599555621145 3.783913938004235 6.719015358812084 1.7354997760743012 -1.6679584386892177 0.42699698595181945
Ni 2.5762739610645924 5.661160278392074 8.749499109059952 -0.24389458876926381 0.8897544173326999 0.12001755290692878
Ni 5.005820728238555 3.1799922418570055 4.522431875972997 -1.5849956245427412 -0.46671615891831236 1.8735636449599797
Ni 0.4977472024699034 7.077458178611686 10.222476848668874 -0.012607404351365384 0.033745986102193495 -0.2739371578779411
Ni 0.35366995588339173 1.2852891655648557 3.4999165149914755 0.5870800394210663 0.3471467492923957 -0.3462882579468423
Ni 7.299726438359424 1.2689142295020726 4.310632110076351 -0.9826200924151852 0.17714103739279816 -0.03944715025202884
Ni 2.9083587739561336 7.057865581481795 6.4161271216435525 -0.15473747288661738 -0.7650985943228114 -0.058984706064324224
Ni 7.39571999352815 4.274172681571119 10.367818044301 -1.0828784604173158 1.0177251636484343 0.8328409919751076
Ni 6.382887203435927 7.042165614550905 9.12718317219476 1.2356755217481106 0.43401686891307834 0.3676374130465797
Ni 5.951082635921508 2.8509124285252634 2.394485356925474 -0.04966908509035317 -0.5828513460516995 -0.5296266823996041
Ni 2.2929348641092413 9.397512007979055 2.4186418549252635 -0.5458883956741051 -1.233573130693127 -0.3269623039247208
Ni 4.421861475320885 7.812111224838922 4.353841229900517 -1.235214522951292 -1.376563233235829 -0.5638370097327258
Ni 2.0745499884080134 1.7420675909593295 7.148204189786604 -0.8000591695583963 0.8203112349392131 -0.9670831731218508
Ni 7.3132165748448 5.672505307499377 5.838227797068936 0.30707584941343885 1.1688849464861224 -0.6931712120548901
Ni 4.701807234311786 8.424585612040966 10.025983163606972 1.4430679018262824 -0.49650418881402236 0.8369133622722684
Ni 7.6222044988121 3.0127570817398066 13.378690760163 -1.006715185691176 -0.23440053323589952 0.25710157437784115
P 8.230092794378264 6.07429686402577 11.28124729818556 -0.2748632692366363 -0.7125383037275923 0.860660328180221
P 4.2443261013279425 5.63723123574358 5.091034194217221 -0.35823591722702175 0.3441514141094977 0.09156161155908102
P 9.044142552051643 2.505429940673263 5.111049340515982 0.10646192570968116 -0.13412468173227224 1.0282291485035517
P 6.8679033785400225 8.780802882935818 3.107590244770826 0.29504977148684025 -0.4264480554268849 -0.1564894225807176
P 2.288644649353097 4.505566893828155 1.4657241329791912 0.4294320777558733 0.9189091845197852 -0.671312721418902
P 1.2455861867655385 4.136654655562212 7.4638003389397145 -2.2526463237290235 0.5488060835415323 1.741523613670878
P 7.582593981537698 7.309887959947792 7.277590224679069 1.3959519221750862 0.12039036286531525 1.0785520651278198
P 7.758483540387119 0.8614399876542871 9.1738706945863 0.8490008895644218 -0.023501939776682104 0.42446059268321085
Ni 3.435130573712702 7.049618013459207 1.7829170926676163 0.677721196048407 -0.6552656952583682 -0.6411901910019087
Ni 6.054241959271294 -0.0867326088330497 7.9442775777856385 0.5632603112936493 0.8253089452641206 0.40655028806169335
Ni 4.3547436543837055 0.8065243141603922 3.9500266152089427 0.3164269516110357 1.1386976242694649 -0.14840150336626054
Ni 5.841506482742489 1.276570043765192 10.717435411547283 -0.4076016121443432 0.6158545404505974 -0.7684032332160121
Ni 7.70005710279213 5.345478140020791 8.312244859266931 0.4307559387736194 -0.7525678088456523 0.5713497731700031
Ni 0.013111044233216546 8.59895880188175 8.173142967336197 -0.06771308707625757 0.1492931619425945 0.25894839777859274
Ni 1.0520272305044982 0.4854424227339622 12.159138964968314 -0.7806164874527525 -0.2344810087648478 1.6973335494172253
Ni 0.798273047676808 4.119475304232652 2.9942000536889846 -2.327272592985347 0.7882269528101586 -0.4935659321213048
Ni 4.426086967009587 4.261339021912653 0.6964969487397785 -0.17214332706789062 1.056016603029465 0.11479050018003456
Ni 8.37750420355328 9.014554864078235 10.890260795460959 0.6166045312427445 0.40961761413310743 -1.8458484384328984
Ni 0.39823363704759046 6.972995147760572 5.405141712819168 0.21154522590428085 0.5149320565019067 0.043736264545685966
Ni 6.455432515885727 5.480453474094483 12.908362098291954 -0.6742730895988065 -0.8458299480356077 -0.00863787818065609
Ni 3.269735397941349 0.7265830043324889 11.419050105691213 0.6760790324592937 0.5522217940913006 -0.8824522272443319
Ni 7.340705386202594 0.8838193751451738 1.3672202474089707 -0.18346106607355503 -0.24042951303879886 1.415334440466756
Ni 5.207470067929825 5.783061552842516 10.802636857527709 -0.4358086707061785 -1.1236911235583034 -1.3171437536269317
Ni 8.531276965642578 1.434485082170767 7.105847565222171 -0.43373096224154334 -0.08242802468892901 -0.144735367368583
Ni 7.51684459116929 4.98489668514986 2.212538643578747 0.013467952579447775 -0.3538645276322035 -0.5798179585420143
Ni 4.2121125060468945 6.407223076794056 12.688862136600228 0.9218350999173285 0.7706436925107567 1.9650658640360348
Ni 4.823930416422028 4.9710551948698 3.1016902748658786 -0.5568364100451765 0.8532411528980144 -0.5451497177358676
Ni 5.208690560058727 2.10877924493225 0.008546218748069148 0.08752935047123635 -1.969380432250989 0.76826722185878
Ni 2.424581583285925 2.6622446869323273 2.6806611734652757 1.8119975513217246 -1.312908118279029 0.3408426614512388
Ni 7.704948317460234 7.526479082065632 1.2814769768925318 -0.029611137998213514 -0.5899663598299258 0.058078135089654814
Ni 0.7719899346039297 4.595735372927116 5.350077176270157 -0.10344113660548637 -0.3661626282732661 0.16703197398325426
Ni 2.096130508323618 6.241559762600444 3.680509591613419 0.3642013907818373 0.09170327934326787 0.550635166330471
P 8.819359338826166 5.857511572705604 3.7635326440668027 -0.33422078525934695 0.18664820555228498 -0.06747448870289026
P 1.9387794852200362 8.436272748790461 4.38292315333263 1.3818617626306073 -1.2736897962083547 -0.5288525232377408
P 1.4933830735428328 2.3762611903643527 11.302303561254886 0.5138910168319021 1.873380068194264 -0.09911859797073252
P 5.162293366855426 9.089004883941323 12.402714058517903 0.4061227136059715 -0.38151879901436225 -0.9407203668576057
P 2.8605839040315715 6.105881720937384 10.95644937807272 -0.4734678758198491 -0.22478075075794834 -0.2526841620364358
P 0.639067246383393 8.741885827098294 0.8862871732452059 -0.0896854775822907 0.12272158210165314 -0.10502570748378687
P 2.8807590087684387 2.204661846271076 4.912146108114745 0.23296791455443103 0.48790847672521126 1.0179457642996728
P 4.419956767907596 2.9263795251624374 9.294013350832824 1.6097247518583053 -1.3528481490070765 0.7619279099043136
Ni 5.398514070713125 4.651461933994533 8.503488578944053 -0.36301225556974254 0.0772631926585379 -0.615559892028314
Ni 2.2443278404604268 5.095776545830208 12.830887661948834 -0.47089060201097616 -0.1658703495749853 0.5196310046394729
Ni 5.611730347171498 7.225563049223578 6.431595010146901 -2.3018731790756357 -0.21535431523772589 0.11549112579148496
Ni 3.5164227464196407 0.8676312113627228 8.803170250428465 1.739575745915888 0.37551193069865 0.8321833037864507
Ni 2.4083638318155005 3.357749523509747 9.193682425530245 -1.4000677441156726 -1.431232085533619 0.46323925611330546
Ni 0.800194398164581 4.664720916667616 10.576600790639608 0.15109164860391397 -0.28292290631631917 0.7237930507058051
Ni 4.006524305394166 9.310598174557168 6.318488675946555 -2.035178561692721 -0.7196456041963348 -0.00940201004019026
Ni 2.360672177263363 7.71964045376953 12.450470436137481 -1.746013788231748 -0.413831652214455 -0.7031242095025438
Ni 0.5900413720267047 3.3321376811077656 13.024770233547084 0.5480499221017981 0.16039827071682053 -0.7368794515761181
Ni 0.39298182243231045 1.6122331176710172 1.11301022926344 1.6287712269667947 -0.43090789097045146 -0.641118971444341
Ni 1.3272574517246372 0.9654462585723121 9.718303570217245 -1.283347373902777 -0.10800844426119463 -0.6079581684216562
Ni 3.502498040767155 0.008514781829597402 0.10213577426895622 -0.14029944308441641 0.6280917059467377 2.035095257950295
Ni 9.19516920685091 8.128449840037115 3.298793281376984 -0.14703984713204354 -0.3648557365363845 -0.5481681928472172
Ni 7.255723998651471 3.7180535938059265 4.424928424102378 1.00737904452742 0.44496719727699496 -0.7665288990114346
Ni 8.581751712094714 5.266802628469 13.499726594740219 1.6475603346488399 0.6158542833402812 -0.2672988266258171
Ni 2.9702987494979656 4.0318957478313635 6.43836134454032 2.1292961069044365 0.19889694101265099 -1.5577257330831948
Ni 5.451975324420077 8.43933322526521 1.4781611326957635 -0.5348370229559499 0.24373389482168348 0.09915845006973245
Ni 2.5356741054735816 8.101441828608888 9.828487195614969 -0.9307915377796679 -0.6798549545619582 -0.5272563823952146
Ni 8.263027589553664 2.2919825104025975 11.075280005280673 0.5072300598719587 -1.1242611371291606 0.6499941624467839
Ni 9.080433700581526 3.0294371408348155 9.00553801616834 0.6198703464782098 0.34639418739708727 -1.2156900797651193
Ni 6.510234461703974 6.718855400373978 3.7232462330452596 0.40388174009059474 -0.2123903475133955 -0.6095604799117696
Ni 2.877596824616281 2.606814002744645 13.421954432286867 -1.3393817390895255 -0.6635991548247281 0.6035343283223477
Ni 4.603770279442395 2.297567186507578 7.134211987220929 0.4944272516803356 0.5920201570351611 -0.4495525026548322
Ni 6.707362432826807 2.5257992146124564 8.439993400553119 -0.8120304829876596 0.646827591793344 0.09921784255275815
P 2.2114855068099435 8.80488911017667 7.634569378539236 -1.0096495857291514 -0.17188210298670398 0.29310216084216617
P 4.478226020910227 6.651118087219856 8.408218997515425 -0.7558657628706338 0.7848899180171256 -0.33831963791906894
P 4.03570516265794 1.3143220843887626 1.8863880113563725 1.2236895530308283 0.47520979821162035 -1.6052582314465194
P 5.951850066578318 3.2103935912496824 11.965513436409333 1.1740415509863973 1.5360896428706576 -1.1288562126990107
P 6.119002011323091 3.774186985582977 6.424571632714213 -0.7733394941753648 0.42257443140409157 0.12852687592952056
P 8.187773154423798 2.836081599928592 1.9605060943450094 -0.6910194558192099 1.2642829010721581 1.1494278662027753
P 5.612118685576149 6.073418479539059 1.3556902952518333 -0.03690638610804611 1.017752160231628 -0.28957743551835935
P 5.846961712712586 0.7649314217917735 5.944310753836595 1.9229964456698105 0.6756686843947525 -1.0474954529323315
