# total energy = -340857.10930699593 ev
CRYSTAL
PRIMVEC
9.46075661511699 0.00000000000000 0.00000000000000

0.00000000000000 9.46075661511699 0.00000000000000

0.00000000000000 0.00000000000000 13.84677361415181

PRIMCOORD
 96 1
Ni 7.4683591064587915 2.6262776510831474 8.509118965060003 -0.47678768422170137 0.11220448462041321 1.5180960345067145
Ni 9.130926246801788 0.8720821369518703 1.9066726361714177 0.1644737263377748 1.2168925847136527 0.08621474542487088
Ni 5.331230954087633 8.968286380017311 12.274527529764523 -0.3199712173188683 0.26101427916868597 1.1840565120202382
Ni 3.8848799451792493 6.267420123865882 0.36001300929031055 1.3109916179826067 -0.7629090428706603 1.7035988136006466
Ni 3.69951534103125 2.7493526337484524 3.2151104117563163 -1.261871206306872 -1.1289958236006683 -0.44699322656808826
Ni 1.026851600317232 7.326466678907539 3.699926883943537 1.7779895698073962 -1.2359987094154845 -1.995703900636866
Ni 1.6833618833592423 1.579274639198762 10.324403530660888 -0.7635093954588205 3.3961287709816412 -1.8498110226250724
Ni 2.3907426546625596 7.398235978507739 9.748557550578438 0.3393149119528027 -0.3090622837158484 -0.5858423103592233
Ni 4.088674103192419 8.659496745209648 4.9663806599455445 0.16012444823014357 0.44240792119025096 -0.05916674016814327
Ni 7.075207905010608 9.185126921387807 8.66112872572389 0.56512513241653 0.12778485555717348 -0.3749763699101542
Ni 2.1661915966595604 4.769829657188625 11.716586031555705 0.23355078364109455 0.11564076399547181 -0.158801615653662
Ni 7.918870875198829 4.868656720677115 8.419544521530513 0.10071499592357493 1.4454304885211882 0.4336579429117628
Ni 7.858672080925685 3.1879911529500977 0.3635447097306948 4.001516350462644 -1.3971467138141358 -2.163640388712261
Ni 2.062511165033065 4.143849235708682 1.7775654750952128 -0.16097239805273567 0.6452545908792694 0.3857027551887228
Ni 0.1639870785249287 6.7078183437959265 6.030131103170858 -0.7878590279477786 -2.8677215628114356 0.2601143930622359
Ni 6.943533094591997 2.564385381377834 11.005373653827647 0.040041846413234265 0.39319160736660025 0.217558007757264
Ni 5.159915573497016 2.4734391281407233 12.765991129541923 0.5426763164947106 -0.6323329977215948 -2.1168560813688706
Ni 7.662030254905364 9.22636635942594 5.501517004359702 0.17372661239461049 0.3463923876248744 1.0151157510500453
Ni 9.092307438343045 5.211978117090464 2.7428795840797924 -0.09365937462837419 -1.0271212601513535 -0.8851045772655144
Ni 6.691148490659155 3.332560974620366 5.834448597870212 -0.09561598413411274 0.30383163144452835 0.5199361945847174
Ni 1.5520844247180114 6.123909906935295 0.05334069181068922 0.008115687128598927 0.14955207203093598 -1.180536671792438
Ni 3.7424387937449475 2.793449220281083 10.283597395275232 0.45033668911902436 -0.10930042359974079 0.5738293450587473
Ni 4.726461548914525 6.7152166554604875 6.12312655628846 -1.8752580019432672 -0.8855786886884555 -1.414996597511363
Ni 2.4352838967555916 0.3900792937787677 6.223196763194755 -2.5446560228379593 0.7250886295887771 -0.16224920788263025
P 8.598380257545886 8.523044252705867 2.8959281358188327 -0.5798598675235433 0.19944972819232745 -0.4939634246700396
P 7.961340211595521 2.7578673146923203 2.7645362020226893 -0.8093395664190577 0.42715973678192887 -0.5916943982646261
P 4.2632061410284985 0.5554571035245282 2.2955040561540785 0.6442235785115937 -0.22212557252328843 -0.4686306023322058
P 3.2553612007292996 4.403830827194775 6.216799399578929 -0.4041851302636265 -0.03910930729663587 0.3759310205139397
P 1.9785847931963427 1.602973834492527 4.127917321587045 0.6197813863088294 -0.8467717431235868 1.2572175095849445
P 1.8997104653863153 7.89381879171065 5.634113292471572 2.50198522344231 -1.2669445070647214 -2.2500006585760604
P 6.828830881521495 5.566775411264826 4.969800723457999 0.7654315521821979 -3.271357248329495 2.278443487297786
P 5.628014888764442 1.8415930375661163 9.352207667322341 -1.0730583890031005 -1.2273302351072088 0.4424107494037284
Ni 3.7967813796800316 2.211972197867756 5.588543666135653 -0.15933897621437074 0.46566432061503027 -0.8154171400717054
Ni 5.615640219126021 4.212534328655881 9.821239813190953 1.1837505507440453 -0.09316675126267181 -0.0762020983838752
Ni 0.7500355385294526 2.155198197485367 6.195004654589609 0.11550655241045268 -0.22868497090836098 -0.7312834455455793
Ni 2.59938072005713 2.858605451014879 7.868428959211697 -0.05023986999215863 -2.9212655574761626 -0.35639166492943136
Ni 6.244364260021209 9.392109354376625 3.641521849122567 -0.24454070699369498 -0.1709207675146992 -1.283615797072815
Ni 7.27427168472163 0.28582932460469374 11.04679000801428 -0.15733788662394194 -1.2504454809684336 0.290296573072571
Ni 8.460253211123145 1.729256013646689 4.623479321125427 -0.9761972196079768 0.018458206705187566 -0.30248643027054356
Ni 3.298265731929788 4.82287611946892 8.667304707635175 2.4732017235517145 0.3835499705117782 0.4846750573895782
Ni 1.5257551390882516 5.0012113814599255 4.167366784475645 0.8064432187078693 -0.04977527165091428 1.0716486531397673
Ni 9.256167742729478 2.5193900229677957 11.80139698413493 -0.30551518979453834 -0.5567806171065766 0.26108061363024715
Ni 7.926221883080369 6.9289351471515666 12.590012542021046 0.9820181971651282 1.7140511192822223 0.6414118200944114
Ni 8.405920085944665 6.90538732396347 4.257093546186462 -2.2688152201794023 -0.2691176250021107 -0.6120976445113265
Ni 2.2294083722894755 9.23290374223951 11.239868913097423 -0.6470831594475759 -4.048574223182395 0.8210296011624763
Ni 3.437849734869592 7.10090331994788 3.5239208602285093 0.7937836209623297 -1.4951556236604573 0.1648701904452451
Ni 1.0337863349081822 8.01637343276272 7.470916348968934 0.6880966257454602 2.112662355002497 3.9409136491789223
Ni 0.24723511411312288 0.6376218824815303 8.059791683046821 -1.2329483526249347 1.255839141180179 0.6856489355359159
Ni 6.07590602792509 7.0191529221301465 3.905108934950558 -2.4646425211277943 3.9564541680166823 -0.3032647031974648
Ni 5.878810085587762 2.343173970456152 3.758084046941474 0.9948870827079961 0.09225966606737014 0.7628301100036088
Ni 1.1101251799482579 4.272761505198838 6.940460240846921 -0.2802283902032916 1.1477129403941975 -2.0526533214387164
Ni 2.770743404430769 6.489757364823475 7.287639733803503 -2.3349792176009854 -0.28861661426698676 -2.3591571003987695
Ni 3.1202332141501197 7.209749324680322 12.341615646996917 -0.2563680386459262 0.8532267547203112 -1.0649481011911401
Ni 0.788413097694785 5.50294368645563 8.731221579253807 -0.8245347861022574 2.3524938294459807 0.5588521549236246
Ni 8.758579249126456 4.045296534161716 5.013999486161955 0.4185611964796404 2.112611190049588 0.1297052125083379
Ni 1.9307228255352022 -0.024627295516646584 1.8937814092224021 0.6138087136651622 0.532270033559722 0.8144236658101845
P 4.266082211036204 4.3209262170713165 1.9603567534468431 0.29498832212128545 0.9525772661961918 -0.4195323021436581
P 4.286233622603358 6.819530957779471 8.568964873111806 1.30074860009836 2.107049893911726 2.618627946339735
P 6.089415988356028 6.57225516241295 13.638434667396076 -0.990297663565101 1.4799303220702706 -0.3423385292704749
P 0.2815511704682304 4.473774200770346 0.6149463410523502 -0.6238365302148094 -0.6598787685503474 0.13405680460881428
P 7.349569846535233 1.3033989766174496 13.03111558831811 0.3490624782578698 0.03404243429668976 -0.44696391599204965
P 8.144245019026402 1.7103818042211156 6.883992768978511 0.48589556006024065 -1.1250360676219722 -2.99810374678214
P 2.2857093348416497 0.1453654713006901 8.542725464669786 1.6683901269099977 -0.07938640964912778 0.46430549259429066
P 1.05280245568282 7.153051010350767 11.615337960452175 -0.1855295185668095 -0.4996399062295266 0.6311011821970228
Ni 6.191251572444685 7.033968466972476 11.213103486588206 -0.23132755073753067 0.3967428150529683 -0.5168907228901743
Ni 4.932119475978742 9.100084180271779 9.999322472980625 -0.10609605772983018 -0.16424721214926552 -0.9467120656646663
Ni 3.4534032187270576 2.7572334439998323 0.37281625120290623 0.07025822209561448 -0.32424284811102866 0.46380669858100126
Ni 0.6546957099253059 9.321134758331187 4.598319385011958 -1.0434724478158675 2.076773354415372 -0.4704548000251381
Ni 6.095849302846949 5.258080384023205 2.6498018223797333 -0.32432435208124144 -1.2729194937012336 -0.32460948742182805
Ni 6.4100126474058525 4.565505696805613 12.488765416993177 2.8518557994237725 0.9516591252572966 -0.8695486318087864
Ni 5.673019707931085 8.096581727253952 1.5158620259071378 -0.5932110920194688 -0.40483613358406406 -0.322231988328587
Ni 4.616338342040503 4.903614216329994 4.528393040798275 -0.4187730553801304 -0.9049318964040867 -0.0024682590348344587
Ni 5.6648739964947845 5.517551094652665 7.861810213891331 0.9646329118091451 -1.4268511828571038 -0.8713046952679445
Ni 6.098223952754627 3.0073569271042477 1.390313055389809 -3.1821834202763 0.9243804920470016 1.7174930550842356
Ni 7.808719286054995 8.977756597378212 0.5474182986378566 -0.4783758546444277 -0.1654296624931409 -0.6674195570120828
Ni 5.684003646348675 0.9603708636588343 0.5054872792919501 -0.7215559338451701 -2.1249455432452242 1.2796930649796412
Ni 5.057682637630977 2.7063440342253164 7.429098858702278 0.41067073798797016 0.7259746317381562 1.372110339670798
Ni 6.54436485194348 7.624887324476893 6.609411337900668 2.353224279854102 -0.20659430965690873 1.2029505207112638
Ni 9.330046791052435 8.176156151052698 9.886125466285867 0.7248947684104161 -1.7896626352699498 0.9106479729522575
Ni 9.114634823929189 7.0288312761363425 0.9186962308169041 -0.1663138648703071 0.817076015831367 1.4840389449220055
Ni 0.8041624192139588 9.166404084067903 13.564659687395766 0.20059412620941583 -0.4684405978085868 -0.010873452379394176
Ni 9.042808759789361 5.027843411301023 12.37638487359337 1.2059085748983231 -0.9349952914483703 0.15155033340788737
Ni 4.323925276914879 0.2828056667939603 7.2505166709639 1.94132635432725 -0.13766869032978873 2.4310127488884907
Ni 4.279175898176552 5.912868809363233 10.782219949575104 -0.856779505068576 -0.6225491788619536 -0.27265777694488524
Ni 1.089453426767868 2.3144132703790876 0.08714775946048557 -0.42977300603505986 0.18474018989629473 0.23953734024183262
Ni 3.548919017404044 9.137842059879528 0.1011771154289982 -0.38628485294443793 0.3118665859338629 -0.03536269577001007
Ni 0.6168810657779291 2.939211097283493 3.366967854238875 0.16322776974581565 0.3871564569161139 -1.0088394311230302
Ni 7.384252980246588 5.326396507462837 0.8601171180744155 1.3451788053872769 0.6842564260637635 -0.2599385296060039
P 1.751725310581895 3.936592440778339 9.644637761809852 -0.898412093007698 -2.414143741047294 2.1894974589846807
P 8.626648998279528 7.197932839681555 8.197608416652942 -2.1787304502761637 -1.4526231496148854 -1.7997691275763328
P 3.191784916348421 1.2565966136959903 12.122961478585376 1.7429845144871206 2.1928100682976814 1.745202605184362
P 9.196063556022375 0.6748461754167988 10.247651250557203 -0.18212434954000248 2.9133475881806663 0.617973129455497
P 2.308840884739157 7.3092197196179045 1.778867275203964 -0.5061753933551992 0.06428374967973445 -1.2719085359382158
P 4.469970976615418 4.471815824153256 12.798946729097333 -4.416307795487207 0.8770284851255993 -0.321554245535272
P 7.81619328377239 4.596726193599795 10.627592397558807 -0.25688663015355756 -0.4229652390846071 -0.8938699821629703
P 5.534675064106445 0.7027336476592864 5.553968385049588 1.0821248700807429 0.8179239656539592 -0.30303638923674264
