# total energy = -340858.52375418507 ev
CRYSTAL
PRIMVEC
9.36103553951670 0.00000000000000 0.00000000000000
0.00000000000000 9.36103553951670 0.00000000000000
0.00000000000000 0.00000000000000 13.70082174005743
PRIMCOORD
 96 1
Ni 2.163091865387687 8.565019641389533 10.249351654720298 -0.9210056620374978 -0.48911869498322863 -0.6434761588226079
Ni 6.035518133225053 0.4897927682333246 11.40955087801092 0.7162674317527213 -1.2828406094696874 0.2909231509129764
Ni 1.1671900444348093 8.674206756849872 7.983920271176735 0.6751909734273855 1.4635413391892858 -0.2590517561256764
Ni 6.1076261879567895 6.544215512198445 8.349294583451993 -2.075212694796471 -0.018950315850257686 -1.183474414264523
Ni 1.9260985353028652 4.045465004915926 11.499770663794841 -0.5939500270680222 0.14113170917772466 -0.3753836326509019
Ni 1.384955808062538 9.014021698407287 12.632417551957342 1.3752856520749863 -0.905146326407738 0.7944261396423351
Ni 3.0412131404967746 5.799339213209251 5.516512382205628 3.048420235648505 1.4667449337282483 -4.442585241126497
Ni 1.5280766763987088 3.9658587609280396 8.436020830870875 0.11803754636242252 1.7002535512774974 0.09715813181025203
Ni 4.055481312661345 7.570493892622241 9.10645630513753 -4.136056008245148 -1.653947469122106 -1.1747249502066672
Ni 7.459668595988587 6.172123721009063 9.926478314805554 -0.47175140734937465 1.7776692103535 1.8545809332098897
Ni 0.09700560025555877 7.810286172254614 2.9362918488117526 -0.7967527308929827 0.20602301053447097 -0.14148523586240147
Ni 1.3466504517127695 -0.12190033746879787 1.4442036725319796 0.6308507567491135 0.2351045012814596 0.33242666947340166
Ni 0.11430104903166637 4.577368390338751 13.217031990916315 -0.29550691362891685 -0.9957075217267627 -0.050439644707790554
Ni 0.3410580870420814 6.793406271248014 8.734232523350755 -0.2514124944128638 -1.933281629645903 0.6360634112983046
Ni 7.378789251203153 4.492529327631529 4.893029052573268 0.786394013366478 0.28747067358800166 -0.21455778747835952
Ni 0.8610504911796065 5.529132929964855 2.5830297800802304 -3.0223466784899045 -1.091831041624913 1.5133919441628259
Ni 3.7795554368632565 0.35143853905973976 11.340279216967842 -0.3461764149593264 0.6082024232219783 0.24380511437925106
Ni 3.9002098205368063 5.2546954587756645 0.0928099842448143 -1.815192146999622 1.1933050272016996 -0.8310450764169494
Ni 0.2268581371913968 3.0215924105580863 6.637842714822861 -1.3556527083354073 -1.795665389820604 -0.21501235851727485
Ni 0.28342500115776564 1.974682308385783 13.19275414592777 1.0056553769680938 0.003415710549768311 -0.6703778683094583
Ni 7.622550609792589 6.234767769076671 6.709881497893556 1.1850371307659526 -1.9879517674952734 -0.05934646027911715
Ni 8.905976629250633 8.487500908268215 0.16126536301182004 -1.6758555820491072 -0.3096227842050087 0.1975064884230276
Ni 1.108468270147884 6.430497655664479 0.46792445372484603 2.9597976521130898 1.53019538887341 -1.0184725833374202
Ni 5.1833175647954635 4.209105262577292 6.412107901864597 1.9826858911106435 0.463690227607795 -1.8803469864304
P 5.057786081743069 2.937989004507308 10.62715180522104 -3.1111968046550937 1.7391998506337076 -0.19003460552601464
P 9.248187995838729 5.94857283758071 4.709451661980882 -0.6366835613808067 0.30509815686177777 -0.7234464659996637
P 8.398224714840126 4.835583187394474 8.323098662335376 0.26672572773116643 -0.3258821834866646 -1.3635917606768255
P 8.60922244996324 6.25405150174542 1.1072812908748757 -2.511444311972681 -0.24667652238977522 1.2193281907383386
P 5.750053362480626 8.395500653574782 9.445771367411204 3.7948521067997483 2.600719955711063 1.365961546460583
P 2.4293945969219526 5.749613393822649 9.712937186397925 -1.0269927049932892 0.3437809181439563 -0.41108494270725326
P 8.279582953750936 3.60861357168654 11.645561299391753 1.1747694302913574 -0.14753555582153943 1.5591187567759792
P 5.776835284405525 6.010879888378379 13.131195977952189 -1.921143194511156 1.3706368404490652 -0.9466382750039375
Ni 1.1392192710298463 1.6712817940523645 8.193145962322085 -0.8594681076443327 -1.8002607225007703 0.03635668425216319
Ni 3.891185782530654 3.220402077751728 4.441532279654435 0.8294695043997135 2.90260114829744 0.6073110217559605
Ni 5.070554533859659 7.417721796916419 2.1096665648599746 -2.5919514654898137 -0.02421182135951314 -1.221953801286644
Ni 4.845590134104616 7.282099117836399 11.334305940358167 1.114786621979822 0.21943234196184144 0.40568871139234647
Ni 5.151461961750923 1.4283629286377766 9.138036693744954 0.035353439798629434 0.5255026329289014 1.2844457491732781
Ni 3.8159792251225304 8.79519813779336 3.4999300799240567 -0.22030497437478186 -1.0297121608069815 -0.8081283197197758
Ni 5.111668200792256 0.4037554930107629 7.2027821298385435 2.2744845026500378 -0.7247356171247324 -0.8819955993228875
Ni 7.846157659432599 8.340148851987252 7.75326717028441 0.14625823177101263 0.18622834440604702 1.1204453629274962
Ni 6.250503669375782 4.485882992585504 11.688732521878036 0.3308271861967657 0.14210615727585205 -0.20937778593931683
Ni 2.6960998529730906 2.3736683539233767 9.733734598470818 2.040890010255201 -0.3418644178475338 1.5813775681741797
Ni 3.2992968830586316 1.978145891437937 7.392675410931708 1.178341206803016 2.5335825386326176 -0.7186279615650979
Ni 3.9772979460354243 5.075731186367338 10.987592851905799 1.1096585567246373 -1.0863407079343033 -0.148612333825486
Ni 5.581741948216492 6.125524487404677 4.329363674458662 -0.5163065682519302 -0.22565235472962428 -0.4433355752108429
Ni 7.670516554547285 0.299372460854116 2.916863956199751 -0.02116583544433774 -1.3390043011454487 1.390420965054528
Ni 8.676284906681163 0.6385283855280954 11.487385078021044 -0.3927203241571366 -0.9892787353822834 -0.8898341215306999
Ni 0.6915361838824942 3.0555261634339197 1.5315458760720284 1.365935578318654 -0.11432461628720955 -0.07261232415008785
Ni 2.9500553789781905 6.046676487274154 2.4300873135323835 2.443511138465818 0.2956583516051166 -0.2865849285489387
Ni 6.970713640412473 2.379275614053756 10.612875290321472 2.4436044695105723 -0.8421239599389303 -1.9012197161143516
Ni 7.874605845636643 6.423486240242686 12.573846490338363 0.8713337487336672 -1.7858149793890856 -0.46036064901392976
Ni 3.5687449224456644 8.435481635238972 6.145037565437691 -0.7306198438196513 -2.877244671810522 -2.1333959880054225
Ni 0.5652614346291784 3.3464858618854114 4.475592406506496 0.2756579972237898 2.6527223169202827 -0.8834127913853883
Ni 7.123813372352958 7.251310672813331 2.4388829422777993 2.4372451029514477 -1.0858614543050396 0.9047881717373708
Ni 9.113173784051654 4.881836062693644 10.307127964444339 3.179817491147285 1.4704630060097836 0.5473901770306121
Ni 3.036439012505968 1.3726834908155812 0.5835744279397973 0.7130790067224106 0.9373715049900309 -0.8605464283101761
P 2.2764820856869896 3.920860264355866 2.798543278620531 0.5522999556274037 1.058799565091241 0.5858402534766943
P 3.042167966094936 4.084341384417536 6.446606125167579 -1.509905271165806 -3.1454117599739053 1.5353540502562137
P 5.238332369113056 6.561533427459215 6.404448702801698 -0.5616243183521231 0.20551341788790414 -0.7084674760923282
P 6.144574194191524 2.3435819865460172 7.089339487741694 -1.2496039589037446 0.1964453941483649 -0.1901988990180208
P 2.2345352866148214 3.571880869263155 -0.163768503844647 0.14679019301508267 -0.3951075934423905 0.902790938801684
P 9.208291263492024 0.7637209991034948 6.465581879775744 -0.13363925745542146 -0.5171074668866708 0.06974194458082827
P 8.426794594502757 1.348644352226577 1.2467597803851191 0.670185292682678 0.2233887555064282 -0.640705023835374
P 3.2924726883423605 9.359312845601217 7.937296698880631 -3.2754242193100174 -1.1913093369279095 2.93186981535457
Ni 4.774979845017053 8.668852244671946 13.300688754868165 -0.3973387967657544 0.12894827973765535 0.6873216952526484
Ni 8.091978445782775 3.8573643620781333 2.367967483440237 -0.8863991277072218 -0.15902247341521644 1.1949302215099484
Ni 4.119660570514232 4.329319677592864 8.359939952767965 -2.2114896469850556 0.36542857832071907 2.319356423462063
Ni 0.10132103751783718 7.5801170368860635 11.201119938760511 -0.48909838326825444 -0.47910090573591035 -0.5105131014986046
Ni 7.3570997324684475 7.692514987446101 5.058850431453962 0.1486727547497762 0.6206195659394086 -1.5700917108477153
Ni 4.402551056557733 1.1344732261448678 5.067235110750757 0.3339683029289087 0.04485469442084533 0.14798652731602902
Ni 1.856995372894754 0.9435361896184188 5.758537268751349 -0.17175869003496225 -0.1763023435415867 -0.8755125627017052
Ni 0.3406040768311909 2.699619602236901 10.122330830955477 -0.6656686357592471 -1.869143147294781 1.095627789663184
Ni 6.643077405749252 9.005531239411871 1.047444617286568 -0.5170758423177869 0.8659318609918053 -1.674438904207239
Ni 5.481007847610465 1.585656404381951 2.209736968064926 -0.17733464146084296 -0.8453080140938667 2.0635134040816716
Ni 2.4461602111014336 6.68260905772019 12.02112790687562 -0.39039938933344376 0.25882087106179297 -0.6601392213005857
Ni 6.991953829453926 4.80713500119043 0.5473631351812905 0.599522121839161 -0.7197926712971603 0.5077797617278417
Ni 7.518755450651281 2.024866818500912 4.323074930960184 -0.2572116175931441 1.407180443901054 0.5617716425632647
Ni 0.9390616147564469 4.991931198575762 6.316051510586034 -0.24771396251535402 2.2580782933778725 -0.22521938095726377
Ni 0.33840985016247493 1.5248190361226288 3.4361112219292993 -1.0665599257629503 -1.1381816038649946 -1.4503744627900246
Ni 4.908795844288789 3.657712201709643 1.228610605191832 0.615621598504185 -1.0551146600404862 0.9348487385681772
Ni 7.1598346360953595 2.4157462074894105 13.00905318966974 -0.040402315076446545 -0.5986754575681497 1.7078028243796655
Ni 0.364971787758386 7.768573399064348 6.030142090665993 -1.0477417646151828 0.15625210975893092 0.2637525040354554
Ni 6.322227921661199 4.082366205974281 8.810614826789555 0.7338092972912265 -0.3965232428429945 0.1582233745526888
Ni 2.8224925512708845 1.9209218827951864 3.046158575433134 0.46225529493348133 -0.9014161699413443 -1.504394882870538
Ni 1.8216574647275066 7.235612216655325 4.378385543992501 0.6071724392955673 1.1018604008364572 -0.9030693892740511
Ni 7.93677248090517 2.401049382105946 8.138192004733787 0.7485340050959108 -0.42555511129897033 1.1845491353859405
Ni 2.5930254935480415 6.281788249268481 7.482155674928816 -0.6901537653848049 1.457043133059452 3.830231000519675
Ni 7.077897494323728 0.5019742834381031 6.123910644923079 0.8222218216983647 0.8238434164621876 -0.9885971359342265
P 2.8248983373368404 7.774564461641048 0.20751355779335265 0.6331832615370321 0.38902487758342036 0.756602126816026
P 8.618499235921847 0.5511243991552243 9.168452569564032 0.7211545846416935 -0.17362376826815903 0.8953519660251354
P 6.073879655786477 3.436904101617184 3.4793236329707953 -0.7795569358399864 0.24301655703968472 -0.7829484780200386
P 1.7847843467749802 1.1787883671418875 11.381711159099822 -0.6643239488058946 2.0126616115371276 -1.3333226773796394
P 7.1260319377133925 8.28973031599022 12.45226536417248 -0.35282168818998594 2.3037709103189807 0.19869433808354167
P 1.8612640049806521 9.554995927012644 3.618208632844534 -0.734640020722638 -3.289715439121709 1.0034167174455622
P 5.770085977971463 9.015519464051462 4.300098269875016 1.556270745804223 0.007558014852916016 -0.3956935478528476
P 5.310674449726695 1.5456005344355532 0.1043764794319536 -1.0471311276143773 -0.5038927679686096 -0.3920096712433571
