# total energy = -340864.80288672826 ev
CRYSTAL
PRIMVEC
9.28547565787489 0.00000000000000 0.00000000000000

0.00000000000000 9.28547565787489 0.00000000000000

0.00000000000000 0.00000000000000 13.59023221556606

PRIMCOORD
 96 1
Ni 1.3186675389651838 8.994654552683498 7.938937755914052 -2.7060847917018234 0.9127845596792861 0.33473423456065576
Ni 8.28637704104953 0.6975295735690431 13.26541250897394 0.3349090695756232 1.6603088925637601 0.8379482312946859
Ni 8.401600508390912 4.872776198775581 2.877649687586431 2.823348693123015 -1.7741223735425058 -1.8119607845465182
Ni 4.978259202160068 4.041976835939298 10.68990012792156 0.327740576851642 3.126822169897176 1.2498458997112216
Ni 7.657871050725079 0.7624721902654428 2.649361625992303 0.21401657026290885 1.0136314531950348 -0.07063026072305255
Ni 8.050999518796594 1.001633543845771 8.933580265142906 0.6796245837187069 -1.0431430895009066 -1.9174027536321174
Ni 8.660785990210558 2.3366899473332805 7.193486771062703 2.772478131525393 0.3273878214979136 -1.8538258002114203
Ni 4.351796016478628 2.0646719381652754 11.437892547458326 0.10927059880306986 -0.8922589289221086 1.0411067757971681
Ni 1.0891955792256751 1.4288954204068423 5.558269010259473 -1.0375959344304324 0.38509957438708514 -0.8234672640696914
Ni 7.194358677226242 8.528607244332196 10.405075590737015 -1.3562435478418706 0.2666740485576246 0.6227546100045405
Ni 9.231982024822942 6.950522086656116 3.1545240005194084 0.5899159662079646 -0.3026440388943304 1.495696840875908
Ni 4.164294406677312 0.20753038077845742 13.04845737041069 0.8435336958022635 2.1490277810054086 2.009661134147907
Ni 8.086730029097959 1.3925613541882247 11.052160889289635 -0.29337366933599796 0.8881492776291091 2.2386803484672346
Ni 7.631667438440659 0.5110094385439375 6.543044773062592 -0.07569944771584382 -1.2492548030944421 -0.8645092696126659
Ni 7.054454415607046 3.018893843341928 3.4453274554750153 -2.424715088805237 -1.0220669855568978 -1.110313930920449
Ni 4.513920421328375 6.898588421345427 3.2906026461707865 0.8136153109762763 -0.06563794971478372 -2.8204757424505944
Ni 1.6739298373358227 6.028381499850362 10.922401938365677 0.16684659744532554 0.4568824606573422 -0.3058625458316281
Ni 4.3168640570831665 3.35968008517415 8.705413843279793 -0.6105822363080646 -0.420803712656914 -1.9988391038317381
Ni 2.795661723239248 3.089862733735205 12.827276411879103 0.44646152243433435 1.1522501661429188 1.8253991694396108
Ni 4.704662662131556 5.771405961235427 5.289902978664631 -1.209425586912646 -1.6072207544895287 1.6259566403361352
Ni 1.1934900417269563 0.6858828014611944 3.0097467212790705 0.10693655135325456 -0.7966529720903247 0.26796088568984816
Ni 6.413301607447238 4.380515992664209 1.3618087873828477 1.3552806697079691 -1.0810025835508414 1.5923800899322704
Ni 2.15883594673236 7.086452164697094 2.926521003027737 0.41907336022936853 -0.4918114113240433 -0.7094002723192427
Ni 5.447082867730731 1.607455117157166 6.9240742663620996 -0.22358750178079556 0.8510354034959472 0.36283073568655577
P 1.9623552819774535 2.734962568914918 3.783575048264516 2.636068767524002 0.5936821181186163 -0.20552447363149767
P 0.6518153198487522 7.034982773168906 9.05385317414278 0.619852862976713 -0.08848811484007987 -0.6888404458900201
P 6.239672498267087 -0.07663860182519358 8.447593326380703 -0.3734745885536471 1.1811143986727786 -0.6827854979451918
P 2.644772743926052 0.4936660271247876 6.494758442587239 2.3861346574288778 -0.5105174723739788 -0.5307664524310021
P 6.710966100360661 6.700687078816064 1.2113246548079937 -0.7781772818836404 -0.24372978105662538 0.41165624182969107
P 8.17995620462439 6.933743232156489 11.329768754798966 -0.3111973277809802 -1.4156177760351298 -1.08475433728379
P 6.435521750677791 5.502981431143988 8.720798019336783 -0.25033648773986567 -0.16458685487687139 -0.5342909206444928
P 0.5753299283717843 5.688189528459742 1.268206550092591 0.20678379995989551 0.662623164064704 1.1233537948235428
Ni 7.090361349945762 2.8683762830547335 12.916714113340317 -0.7150608130391297 0.43152289884663103 0.5831832754698215
Ni 1.7888097420781528 2.468144426110937 7.671400917294757 -0.09369408452105155 -0.6141725247624842 1.5080324796231253
Ni 5.163987286112224 1.3729875715179343 1.9882376168043827 1.5141653319937407 -0.3563484703963218 0.4768123668120498
Ni 3.6374458037695314 1.2655824746738888 4.189569471396728 -0.5716138254646672 0.7768719328086556 0.7868732669957416
Ni 8.004312147228179 7.9114852471547 8.158216120484942 0.6925140380868653 -0.7264595417943748 0.8684088617773883
Ni 1.2593333495614099 1.5000314493618205 0.4565352670953962 -1.1851093787647848 -0.345849627747527 -0.5786869302613646
Ni 3.3101884999594215 8.165851567111973 4.679484166358899 0.01342835759076397 1.5895374782771525 2.203756540006856
Ni 7.783484965318859 3.6317816636230056 5.415340469221059 0.8310296497979818 1.6195916173500557 1.6129442872368673
Ni 7.69258944418059 7.900630526119801 13.174751910369618 -0.13442267258866525 -1.673499937332737 -0.1943016083324847
Ni 1.2809499368747097 4.338072083467864 6.052396525524069 -0.5795536491370341 -0.6033126992298449 0.6321337372265953
Ni 3.293353932605894 5.821844664966459 9.318319305964605 1.2313385849356535 0.4623457977647586 -1.2996383977533166
Ni 2.227112049187125 0.8717176683833266 11.672691584578262 -0.4774793109720873 -0.627552802724132 -0.16767860642831767
Ni 0.10656661839284665 4.033369200011708 13.456083251614615 -0.32369777424083607 -1.8356208471676192 -0.1642163589113301
Ni 6.6808068754493215 6.605232389133623 6.548045930247705 -0.5287882456587086 -0.7903134030255421 0.48628791040265285
Ni 0.28494989110581964 6.251502194245242 12.720239948418367 0.6743077994914839 1.196566471561791 0.9542608245462016
Ni 8.735654780376853 7.493703841232322 5.983684005713751 0.8953308829792128 0.3572660971145847 -1.3997347862562861
Ni 8.663293068636069 4.825503842241213 10.661985202474835 -0.31852445757001274 -0.2261429212127976 0.7011480596127796
Ni 3.063779832634235 1.903968211089984 1.7872516392640754 -0.47080781248918274 0.013229611316396571 -0.1226760735756984
Ni 5.265783955663644 7.382463842944809 8.7586604748474 -0.198377063953439 -1.2326735016969932 0.8341656243238021
Ni 4.916733640502883 4.929250461679142 13.501529155088619 -1.664674111510991 0.08689274532850197 -2.133960088039009
Ni 4.805345074604969 3.357897273849342 3.0705638011441563 -1.6069800992336325 1.6022839793095438 0.8869809683526207
Ni 5.811565643421862 4.140347164975852 6.956500075879614 0.14329195005383707 1.2895488747277986 1.3226045196311866
Ni 6.187878115091148 8.943649434937813 0.9738096160604177 -0.1270968283512134 -1.1347905759055747 -0.2500215276026081
Ni 0.7983809816992883 1.641699951354524 9.897317925765723 1.1119725495697945 1.1866124456728726 -0.5683456962363567
P 3.020695225618036 5.715423828541319 6.917605075476715 -0.11411764248272604 -3.6419979669787725 -0.8701494986175788
P 4.027342926314831 6.150773354393577 11.766504602165776 -1.9860617495614121 -1.4717470149285297 -0.6854730720796839
P 6.076730971560135 0.21003188791857902 12.241918169805274 1.7510922311959198 0.17656459606403785 0.1309126025528778
P 5.57265964042191 3.113967828522717 5.224125597707292 -0.4025059427889907 -1.1941108109324468 -2.009153855494185
P 6.931031873266677 3.3088235350388655 10.74987408659762 1.314151246657511 0.3247215875196601 0.8627534632638237
P 4.7963567341757285 2.738370338478483 0.05622912634639942 0.7174632518330353 -0.969099689331247 0.9951709324970024
P 0.9852911067016956 8.484909795923096 12.828662733393656 -1.354924314809815 1.601860261508564 0.8709046316160485
P 3.8080014205095183 5.251205758893076 1.9742119058349932 -0.2888205027476768 -0.661111612516184 -0.1578924735758313
Ni 6.562138496641774 5.505107805067848 3.6260367398383235 -2.3457040602176567 0.687128862515552 1.1168324487652572
Ni 0.3353607384099022 8.548171741526836 10.60475695894849 0.28957460730488194 0.2749548005091781 0.35182075772929733
Ni 4.672748482322358 9.032418582152221 10.536140079537368 0.06838568766324997 -0.14618444111028372 0.08769827194893284
Ni 7.158210320520625 7.8978820253273865 3.471665707156362 -0.46882034974550874 -0.2662500736463286 -1.0904722136041733
Ni 8.518123942323298 5.324969577457017 7.810075781937887 0.14185521760731054 0.9656194440921305 -0.2561330398169847
Ni 4.373440460218878 7.072310385282079 0.6748145144863432 1.7531216029211225 1.4013607518954834 1.0006319556115735
Ni 2.5251572466022 3.823090318440838 10.178893475020317 -1.5645203874075249 -1.493367421411783 0.5556156502641979
Ni 1.6783775801721932 6.507595612673423 5.155998062862928 -0.4074859125020853 1.6482164801755999 1.8754490349081505
Ni 7.349537546289758 5.439561632454195 12.963328129651098 -0.07397218061209196 -0.5525295551397065 0.336874163721794
Ni 5.02652510458899 8.558915036853938 6.715028495957555 0.4702848501061771 1.041424307037587 -0.6658455276567435
Ni 2.673464863684684 4.989708193636571 3.991763769266561 1.2980625686257643 -2.5662527751721287 -1.52134256646847
Ni 9.24248389778314 2.682156068893124 3.7421246849627243 -0.7677357748353423 -0.30486058692967494 -0.5284334334224513
Ni 9.014154051548587 8.480229916195473 1.6345789200785061 0.3682760750718432 0.49079993934039345 -2.009197564247927
Ni 7.403281879352206 3.293818206388396 8.550022336823892 -1.3029353233370333 2.0457913042115607 2.225989640373444
Ni 2.972800742215115 7.860489414884665 12.429246141211934 -0.8587911361819661 -1.1912100923458842 -2.353534097785037
Ni 2.494403751249258 5.924681307790684 13.689576750858157 -0.6554371878392261 -1.8597943590900292 0.5780330987274497
Ni 2.65089187237943 8.161895954485056 9.687783739341986 0.07500756385514179 0.023157411953069792 0.5995853709769287
Ni 5.996420892662916 0.5864882844604409 4.595577822742417 0.22969541445074637 0.3093944702442865 -0.07930079191385697
Ni 2.3085642415893006 8.349620415701972 1.074684237879788 -0.9353786429297182 1.417306219481146 -1.180906653537347
Ni 3.058115692487709 7.6619195181084985 7.263870676490027 -0.34322350297858956 0.7964048606352607 0.5947200724648274
Ni 5.898403411701063 1.717952277392676 9.75423988856934 -0.4156352810820971 -0.5885797638950444 -1.19385292928537
Ni 5.989688922816633 6.443572258066378 11.331807845251715 0.6160453163051648 0.27765240194599927 -1.5823067648566687
Ni 3.4832140532223197 3.213275990599924 6.286637505557439 0.9670037260341667 0.8337254514625899 -1.2328635062206121
Ni 1.6780804449513917 3.780395701401941 1.7166225972795897 0.11195611605503299 0.8840154579663937 0.6951995553388286
P 5.680157592022455 7.63205742841796 4.92557619896442 0.04331177541375767 0.5195507862208407 0.09952277538768667
P 9.042335470146467 5.529983594334313 4.9078539401387475 -0.6433275490598857 -0.40453068652850327 0.6860153177363991
P 1.0531029353739585 2.875544670256567 11.793698974702057 -1.6412331068792316 -0.7302989701451229 -0.8888817849197594
P 8.04333900138531 2.607027285408628 1.5434150486939506 0.4834440131959545 0.5143119064194046 -1.0214303804141636
P 3.3559101820602324 1.5643612246653174 9.497031284515591 -0.631469621280035 -0.42304751438576815 0.6202719527920028
P 0.5493621671688744 4.098200391000307 8.993268231168946 1.1404698856785391 -1.5674730422779455 -1.0190174000972965
P 3.578780168612561 8.985814779864658 2.6252518884669667 0.44995359474799285 0.6051692928226093 0.0014668143535136028
P 8.5508552439897 0.032416524041864556 4.544451065265716 0.6000479124356439 0.28986976994779756 0.05607087485163892
