# total energy = -340865.90924676525 ev
CRYSTAL
PRIMVEC
9.31293427314932 0.00000000000000 0.00000000000000

0.00000000000000 9.31293427314932 0.00000000000000

0.00000000000000 0.00000000000000 13.63042067457622

PRIMCOORD
 96 1
Ni 4.099069329781801 1.7304642287929193 0.888569396023322 0.14011946586312643 0.5348599057740853 0.8193694398512339
Ni 0.08332375292058751 0.10413071034535941 9.302202832213467 0.24895426268035836 1.0531261688555476 -0.16806710011598797
Ni 4.9588673471156195 3.7649678180041213 5.639396038987013 1.5230595491595769 -0.872750940796168 0.3475982350075175
Ni 7.673475889695473 3.5475294320254385 12.9487222349466 1.4385335042910388 -0.8080879534001437 1.449211295719859
Ni 7.862034866948789 1.0070075670667733 11.300845105984886 -0.7636011838416784 0.9453640362772041 -1.5946406038316732
Ni 8.42548600745257 4.701476473735507 3.5647909554283634 0.6632973073135932 -0.21110968102875902 -0.3546371441321699
Ni 5.675404498785993 6.170405573462153 7.293978480519597 -0.509513970810129 0.17939512353429748 0.5596941912089457
Ni 2.8721927009294044 4.3605951459139485 5.194594473131348 -2.253516642149119 0.39998908990440796 -0.021956706776749282
Ni 0.9870778880366902 5.172366361958916 1.2900881692340274 -0.5025668500683345 0.04946159706523739 0.2348985559182406
Ni 2.766444333926323 1.608949064314169 6.755291363150812 -0.09552085331714516 1.498570305768961 1.0512942578531315
Ni -0.1700644213720804 5.98726672387029 5.555868332809062 1.0819042694295045 -0.10647889499054565 -0.39876627324090036
Ni 1.4917830400723575 3.080383343320764 3.6716401112451624 -2.748518278275686 0.33552459167243504 -0.7369265027639695
Ni 1.5969074404889834 7.93954641768121 3.056949207178989 0.3498260958967717 -1.5664533427641796 -0.14354957459059794
Ni 6.736063879353845 1.4566080878776733 8.877220121471783 0.1628372191756163 -0.3948682237380748 0.704156250311484
Ni 3.6927087621188805 8.216820405420775 5.375906125047648 -1.3489403293122382 -1.2422560031791057 0.5955914193261872
Ni 0.4096070564993162 6.453425641557587 12.527447003280558 -1.9576610869315318 -1.4871512652987422 -1.035532109922868
Ni 7.130699462951871 9.37104683515463 1.902329771625008 -1.0047166672039085 0.03067608892761814 0.8265788131154796
Ni 2.1638788700924714 6.607303252124906 6.937297759952928 1.1060016766983403 -0.3420377102006045 -0.5265863529113834
Ni 8.385896724482063 7.679380289931489 10.46421021840977 -0.5983571549967824 0.03627080940657624 0.2339325924605455
Ni 8.146032793127473 0.48690627233366035 5.150663500271204 -0.2622856896819418 -0.02213205601234898 -0.28700556102612507
Ni 4.498845653017493 0.28038823291136755 9.090918433105383 -0.8216381812807527 -0.10712912698003485 -0.6449941381290311
Ni 3.7793004236243544 4.66095589735238 7.844783587773403 1.0907324092440958 0.7678537884704454 -1.054626664660474
Ni 7.733646757084897 2.1322800846022507 6.798049837604467 0.5352679398457815 1.0279684386429975 1.997635827552256
Ni 3.2608680066866578 4.614922063966539 13.640506539002928 -0.7100317352556547 0.5917985279426582 -1.4639565723498336
P 4.385181292007136 5.856969462510526 5.601557587632234 0.26134929391060147 0.738278903026806 0.23809443714771897
P 7.838854973908659 6.131253998395578 7.537977354626223 0.47568005297981947 -0.42401347784346327 0.1862939075366598
P 5.5756257225578105 1.4911963252224067 3.1744020697918875 -0.6730903821446149 -0.3075589596974445 -1.016148306079618
P 7.960314260782652 3.4459346336426453 9.156684511317831 1.072342336772682 -0.8159354744690206 -0.6165384538914994
P 5.0825803640481535 1.865362079611029 7.08833678819858 0.4455140709194005 0.7165471677766692 0.2702075156321798
P 6.346252395633194 8.89814535315996 10.128642850800626 -0.1197758692097679 0.19824362369936827 1.0710593562952007
P 2.071680822243021 3.8529191678920216 7.108877395707342 -1.7077256912848267 -1.1313908061954063 -0.25031926134868504
P 1.5485267477033375 4.5076650016350115 11.737563976312416 0.6745209439435546 0.5914388306103943 0.9822084587990633
Ni 0.19971866621674905 0.36130552365374313 3.308280154323178 -0.608869624492332 3.2595345446629542 -0.37320179450823465
Ni 7.406865211530416 4.506947905707293 5.858491195946749 -0.7776941715996348 -2.0313270491571145 2.3536374561321205
Ni 3.624677778326938 3.0480767748369515 3.334164523433558 2.9997824200361434 -0.11473727834459593 -0.5018502836172841
Ni 6.134737035758779 0.052203652244453884 6.3843665098381095 -1.8670353569231588 1.5408675238752751 1.7988586999469214
Ni 5.684167969798754 8.444754468159694 4.280470385865713 0.7838244528670888 1.1718345160327495 0.6612052006712548
Ni 7.234892569955877 7.5392392572003235 5.96929276100671 1.4122619721890193 -0.4891120101150093 -0.16559806975020513
Ni 2.689091103074047 1.9233816592172992 12.631256417398564 -0.8670096674370165 0.9393029176847888 -0.7021749582153971
Ni 5.9076783888277244 5.2495612729310475 13.438354403099002 -0.9676439307213272 -0.4624242164111777 -0.2068318795890115
Ni 4.963486562442218 1.2700513914614928 11.349615079417006 0.39501914749364225 -0.2881173060330651 -0.592673988569076
Ni 0.35330198806568075 7.190861017407169 8.30252081913037 -0.2442206046501149 -0.40190918974525625 0.6110895149617863
Ni 1.7366666429209732 3.6053720658833104 9.85844669299698 0.7488723622719361 0.5025367681613474 -0.8342702682224665
Ni 6.618460147208102 2.177615447928627 4.959564885881672 -1.5489724123705968 0.2732445026862907 -1.112964738279735
Ni 7.329595797085276 6.39836757500345 11.915904802242455 -0.30731676177965134 -0.7341391698268196 0.9497953325756805
Ni 0.3786173369009495 4.75565912448178 8.048395060454906 -0.944696063675902 0.7987106259503018 0.3570694077227463
Ni 6.532492452289085 5.866934302025568 4.550256774567807 -2.3287970000496734 1.6328338270719425 -2.3721298585093535
Ni 2.470898369431141 0.8167266282935226 3.231881499218838 1.7533077507899997 1.5627617528452054 -3.1304844492401123
Ni 2.406918511984098 5.818255595347884 9.355879790636687 -1.1758945450347362 0.9400724488609616 0.7898434053676591
Ni 2.656318887883924 6.426716146483624 11.977445602241845 1.3295961204576714 0.2604586637755321 -1.136332723581714
Ni 6.0689970337618835 0.7659906944673589 13.277201528392288 -0.9357995325172207 0.49409712203442646 0.6167210022159507
Ni 3.8446306565196973 8.706112651477568 1.8576900844778594 0.21459404003293367 -1.197006387312687 -0.5861117619705261
Ni 2.0425313384279926 8.961966890726856 7.92303644806227 0.6379547147837464 -0.17661318991378613 0.04138370515310937
Ni 6.248140634613603 3.5817824037416277 3.076099393622709 0.5347143813351565 1.2361822861812002 1.7069294206357761
Ni 7.844964258695451 6.726546060676862 1.8533688830432995 0.221244969690548 0.4246079168943526 2.122065650594268
Ni 8.933860455533964 4.9707506510606585 10.49580527872634 1.0305480264447155 0.45405553273150834 -0.08979526368727761
P 2.3758598766731973 1.5216403068809776 9.268467659634695 -0.48076286681936553 -1.5091079720754912 -0.1782826071964091
P 4.3687253374061275 6.921139819243959 13.953598071391884 -0.4383972573689611 -0.8682299129973627 -0.5927824891224823
P 4.6851229614098875 4.89703877745173 9.805247488094432 -0.023189550742585868 0.36029768485205693 0.5302871988017384
P 2.426354605505492 3.334551941493208 1.4930356297123324 -0.5694967791216644 -0.8684469141041754 0.6494544878932299
P 9.100897242021613 8.706252345489462 1.4604040398275153 1.1991388602746573 -1.2891153867348057 -0.5723730722281949
P 8.032945834032942 5.467996142861234 0.29861550758318006 1.3114857840102059 -0.7230718562690643 -1.758565142534197
P 1.1910497712688781 7.6787656362791585 10.543334769332851 1.25272167859712 -0.5621462522938642 -0.6057850720297373
P 2.8018521094741624 -0.07785612929509132 13.286470691728102 0.8492538861154922 -0.0014470168591717016 1.3638648118325545
Ni 5.382298523031877 8.153715963781595 12.030440853887027 -0.795197984811353 -0.28492142480358673 -1.6828690372524628
Ni 4.771463173693954 4.517285262587383 1.712307732420466 -0.7653366784755464 0.4308580115691224 0.5103693768318888
Ni 0.4260173777231058 8.154870767613245 5.653939116918498 2.2194526105858743 1.512334192322273 1.111027669158022
Ni -0.4035806568262476 3.083624244396684 1.6540376348862007 0.21557671566117714 -0.1984464837387937 0.1014305339333608
Ni 0.7975159077779825 8.908855227405096 12.36212379667213 1.3437646986485696 0.49786173128318134 -1.0516444421036986
Ni 1.181876531154564 1.1775832685223826 0.9240330491759187 0.8295823758284939 -0.05693707950667613 0.5654786591012068
Ni 4.283307105600556 3.4965038659479495 11.544897995109443 -1.3546340372629058 1.8871557818221174 -0.8342882659445955
Ni 8.3047810682428 7.864204780600195 3.8559365585489123 -0.8624323324789793 -1.8857717569903976 -0.679376986484275
Ni 4.187551516914895 1.133579654776054 4.975717238830166 1.3068161464486783 0.9671996440950569 -0.6219367420889353
Ni 0.21076846255749376 3.676262120451999 5.879345649335564 1.1267448227829626 -0.7336344622762592 -0.5119608896887248
Ni 6.696800549077756 2.306813783061498 1.3296942154859608 -0.8623307739041084 0.019172202053076657 -0.9886012496992845
Ni 1.8202129749671772 7.305903692668205 0.3475316940810828 1.4665199622016356 1.2730009976714463 2.146403198898368
Ni 0.860686471249458 1.7919947845647697 10.840913747347782 -0.5923736837198379 -0.8547681310655021 0.9064218506860519
Ni 6.677476210765876 5.825761820253606 9.680256736599784 0.24320090513634893 1.2504441954168528 -1.6877752163048287
Ni 8.055762522642148 -0.1799668642284764 -0.49390214844926716 1.3466659314557647 -0.330711743664824 1.55118638930278
Ni 3.213120593421594 8.882881454127105 11.211947561989762 -1.3053871273116358 0.1409375908890476 -0.4808086324556364
Ni 4.123599598270231 2.7425287190902234 9.339277622969899 0.05175990618111086 -0.5273240024083563 -0.7131548542656686
Ni 6.0177386443312395 3.6798010354199575 8.215995279457193 0.46907154652436633 0.6926109686760459 -0.7927268975630412
Ni 6.600635191290541 7.658044357848348 0.14957224112077433 -1.0911774672013144 -1.5411146068890749 2.091183616303431
Ni 7.353800112879289 8.22346052745276 8.319299932545556 -0.21360210843330957 0.2381119206492157 -0.5311081520411369
Ni 4.277719345124832 7.127020853972019 9.821072025761683 1.173870829736488 0.35158678734162035 -0.6148039876988961
Ni 0.5185767674166528 2.2994100004311635 7.984182379654707 0.5531520192150537 -0.4585642192351393 0.8656104730966447
Ni 3.6016934569034587 6.25721143245253 3.7207500067728905 -0.3188777271443734 0.34225239731457185 -1.3903317477748314
Ni 6.875031482385108 3.973447161353394 10.933887562609947 -1.9473872158093495 -1.3354818898144871 -0.16997537288229436
P 5.749842781256766 7.6659231001191195 2.4843490401896213 0.6903010895959467 -1.9391979951303377 -2.4745687791025706
P 4.143370957420168 8.003619404469514 7.543973952910088 -0.21312054081120071 -0.37615470648897154 0.48217877333028575
P 0.9719071183450988 5.909624792060102 3.4013619996212054 0.2932793098499788 -0.25636469621181657 0.5305160269830927
P 8.653848465161294 2.537569664840657 4.20093606584108 0.07683947485755799 -0.34622192348528114 -0.6801701718095319
P 5.571295208189124 2.9792541916442814 12.998459822234434 0.4852972643546094 -0.9056438348694468 1.4042355023401172
P 2.0130372760502953 0.4402168083853338 5.07057133549241 -0.8304745486254601 -1.211300949558488 2.6801834984550297
P 9.237043026012635 1.8250091360421736 12.93337451950661 -0.43298405677318974 0.6106709393671289 -0.33743594976253494
P 8.90482272692845 0.34186011719822273 7.149605650521484 -0.08758385785825562 -0.962097546981801 1.0037432475470456
