# total energy = -340893.1483651536 ev
CRYSTAL
PRIMVEC
9.04909640052489 0.00000000000000 0.00000000000000
0.00000000000000 9.04909640052489 0.00000000000000
0.00000000000000 0.00000000000000 13.24426727885340
PRIMCOORD
 96 1
Ni 6.44974347655452 1.8899671319294946 11.444954196939173 -0.24638187396749178 0.27267268934322075 0.2719772059380929
Ni 4.417832218110491 0.40816492368443014 6.048921894618563 1.0073595041433943 -0.6623781379334335 -0.11259477808029641
Ni 2.619315254646882 1.4589948656167828 4.845706978717101 1.000807047736857 0.7751842606935875 -0.3072635399442128
Ni 3.234138013015937 4.500794334130206 4.918523247825679 -0.5879187332722778 0.6155107839579335 0.13037858442627867
Ni 5.291612968859147 4.456788578217917 2.3178663250964506 -0.5721540142388533 1.175344328958221 0.9219091476883736
Ni 7.450084889896079 6.115171234451889 2.652363459698758 0.12453986625731456 0.4854893257607575 -0.2514304921349928
Ni 5.086813818580113 4.440011553446913 11.52663134126661 -0.8151098932439317 0.9012619037516673 0.19763478647077576
Ni 5.608448981969779 7.807189382095688 12.491674944185165 -0.7469664034984749 0.27479513500286223 -0.1505756281994439
Ni 1.8802393532731692 6.45921788051096 0.16902626229374473 0.16170413401243763 0.7368213446446729 1.4235894813866965
Ni 2.8776760066624667 1.6334795428737792 0.47429843508352293 0.9165514829208861 -0.904996688203751 -0.721089535731713
Ni 0.6384915749769481 0.09496393260751469 4.779591565510857 -1.3937454014420707 -0.8955514836304511 -0.6763466842983836
Ni 8.740422696353235 2.351860160724686 1.5206011140747036 -0.6347092112632553 0.09391699916513502 -0.36763484194341844
Ni 6.927816289756697 0.9652128210216925 4.8093639976570675 -1.0483174346129946 -0.016751765537042117 0.23756838944091987
Ni 0.8079422398930014 7.245222395942072 2.2205731550692724 0.36696044158421315 1.3147302590894325 -0.03421829775292171
Ni 7.700627222600906 4.064374511769952 3.6578682874601305 0.9974347888305145 -1.1645145853325687 0.7486587035992331
Ni 7.659851994112159 3.6185707764175024 12.58234508053926 1.1941390930672207 0.6807509840136663 -0.8807095335216122
Ni 7.704898396113264 9.018827196949063 6.871470281050332 1.6157853562300881 0.15884995239309416 0.7007433679751931
Ni 6.941769996443259 0.4989997535934505 0.4050773719843945 -0.14786260014365504 0.375211882959728 0.266874851714521
Ni 1.77813839831566 6.627141962860201 9.23973102413476 0.6703624416904908 -1.2203134374697435 -0.03201537656433196
Ni 0.22268649918132197 4.804916366764432 1.29803587278547 -0.4950147487526894 -0.113953606101036 0.2094330646572845
Ni 6.010265059602788 2.1632045984669395 6.996588517673171 1.7636623545514465 -0.3804219664057577 -0.1400050517724492
Ni 3.289654219580177 4.113583498126323 0.24969533727949422 0.7199379386257729 0.7893939765350663 0.20311123620431473
Ni 6.02254468345082 5.66051748279629 4.731130034519149 -0.21317221998474253 -0.5081417730529507 0.6660481305858529
Ni 5.175558307215075 2.829227144405753 9.415840014199954 0.4054693962926888 0.6633641559957866 0.04493696972200648
P 0.22120516209663313 5.607046372023984 12.419573553694121 -0.46891368079026347 -1.965735379299234 -0.8507880633718314
P 3.799082151893208 6.106357414534437 12.65468536717591 1.867977152011138 -0.1690955413805023 -1.6941620936677788
P 2.608519682612467 8.607201898791908 1.2591510005397983 -1.3922654744624345 -0.9052638258222088 1.3560538004285678
P 6.240790791016646 7.88621514117075 5.985494967960035 -0.9723698754420866 -1.310272480428395 -1.0409933901477557
P 4.857428273315741 1.015779171841737 12.637216086528433 0.3118899829726306 -1.0432737015415001 1.2674283886796753
P 3.8889034830026863 6.095914757260577 8.13611227330051 0.44309054907957235 1.1458090385032653 -0.27663424509413004
P 4.842614902468853 1.1339875184348365 3.8772192896993856 -0.5800943521318527 -0.41122429649859504 -0.06162625745222935
P 0.4108642691478552 5.7301050343006095 3.631511889214164 -1.6750366856922376 -1.5579710163247813 0.26364014682730724
Ni 1.5473954885876156 1.1996477620909285 2.4747839914645864 0.1636275762873956 -2.114151537953514 0.8454332268178214
Ni 1.9745490362091933 6.611568467913656 4.67790143953102 -0.8938409286972476 0.26662494048724406 0.17057161170539656
Ni 5.915475774556266 5.6067929973240975 9.09273297726715 -0.31264100220604224 0.17358160217631396 1.335229407484049
Ni 8.436499743840349 2.2304212867080437 10.270558843330424 1.048958153520787 1.3096492450220996 -0.46229540414279735
Ni 2.0657277317823444 5.216514517632313 7.169757456310047 2.08704748264787 0.39218039249326647 -0.021154779700744215
Ni 0.4710036590753665 8.807096438808871 8.977030325473992 1.8308121129250663 1.4640504176152205 0.2781943904923983
Ni 1.6107572617518873 1.10514804812999 11.451218886393848 -0.8848796057389017 -0.1678830091296399 -0.13216755800590144
Ni 4.208354684979996 6.703959742407689 1.4543128631267521 -0.3565564726420698 1.0116524750917932 0.7319578459047846
Ni 5.572451676393162 7.870306829656498 8.16952787166722 -1.3484711029853036 -0.16416673662031725 -0.7873309233584506
Ni 4.944951133933399 3.1155134079873106 4.907861602418346 1.7822437170980596 -1.0516464989862275 -0.07420049457281415
Ni 0.737340284679496 7.417173326200213 6.9238383069684915 0.06190085126985468 1.3719923260356952 -1.1022311539123146
Ni 5.110739629526462 4.50852226247672 7.109866916534209 0.3003562713014182 0.717314384959997 -0.6503448609179832
Ni 7.8063749634174835 7.494543100629593 9.02912054413192 -0.06460333780268228 -1.687373609991036 -0.02598202588605848
Ni 4.696607731659723 0.4990395696177183 10.442614743107088 -0.5869643397788085 -1.6551736282197236 0.2199578754480083
Ni 8.172048949931083 7.080872706680505 5.083746174892211 0.40180274607437905 0.47609682880226395 -1.3078561576774184
Ni 7.2845859653886 6.178189141952031 7.093696181223647 -0.5512566019645538 -0.5405001347789982 -0.422693216370143
Ni 2.3265679362182388 5.2572445006389374 2.4984120871385698 0.7019034497215653 -0.505429259217794 0.39596325657446646
Ni 2.226783549945399 5.156383271891584 11.3358745788191 0.1412972882213115 0.20027402386583573 0.3690057541490161
Ni 1.233889542961195 3.1725498627508646 3.8502276448844204 -0.988050005181505 1.2166264755364595 -0.05558725034700104
Ni 3.7140115964065874 2.8212005958772313 2.7949772193487044 1.0109544205835042 -0.7629836048623376 0.7403118742964346
Ni 1.0844527646071838 3.211605762918959 8.217577668771614 -0.35176984988670384 -0.42023061376226334 0.3813475635438206
Ni 3.643890148213222 2.7181223385058773 7.128011259774952 -1.6080262811099597 -0.06757964682218685 -0.07251307956806222
Ni 3.878153156450393 6.868653297333389 5.952543588239901 1.9095179515674015 -0.14067353859438353 0.8915397913678969
Ni 0.7416612282221894 7.405147077052066 11.394573352595831 0.20299116568668266 0.4035061019187308 -0.6950175212350095
P 9.229444916229046 5.878664050301445 8.12429867791834 -1.9283726223800597 -2.645978056217914 0.6823440395323991
P 8.473302418998745 1.5582091588148796 8.172573797523704 0.6080306735308045 0.8867277146912341 -0.27523685052597113
P 2.0417295280645993 3.1597001458280904 10.519457860124565 -2.3972060847516907 -0.34578689283039155 -0.8466956384700126
P 4.16526288780658 6.057094133599519 3.624333241020617 -0.3553557674657493 0.3865933853237923 0.3653514452258805
P 6.889013764288489 4.172972717960244 10.515974862910777 1.0488848770806904 -0.9361036940212007 -1.4060165054999398
P 6.280950680948527 7.907190946682715 10.406749554338269 -0.9948436310645706 -0.08967442183869716 -0.012942933313913193
P 2.3806724837402586 8.475193680151465 5.8701244180056555 0.6296721630599801 -0.03944560759013207 -0.5946370258327178
P 7.087433301588259 3.928990980163172 1.3362674002692934 0.497573253508485 0.6603384817955854 1.6369900153321613
Ni 5.425928707087837 2.9380153816209593 0.34929240725634725 -0.5277667463727298 -0.6362336183275817 -0.19014850539605962
Ni 1.3420895889088096 0.9752301707636019 6.930540067780468 0.12607121530017643 0.8566031273917118 1.244010009755735
Ni 6.683897895634597 0.7297272798575734 9.112135144910898 0.3696076493990731 0.8423412181560589 0.12767069857681237
Ni 2.6992911688465155 1.3981849376442168 9.263226098091305 -0.32859649709403405 1.2130868378143174 -0.2521092633695723
Ni 6.35457412945817 2.1601369547790377 2.638416992289336 0.38082228716796995 -0.4940492995156266 -0.2064385008053348
Ni 4.013410000707229 6.943335490124696 10.328541833579978 0.9625909416784518 -0.2247370420042065 0.5099492585753347
Ni 8.138322967557013 7.019483636536771 0.3623964037886498 0.316779449854448 0.9444446097867284 0.20074170753087364
Ni 7.459052544452748 3.9421483663643793 8.185142992457319 0.8722164084489366 -0.712759932820095 0.3440046041189882
Ni 3.1673828286924817 8.45976497074771 12.37180156384996 0.21793750258386985 -0.5664518216477535 -0.22293289891593218
Ni 0.14835722115056948 4.680672272856198 10.07058286144564 -0.5449918520017646 0.3990061571658483 0.5648757354098852
Ni 8.670427935509814 2.4043177726974485 5.980329743720936 -0.43394976312056877 -0.43218650057255886 -0.22682554910211902
Ni 3.729268372978276 2.4715525591314016 11.519002952980767 0.5106830514175656 0.7280520830924752 0.17663967227634741
Ni 1.1254904168922413 3.165129603682784 12.799603931685173 -0.47971000007481895 0.44632782506994745 -0.7129373389382238
Ni 3.1051159961955728 8.485853515739512 8.065997159474643 0.5043547952066927 -1.384032802139997 -1.1762964084588452
Ni 5.984104121839591 7.980651511456717 3.756392134601039 -1.0320773186050483 -0.049831578810146444 0.21854891091562362
Ni 3.382416507027613 8.324978679504946 3.70214370644587 0.10150381037345745 0.017612827985756762 -0.2949307294104727
Ni 3.320086330855733 4.3778171137214015 9.247928600585706 0.460927063040361 -0.44651448715945685 -0.08939520003538153
Ni 7.313018226354345 6.244926228082636 11.395817603354198 0.4084063674338257 -0.7508341139839972 -0.48070578832918504
Ni 0.650392946594436 -0.22405291274141978 0.18062267936172738 0.28218422837808177 0.6391317658109832 0.5748297612988036
Ni 4.620396241572678 0.1718939209506653 1.781857576946125 1.1343308626603368 0.7080756399705483 -0.6718631946057332
Ni 6.0851372834190105 5.719409002326864 0.29851611739925465 -0.08061925361496439 -1.0992440462595328 0.20444923828944792
Ni 8.128712827154207 9.014456483376035 11.00701955583746 -0.36332850125858074 -0.40474871607658036 1.010488279580363
Ni 9.219309928233617 4.768674735584353 6.036657654234453 -1.867795889238267 0.6697597751094853 -1.3936824094146192
Ni 8.047334303008777 8.878873871647917 2.698254142396269 0.3370610829216195 -0.29695393048808855 -0.4745780781648924
P 8.591546961977542 1.673892807505547 3.668264794342226 0.18380327990432216 0.7293474048651309 -0.18522304306998424
P 2.0171702803685365 3.1428326300928426 1.7277014495744858 -2.3537073901381076 1.4988852659062186 -1.3379462921945797
P 4.660890948072265 1.0759918594502866 8.223285838796182 -0.5623997630655668 -0.6285215943953048 0.0584134069418865
P 8.601817686419338 1.4766134563552626 12.544122602151862 0.19152661669050886 0.6445742769827931 -0.26207588766398093
P 6.418487897504336 7.6822032622806455 1.588080226112118 -0.6774471164514139 0.27596961492693767 -0.941039183649605
P 1.7532624322447399 3.235567770251006 6.026485564943685 0.503663682676939 -0.7995266940936939 0.5509755803890253
P 6.945118162120321 3.7865943988274133 5.846986783357878 -0.3979921140790372 1.6096113662088922 -0.12103442420721736
P 2.396227880493955 8.41118037204463 10.116328758600362 -0.596464823070076 1.872120227645234 2.043373181688371
