# total energy = -340897.2212906675 ev
CRYSTAL
PRIMVEC
9.01446821666778 0.00000000000000 0.00000000000000
0.00000000000000 9.01446821666778 0.00000000000000
0.00000000000000 0.00000000000000 13.19358543151100
PRIMCOORD
 96 1
Ni 6.256103980949031 1.9862659358915273 11.347063617506128 1.684884267910279 0.06841628379086927 -0.11996433107149015
Ni 4.6954832010464935 0.3623058971461542 6.093272938842716 -0.569114198971265 -0.35123017533314993 -0.5002577423191836
Ni 2.842577306615873 1.7462286786236456 4.795947645420802 0.06509956071281046 -1.3697600942710668 0.14460578376925418
Ni 3.5110902628644127 4.353861902463013 4.841940363248144 -0.7239583726390757 -0.22648667770546155 -0.13901749104819927
Ni 5.18195798795195 4.655080354904288 2.6019991812604117 -1.2629533836274571 -0.3664076544045367 0.41850694620293727
Ni 7.298663277631454 6.169312681828736 2.465841950339905 0.14580906004873598 -0.8764913816752067 0.8352920246187614
Ni 5.055097378010126 4.584451997134502 11.550456160393672 -0.43862222889557356 0.279157525736616 0.0668067732119043
Ni 5.519883354603635 7.783767865381709 12.413844790044 -0.29291009943601815 0.7594262265283824 0.32495658634860164
Ni 1.7136323618788407 6.618701946862477 0.26473149125314666 1.2731634913912397 0.033720789291212895 0.2966042604581537
Ni 2.66216174153553 1.6112820907725043 0.3966681481969067 0.12260125447370497 -0.2690536045333947 -0.27369573129109637
Ni 0.359902639943675 8.959164364373713 4.802926646644205 0.49784810443642646 0.30879283210454567 -0.2998495068683288
Ni 8.692155818471857 2.3976862611771708 1.4168986073304146 -0.21763694062431552 0.10354115251846041 -0.3317108743532997
Ni 6.768197886269514 0.8837937797010844 4.791369197059439 -0.08698530504230825 -0.7349246418425924 -0.25312562044922854
Ni 0.943868899635377 7.5312455697588625 2.541995275624317 -0.7545035924157845 -0.7693753673212943 0.6754768800989206
Ni 7.654527435854534 3.738813756671729 3.6041312927366898 0.029690070865264994 0.635900403357879 0.30759649780359927
Ni 7.6050380058409885 3.9124233983166947 12.563868977283237 0.6089621842061382 -0.6102037699227233 0.1830167794472848
Ni 7.894744982484942 8.709021888336217 6.802071553147819 -0.059613597897574755 0.22616220448650726 0.5221900236159006
Ni 6.8640126679842615 0.8715476247514669 0.49455896192114845 0.47233093400192855 -0.7988471515281661 -1.742426842211438
Ni 1.9629094489762096 6.5784343177421665 9.036761807451963 -0.32155913063127844 -0.5331753189828108 0.06089246460999835
Ni 0.18223648764186182 4.9094416020249065 1.3360487441521847 -0.7130273275488688 -0.18913497652988073 0.06509210451364274
Ni 6.48042902027272 2.0567500621712917 7.118058408720458 -0.19690999248960925 -0.9873576071001706 -0.18196416981305438
Ni 3.3814171388671737 4.188148934896712 0.35341222289271823 -0.2534791471339054 1.2512391805143226 -0.4234064403870837
Ni 5.788018709021284 5.40237976257694 4.843853233384551 0.7869673693714446 0.7732291938497458 0.15597314506593138
Ni 5.164280615956219 2.9615322280109075 9.315977746090494 0.5286956859449023 -0.6674486104778053 -0.32839389416492476
P 0.1706069223120851 5.652287862443152 12.348589055277506 -0.11400014306825529 -0.8307157181019885 -0.2245699202987229
P 3.8476274014246434 6.182572964442566 12.594873338956932 -0.5569505670255376 -0.2653478735470334 0.2931427842721145
P 2.3192423595418585 8.635508900766006 1.3275778484538736 1.149970883190439 0.18727786871648391 0.5748230764305843
P 6.152077018771196 7.749233437989743 5.838319441166199 0.9550516958786133 -0.5833326565634922 0.040897252434994084
P 4.71717201135844 1.0693502959538732 12.426100860908555 -0.6991112316884088 -0.07853100362736798 1.2407282536806696
P 4.1357568461464895 6.078374727370332 8.205763964673162 -1.2238386770141827 0.1072959915752023 -0.12711739717650364
P 4.664482445160049 1.196012587596918 3.7341803200547963 0.5315146434509362 -1.1034184893521963 -0.2560124550787204
P 0.2710884941758337 5.539111215117095 3.6061099684904185 -0.2356518891444974 0.8299410447194933 -0.6913999790870803
Ni 1.560485562880642 1.2200181162173316 2.8503288477577033 -0.8423178211172913 -0.45947541819549903 -1.1693901682573151
Ni 1.9364700139616875 6.417120410621513 4.840040113367113 0.08643328919358016 -0.06916987412744217 -0.9551560826669614
Ni 5.926165433057272 5.483987742524594 9.407514261232487 -0.4651033059052377 1.5492817160808994 -1.8426463865558331
Ni 8.60360669806693 2.3497743630857335 10.152200374595319 0.12236291321065378 -0.20294334316788273 0.3477555865209882
Ni 2.2695275678251554 4.987984662809608 6.984327872619558 0.3721592121763333 1.2090466063066725 -0.06851167171815298
Ni 0.5381421124183227 -0.07539430706817568 9.04236880662654 0.1518966610037126 0.4181876151903056 -0.37063274822947784
Ni 1.579352844669048 1.0767601887537153 11.380272016636711 -0.5979365225195961 0.3062780361024919 -0.31146420828912164
Ni 4.012123415793891 7.122394367889222 1.6330889906169062 -0.05863657869628611 -1.0565768464083094 -0.5897601573563906
Ni 5.62513628444665 7.801273962483039 8.15893921143776 -0.298524360299002 -0.06238061911975064 -0.2333191272462627
Ni 5.236053811178048 2.789626320841818 5.117343181869239 -0.3006694316664628 0.05833884495020921 -0.9347464086623579
Ni 0.7930352131583941 7.203380349536159 6.832707223075147 -0.641632934966282 0.0773837773968022 0.49535104904618565
Ni 5.18735765435962 4.387305579211692 7.184144376001386 0.43144627997242474 0.8518522429702878 -0.26513858574970467
Ni 8.140641644034938 7.091555872429051 9.31835215699497 -0.28739122650031795 -0.440592465248067 -0.8384408546603883
Ni 4.474646760887692 0.4854390245177416 10.293345310730123 0.503479848800907 -1.6748520804852576 0.879727629224317
Ni 7.973892012634108 7.033466639822989 4.714001622918411 0.09468318790719822 -0.22179184333295351 0.2079873333496934
Ni 7.286881367790342 5.985219213752852 7.040440232365517 -0.5011527433296272 0.05639046297458675 -0.6672002419124251
Ni 2.418626870634633 5.265729440249923 2.4124735946916007 -0.17589482369052287 0.350596398403893 0.6650837097900546
Ni 2.292559533887925 5.149271526525882 11.206921991673784 0.35112630276543394 0.6948141469749518 0.8892630795185782
Ni 1.1627131423382597 3.5004802338797236 3.796362121190212 0.15714042590115518 -0.45369634961987665 -0.517077899200316
Ni 3.5097651360498427 2.721413840529889 2.580097629500684 1.0127835033724428 0.577819697165063 -0.10476834005734213
Ni 1.0075921748203949 3.216488430027863 8.138528652706126 -0.3872161065094557 0.6437276127117817 -0.005407287058500365
Ni 3.8672518985356614 2.520562476207158 7.097765939521279 -1.5340034497655903 0.27604366269798264 -0.36103893389345565
Ni 4.102790936208505 6.764195462421423 6.098101087971178 0.03839325506621775 0.4211698377470811 -0.13585143461539184
Ni 0.6746346815531292 7.432212622923014 11.18049517691464 0.8123534135447171 -0.1411813314687375 0.2564731967652228
P 0.0938487262163959 5.454411272602109 8.068510574428492 1.1092613212862186 0.05765801683310069 0.015721781610630987
P 8.52227816663119 1.6245964601950917 7.955824314168508 -0.018566193037961573 -0.6953774756775895 0.08417200396322923
P 1.7531067178040345 3.2317409100976113 10.3106548924263 0.1250142347905718 -0.2721355858928281 0.011847643367205403
P 3.9390791805662486 6.193291167044771 3.753746223122993 0.20456648059360255 0.29395319598855185 -0.20257310431265757
P 6.793871091493297 3.9652031091963496 10.477962519404148 1.5147870247381394 -1.2071601879172373 0.1569208536911814
P 6.212924678623915 7.600188221989025 10.331236726052333 -0.5601909283397062 0.718582195928827 -1.5071811873664236
P 2.280020408724202 8.4144651278403 5.7075447491639215 0.755642334005918 0.5646561631999114 0.2927617467836119
P 6.876912371873037 4.048938503621817 1.5141746343284406 1.172851130222722 -0.6402152286831491 -0.30440113079475317
Ni 5.2676044496202 2.9289629546704816 0.44084264780316806 0.4329714583676995 -0.6381434337557849 -0.18338598986124546
Ni 1.6326824381044087 1.0761381904529987 7.006651301487599 -0.7924710727984933 0.48138327401218384 -0.6423273899301455
Ni 7.055885622053169 0.5500619436217671 9.148973005241691 -1.0216797774208082 -0.00916469721840357 0.379018915410644
Ni 2.7715613267166552 1.6794494987438022 9.21940034037226 -0.6603086569989145 -0.423263229941 -0.6595902907756511
Ni 6.279370323183084 1.90901194404889 2.4855791283025015 0.3557044090544197 0.9078691246555397 0.8382639627628918
Ni 4.071772151385808 6.82109478523481 10.4534620964836 0.06671369927746575 0.534703325591563 -0.6458770549546167
Ni 8.138442113812113 7.115435198495696 0.4802557053451026 -0.4114418118260397 0.18152682516531962 -0.664680560814365
Ni 7.519301399491477 3.7675789244628444 8.36450874837781 0.46188814140204965 0.6731736858870406 -0.19460756960867776
Ni 3.1187265231978283 8.354482856927708 12.289019647005098 -0.04014186232620829 0.20503776380306624 0.3800661257282358
Ni 0.08839407155315436 4.769086333297967 10.237483553198077 -0.6094571215646858 0.3587629933750853 -0.06768609049306408
Ni 8.680896747782072 2.2738905703982986 5.800559637078633 0.14254710146801258 0.045148057291548055 -0.049191374122986256
Ni 3.724814287671541 2.7652511990282256 11.345929597415838 -1.127431564437342 -0.6974032478583667 0.32023012740720974
Ni 1.2198468413229315 3.267654551112905 12.472252233374922 -1.3219594298480202 0.4599909243793368 0.24850971894377202
Ni 3.1094145776233306 8.448071065015252 7.8706988887579605 0.2536141300498729 -0.5937749349427387 0.4202735511850568
Ni 5.758829861228232 7.727616743422807 3.605028232315259 -0.9401994613571292 0.33049654233022435 0.21665709320954943
Ni 3.1897605320332985 8.428987435991814 3.6120081349854756 0.2573250032425568 0.04599703555540465 0.3794470040869981
Ni 3.2194091177007937 4.243849333449297 8.990188557877287 0.33445295587481105 0.053201780833959995 0.7562694260669557
Ni 7.162490722115132 6.073479871177736 11.413282097468514 0.9339426818141399 -0.67916281359094 1.0925103270801249
Ni 0.5119091087238933 -0.039640222138718005 0.2993389358369353 -0.4340654627628266 0.9535625129275965 -0.3898106067095093
Ni 4.593908174199021 0.4071195225425723 1.3426716738845985 -0.24175363116686105 0.28018313878765294 0.6211163030701691
Ni 5.813114988284983 5.617338769517375 0.3977670118615062 0.032708545976614635 0.5985952391495175 0.2970256642662885
Ni 7.720693631901787 -0.3886957525859816 11.40737131071808 0.3462509769510037 1.3431615178469318 0.7615725834474238
Ni 0.2204614382847462 4.662075582170319 5.6762104579568025 -1.2817630601347925 1.0492618008041348 0.7724203247952052
Ni 7.867557346615935 8.836044758704316 2.5781054320447647 0.009530565198254555 -0.19401493033000133 -0.025890751723832827
P 8.48967283541826 1.6847680349383363 3.5800662686266427 0.17367956120675895 -0.6529326762498174 -0.04773715817496295
P 1.7378271943299073 3.345386309766238 1.5036727789612676 0.016220318513604323 -0.8109393068060099 0.23125350296648559
P 4.76038737155606 0.9896263398446218 8.25997607453809 1.2001451900519848 0.0762982576421073 -0.6960547042502723
P 8.568459286842373 1.5866906217238796 12.219634384389934 -0.8042528959247699 -0.18232412425563438 1.2936878365968365
P 6.181482213799281 7.787355623695988 1.3503763397921715 0.8431858255445414 0.14613944680496124 0.4423454433834318
P 1.8569984629599732 3.154811439107522 5.958329055332013 -0.08936871767282027 0.1213982353045393 0.6110882294102056
P 6.958096671818755 3.8169962387313783 5.811642024193141 0.7531205960253288 0.9616118655946343 0.9234572089017837
P 2.3585454405726516 8.4996157937616 10.11597032574879 0.6833853363127198 -0.40746920033153694 0.04957703959717913
