# total energy = -381177.39522454847 ev
CRYSTAL
PRIMVEC
9.20095644344675 0.00000000000000 0.00000000000000

0.00000000000000 9.20095644344675 0.00000000000000

0.00000000000000 0.00000000000000 13.46652980192427

PRIMCOORD
 96 1
Ni 5.40166995363899 3.860804166364043 5.860445287585578 1.8345088450503633 0.3354258613110417 0.8718880785752403
Ni 8.698004638170499 8.987512735219525 12.062415359836802 -0.997368197258637 -0.19100211164560654 0.2875462640209435
Ni 6.7718119925985185 1.8193787412769817 8.547246965513633 0.15164623555580337 -0.46853778550808334 0.6175591818465299
Ni 0.9892132378812917 7.830023203458378 4.808062882684102 1.0019537597467905 -0.49780979499932326 0.5777405071876953
Ni 3.3888134985610576 5.982480334259353 10.246763005952316 0.3819751698254905 -1.2740003854702382 0.015580113826444135
Ni 6.596855804281747 0.5833967694994511 6.099139262035759 -0.6117184067950369 -1.122806406960505 -0.5662944701342828
Ni 1.1136745767906249 8.381473331808492 7.380021901653723 -0.043397136038712356 -0.02746889484423011 -1.3254957251360528
Ni 7.833372351633361 4.705976429851484 5.644441792020909 0.2823631771581072 -0.6517335137353937 -1.3011687183549139
Ni 4.015039800587237 0.6581158972450645 12.955811676661392 -0.7512390627318998 0.40388379697312377 -0.21415361006140535
Ni 9.091768773600663 2.3544879708392648 4.6707312457880485 0.5227860053286868 2.22429039829415 -2.203957857384385
Ni 7.142196497499472 8.615177627535338 10.298865262464616 0.4005768440870779 -0.5896082051595588 -0.7491063326596131
Ni 4.775784087004224 1.5989698277282955 4.794381060331905 -0.7588906657398866 -0.37561323216320475 -0.4831941019686775
Ni 7.994444296554392 5.7485736174889634 1.896114718692805 -0.5630577083645399 0.43252897151364217 0.5939127460721837
Ni 9.189786563458068 7.889774215129644 2.401594107958664 -1.532278753765 0.6557727168017738 -0.23630906311252203
Ni 4.539586332059188 6.46892570476261 5.731503082848727 -0.6808548565813822 0.34607177106066206 -0.028633861686608746
Ni 6.4307325342286665 6.060633258979977 6.7924911423877345 0.8904470725243503 0.2998705899142513 0.7289069748936027
Ni 3.2813739292223807 9.005739830094914 5.9926593524626055 -0.3354947668757642 0.3014546465719195 2.6792897829961664
Ni 4.682164354365615 2.8423410876907966 9.1752582531056 -0.23946637779458116 1.9457013434664945 2.4973688077162213
Ni 3.212458764852535 4.220524762652894 5.795657672312704 -0.47173340962724564 -0.536746581273837 -0.4135583439484103
Ni 6.849872907753895 3.8970651360278024 10.276928341918476 -0.4692175851839274 1.3029075554228915 -1.4378827580809173
Ni 9.147839402662056 0.7245366823010699 5.98511824849498 0.7762538396086824 -1.6255092683860715 3.2610671792573966
Ni 0.9291677956012364 9.074747004030007 0.6395097229608585 0.6374075840310248 0.26583201227230346 -0.27674043165469114
Ni 2.421305317121484 6.069410971504521 6.6423526941049795 -1.2246524311647295 1.7236310496611735 0.16704920037443488
Ni 4.505248362309087 2.014669043513294 7.216093979827432 -0.16058030482063956 -1.6331374743552907 -1.9577703588158861
P 1.5860148809415475 2.0762326436199214 13.759426899909467 -0.006226954746318308 0.558263115189374 0.28720816395523435
Ni 1.3582268002600688 6.044531585061789 2.366257834425634 -0.6276672168148093 -1.015941075164818 0.055240922751175835
P 0.6812931067307308 2.1206916655471706 7.734057226905976 -0.6377544258474823 -0.5713225194764935 0.008240899852553548
Ni 3.4160115260480093 1.7070442630671756 11.024859376279196 -0.38403642322989345 1.1643500347302465 -1.05114359120788
P 8.808784154727634 4.1122663081835205 3.3717089203816792 0.074620098608736 0.7126154368224308 0.2026633500336187
P 5.193213082615862 9.047521373673481 7.649810508679057 -0.34861459208717377 0.805154838913749 -0.3146197231989678
P 6.245802509039143 4.0335705270279405 8.00175813689586 0.2546518272857679 0.08312016565994718 0.06520934681779737
Ni 0.1464948694989821 1.5497539112777876 2.065550333094769 -0.06275137219560806 0.7950933409126887 1.1541802932860963
Ni 0.38799789597614737 7.301584667376488 9.243479665353485 -0.7770603946703779 0.4982743933405677 1.1165969357156835
Ni 2.6754541382461676 1.8519041225917223 2.1381753231353655 -0.16249089157979113 -0.9051643241298669 -1.15236432312328
Ni 6.304817444188434 2.1586732140810456 0.32175744966802566 -1.5074035877898748 -0.25404710382223344 -0.7624218188215967
Ni 1.8045652012722486 0.8140583089035869 4.059445456966643 -0.06455422973230172 -0.8604096456219955 -0.26121225411210497
Ni 5.9178344137169585 5.369834644063602 3.8445598776197216 -0.12571948838771252 -0.6769228685168277 0.5600603162991129
Ni 6.080544128899383 5.912424251280449 11.376510733695902 -1.4579946983394438 0.19098411392347753 -1.3781537176514007
Ni 0.10821060949544513 0.49738438771544646 9.185264293326188 0.1737114428859589 0.8990870075875355 0.7073919836399624
Ni 3.6515100082971688 5.465487788094164 12.887145858213366 0.5560583942285714 0.2908406185014991 -0.5953656764686263
Ni 1.3433672554727123 1.0181686480644565 11.947761320487126 0.5990477533059039 0.07949799552632761 -1.0816990953972339
Ni 4.953933007235059 2.3477804735327736 2.3333588942759915 -0.25020716125085296 -0.0905956481013859 -0.24804460638189543
Ni 6.178801143626431 0.1635304405044253 12.247338024261108 0.4049649458524445 -0.26288141428441175 0.08863441060995704
Ni 5.799307691766044 2.3293785604834154 11.431898651783166 -1.8913801043161105 -0.28523535649957976 0.8130679231132385
Ni -0.24946369406231755 6.945783678567149 13.693709988027601 1.5454595141213319 -0.4386991048800961 -1.162721497987888
Ni 2.649222211194308 0.7662344971752627 8.672755373275475 -0.027836305485977868 0.4105501532497059 0.149304217686188
Ni 5.138430587467924 0.5768199257756105 9.795661269747312 -0.43297737190497043 -0.8262427699322997 -0.27162162237088705
Ni 0.5965145732166858 4.0776615106942025 1.0463833812473848 -0.057160765481708 -1.3917815928474806 0.3389606139371775
Ni 8.243431381068731 6.807134464696761 11.45919512950493 -0.9547938142315363 -0.8238830114508715 -0.782849233438013
Ni 3.0875373781169677 4.174648793420844 1.8865530846723584 0.04799066894666574 1.294026707993494 0.4004421182814265
Ni 6.898122723769312 1.1032866968742623 2.3597665595974733 2.106227398010431 1.509179705853691 -1.9409108640563866
Ni 7.660099938360606 8.597981039790714 8.010147569055063 -0.41791893490995113 -1.1023460822236242 -1.5491130517135192
Ni 9.164097492841165 6.130597332393637 7.162672306149494 -0.9236474705357188 0.9612012604197769 -1.0381867739368957
Ni 6.4265921037925615 6.367761187773763 13.557698688392838 -0.07318336616220944 0.1558006240438091 0.3932386585544518
Ni 7.679762382453845 2.5181177816741562 6.555573872642469 0.22523815001034114 1.4532314726228457 0.07950750860802436
Ni 0.7740516298386301 3.9420946172595817 6.3828249937959685 0.10583277676611451 0.4355654443471208 0.8901380259243638
P 2.310277374738182 8.385245723983608 10.521736351979307 -0.6567278816261916 0.42642722949127854 -1.0028834706499115
Ni 4.016217523022396 8.439733788522759 4.047231187180132 0.20898466426595622 0.10882811194901257 -1.4930267502429126
P 5.980934573563208 8.984191189914116 3.440011301046982 -1.1296733092836673 -1.1436372276629272 1.6036692896928446
Ni 2.061630725615256 3.2962518759227866 3.8509830653696002 -0.08702567136194045 -0.19470989951449694 0.14133405499651788
P 8.142441682253855 7.88931416730341 5.781612412177781 0.00574538712420946 -0.13346185133729274 1.2753314455768359
P 2.030439482996594 8.12577874998766 2.701871004524174 1.63179201607099 1.0661264377699575 0.535674945476213
P 5.546244583511272 4.156026057414894 12.644600363361954 0.3130894025973705 0.21751147079004474 -0.004270859461211999
Ni 8.371223466239998 0.10656087799057017 3.987116737726141 -1.7247607923902426 -0.09008991210956097 -0.5174267978993023
Ni 8.535423736379421 3.942343043085748 8.4558363825366 -0.2533313087021315 0.22021652842603362 -0.04059489070322686
Ni 7.393078979057896 8.554460515428982 0.6518988109213388 -0.29138620659232395 0.7682080864860705 0.6978807017154174
Ni 2.450831186609179 7.787569990053509 12.61180907440365 0.22467713530054853 0.5060820623104445 1.482482656178479
Ni 2.508502782105867 3.282358431570521 8.132652784607249 0.8804524232054837 -0.24365573328558035 -0.20380517694754577
Ni 3.3957234169110917 6.261977790609529 3.731144287018266 -0.3642690107949791 -1.3121190467188306 -0.03566300061924826
Ni 4.286633635282713 5.275488035859541 8.084321080078762 -0.17260843962976724 -0.9607893696933388 -0.5700742488916891
Ni 2.9713016943406974 7.591193974947284 8.469585371871426 -0.04336011215318984 -0.42940328140046696 0.4409444492708471
Ni 5.22624451653946 7.25995954005884 8.80518474053518 0.42393608763830865 1.0850009060769572 0.5894364554683849
Ni 1.625450180606322 3.9300321632557274 12.07699979602407 -0.4133503417026623 -0.290222525301526 0.577076134130819
Ni 7.57039981320151 3.5954761830618733 1.5976964153452802 0.18739176858652887 -1.7937419475456462 0.7927214982464025
Ni 2.1589676446898354 2.1105430105004497 6.00257062283099 0.48743359397132185 -1.480810924903011 0.3936196960429543
Ni 8.538414047249942 2.161645123038517 13.27313702557148 0.9100748740576069 -0.7911718943710955 -0.572761051695233
Ni 6.7709102988591 2.867910545872879 4.083604408513493 0.44674974309871446 0.2750530166499392 -0.324647282638299
Ni 1.2664012541437724 6.408411013699795 11.275996724333353 -0.028796355406402015 -1.4302111004682723 -0.12279434432111756
Ni 3.3833297284723494 6.875672389849095 1.4135282293559996 0.46884143279143126 0.10684142053628695 -0.42957940196701505
Ni 0.937862699517058 2.6637137177206776 9.984354486155429 0.26917496060260737 0.42831673320450747 0.2529487285517321
Ni 5.8279870732534675 7.077624184609276 2.3162027907400753 -0.07529295630604452 0.9179779309547674 0.028866289412388994
Ni 1.2502535754429605 5.350604644927022 4.579132043202259 -1.0102717926941827 0.4508858767542751 0.5013831141728784
Ni 3.7400784158037292 3.032598466708109 13.434465677179551 -0.014577126483226508 -0.8391443084853162 -0.48522038837008696
Ni 8.136304644251894 6.535908668262272 4.096478386882824 -0.2735319520197224 -0.09027143199274776 0.5346814712146921
Ni 5.492961844276855 4.498715683176564 1.4244221618812196 -0.485036554494055 1.066041334255319 -0.3134575845700666
Ni 4.355005943217603 7.832351045459122 11.163174595427739 1.2879285655155561 0.6975122626324052 0.22505534457557372
Ni 7.854617360248846 4.41800489254208 12.57134234751246 -0.12259019873011144 0.14177602762994293 0.6683592952175328
Ni 1.450871231507062 5.267998457248453 8.720237829516734 0.4940657545758588 -0.04085328657093609 1.1938567859401117
P 8.837748765867325 4.662833144707265 10.633979740719518 1.1857608963058546 0.38332782719864306 -0.5096111585096256
Ni 7.1983131313434905 6.265648972262875 9.051056381170262 1.6676421930003795 -1.0015025311419847 0.9207359533158788
P 4.431714317763851 3.690706083092301 3.890049406677735 -0.7006775477342642 0.6649698099200096 -0.3820121937110131
Ni 7.912160142354188 1.930452688442907 10.778435678252633 1.5176057251338573 -1.5231521088733833 0.37955550464040444
P 2.9218925578031714 3.822518986264853 10.32054639641937 0.32671984889661154 0.029278180138827 -0.902922836393858
P 4.841478916590432 7.909123826701044 -0.04457127359685015 0.2268070371593578 -0.7581828410395846 -0.13248380369473958
P 1.6209601138222784 5.706083600257996 0.2591753036741163 1.1934225266161704 1.0401642093782408 -1.6608557662061654
Ni 4.273292248321928 -0.025094688825409585 1.646848845195768 0.5465782226522781 -0.08817418314408684 1.645175379356431
