# total energy = -381177.9429574602 ev
CRYSTAL
PRIMVEC
9.13411624303211 0.00000000000000 0.00000000000000

0.00000000000000 9.13411624303211 0.00000000000000

0.00000000000000 0.00000000000000 13.36870241230422

PRIMCOORD
 96 1
Ni 8.21860368962786 2.311470299180387 9.937424217139384 -0.26048540324840946 1.0215489082698985 0.5561938913651712
Ni 8.061232002453806 0.09989800152563653 0.5357853315677509 -0.2199182804593245 0.8378083632827119 -0.45230024060329843
Ni 6.954368941332171 9.043898486263608 4.193869145790903 -0.7431228613826685 -0.9863656755005464 2.7476279052509325
Ni 0.7095006927716692 5.588891649613345 8.743344961356843 -0.8555608021701266 1.0379985691854898 -0.7002142349446006
Ni 5.923574799520159 7.9523259355795695 7.7139154564978645 -0.36475546351309435 1.0701083052358409 0.4633829807800213
Ni 1.5846595428900256 6.3211372050138435 12.057433394256735 0.9684563993202934 -0.48740351206433474 2.903049805799084
Ni 6.577303492482434 2.4570224400544105 4.426778146714565 -0.203381716256882 1.2051141040214859 0.30386531289594115
Ni 6.078754298817855 2.0072037560580407 0.7792679853483794 1.3742800936286073 -0.22795194939707836 -0.06333989770922639
Ni 1.6532293528392752 0.4689601378034362 5.912856827627999 0.12728503310261952 -0.5586102141161476 -0.7385784365450957
Ni 2.3894665169979765 2.3982900732003176 7.126695003469448 0.9927522957531807 -0.8733834321738442 0.25142586414930246
Ni 3.2352856726261257 0.4841684411956702 11.468942385671646 -0.8211553281070632 0.231192310711247 1.2468027420095238
Ni 8.088716557953646 6.299535020315566 4.121490409406481 0.1318374283599923 -0.08041742201680344 0.30621350141314363
Ni 4.309804828455329 1.8750970341590132 5.344940415674145 -0.8815399998427077 -0.10952822333983073 -0.4125931518216636
Ni 3.5078751009350984 7.981545973148191 2.4125694369799446 0.2478859693168441 1.0263062204492261 -0.4420561942777871
Ni 1.225515229929516 7.867332984789937 7.495363459341117 -0.5220565833618299 -0.24284943533420114 1.8830371316680539
Ni 3.5393055946123817 2.4280033530411207 9.577285198929978 -1.8199309472361882 -1.0950189524345917 0.8607600869828789
Ni 4.58122508989691 8.247102132020515 4.676813615422273 -0.8849050596601987 0.5512494028757022 0.15162078163450662
Ni 7.31075475121493 0.6914352378472486 8.653172966709315 -1.1203085802393158 -0.803429628692526 0.44361839655858437
Ni 5.987888111342814 7.057502246798666 3.0013810530419516 -0.47328224217160425 0.9565041120544236 0.799608455174223
Ni 7.366299311532152 7.676685712475998 12.042700978315994 1.7522155461670856 0.15780068519297338 1.134285354134382
Ni 8.131025783967356 7.957952551128888 2.4424882344341565 1.4889554083870165 -0.05751686326954611 0.560116880568661
Ni 4.107045718124512 0.7157191990476048 0.7505813801630039 -1.1988308421159353 -0.3020249172530927 0.12244827383560848
Ni 2.6587859317247147 5.313488913529713 9.940419293825459 -0.24616461575036314 0.9739554747616518 -0.2343596526956351
Ni 4.43820309919685 2.4860506611838518 12.139009272194095 0.8161517042448848 0.1612161386324256 0.5972022154567327
P 5.176340159515062 1.3727297799431106 10.288379794970082 1.852067936980049 -0.4714079079670268 0.8418812478005049
Ni 4.723479814840245 1.5843946535216324 7.803618870986821 -0.5768694174366517 -1.316015039339127 -0.9811627911433681
P 0.10026062593685077 4.058872389541544 10.886428742696092 -0.07206030830135976 0.6216811744347035 0.05264925076459965
Ni 0.1365787851667977 1.7648025816297486 7.624144449549386 0.8128738048245613 -0.7139817210423381 0.015509408489508773
P 3.6168542407385478 7.4058409003519605 13.191486892338132 -0.5310716423762467 -0.24013306484430255 0.7381632033845481
P 8.228806497369078 8.711307048955485 10.329300635328766 1.0089235061964044 1.3640432463919476 1.1974452746223183
P 0.13245199148955364 7.064763869139102 0.5541129356257194 -0.42676635799825213 -0.430565162919052 -1.1459388792129104
Ni 3.592731039982458 8.486452511654209 7.0591025439484065 -0.05778142978484243 0.7886923224823513 -0.20664136084476026
Ni 7.098669708293439 1.1682534557758133 11.924735695042706 -0.8346834445004851 -0.8766348492316065 -1.514464351291398
Ni 6.534829852377997 4.6967168545163736 2.797761508969664 0.7668240616543504 -0.6273206321086681 -0.004377303132089235
Ni 6.4690916184357095 7.154433487398298 5.665401746733086 0.42617860381558215 -1.044633300893188 -0.6703896953840004
Ni 8.152134726393454 5.240580398408505 12.860972553042858 2.2403351104618383 -0.6908155673385199 -0.9980654804359778
Ni 2.381675115920754 6.131796111309568 1.3480064677558676 -1.862400943474941 0.3507172402524734 -0.863531479080429
Ni 3.7475086381694878 4.0699703406656065 8.1242272613158 -0.39336901348472897 1.9121049955682876 -0.30908928029904187
Ni 3.6017738149724345 6.168643135864686 3.937176733231987 0.3254283837786976 -1.0234353266593343 0.9243779209438403
Ni 6.0857418976737465 2.9864540804271837 8.766499945800875 -0.6394266713435827 0.6476416030542071 2.6670739576562648
Ni 1.0043234732049882 5.057578381313364 4.46786066092913 0.977498969138536 -0.2878964482715106 0.12655175448102074
Ni 6.816982700297581 3.536729773857661 11.543660369202463 -0.3108977942626904 -0.6127517331555576 0.7364022548293834
Ni 9.35077738660528 5.4368816886202165 2.066748145838001 -1.1480191587807067 0.4915841258045857 -0.10040697776485288
Ni 4.695976991108103 4.389399516599429 10.426732425493498 0.9031413801625673 -1.1556049415477645 1.1246061791734052
Ni 1.0089362018614916 1.3823662724829346 10.597664621506059 1.0973882239977164 -1.0580711715656488 -0.4020341453588947
Ni 4.310681703605872 3.8148727447867405 3.644321441417699 -0.5067734319505144 -0.7008863213109606 -0.8183569394263196
Ni 1.2287852435117501 3.4040476026410897 8.92691055341853 0.2827172180634163 -0.30584531944044746 1.436672282712584
Ni 1.00788577850407 0.5709471116929189 3.426598822007508 0.3982708216617205 -0.033101667649975255 0.2931240152190371
Ni 1.954235016495539 2.575190500706261 4.718429562020085 0.545922334235834 -0.0436061667257249 -1.465558626729631
Ni 2.3067936317108235 6.744448683938584 5.851053570923774 -0.31357199866074387 -0.5252072131756698 -0.6891770032938324
Ni 8.91796642688299 2.3615617921551686 12.744571030454706 -0.39141934595752587 1.307708833466277 -0.5906387033066021
Ni 1.3821927242760563 7.133826921360532 3.569403420743163 -0.08624971242786435 0.9158511144197516 -0.6784863563492057
Ni 6.026772043799714 5.825483526169288 11.813280296350587 0.80302956504063 -0.11447476871182864 -0.0632913038594781
Ni 9.062486412631893 6.619694925541507 10.663491456375015 -1.161227944161497 -0.07339676772459618 -0.20900446176029808
Ni 1.4571746837636532 3.9412706440910856 0.5182359542058895 0.9292797291208318 0.2906734967960155 -0.3220934058681937
Ni 5.409241853145803 3.7420190343624413 6.650648618355683 0.6271036310018555 0.604474837858746 -1.7772033264606748
P 2.090680443566525 4.042759808650312 2.7502357892218363 0.6585909029768593 0.3501672812862744 -0.41441015042574436
Ni 4.407375457185565 6.181102070295322 6.729337202177556 1.037445267785181 -1.0341869087488833 -0.9238107355864607
P 6.113874975420341 8.62763854500782 1.356268275814892 -0.6077478521830629 0.8917619346810319 0.2118586433796416
Ni 6.755044258674315 5.714832843110115 7.634130778737813 0.28220042632799786 -0.9777897609060775 -0.9319770734473368
P 2.0887257427101056 0.4588916015696467 8.419742407753404 0.14158370911347873 1.7349259058487025 0.5118888988002087
P 3.1063028184509087 6.725805952873389 8.311295786921585 -1.4947504178022386 -0.20975908053813552 0.21822366636572094
P 9.107745958162537 8.264237733920714 4.74062181062175 -0.5455209850323572 -0.4170876972579075 0.057572913318462135
Ni 8.003650534234803 3.683259265159894 8.003627698944424 1.74030413944148 1.594640860941989 -1.3251031176833243
Ni 5.150234855554098 1.2617411345863327 3.0555235265299197 -0.7278078282921531 -0.5231467311022152 -1.1522823049324349
Ni 2.4591780914661627 3.530299356087011 11.312996534028839 -1.856486377762719 0.017532352456808516 1.1622185902095403
Ni 0.7460810011351638 1.8370351721557465 1.436895119084111 0.1389691543087671 0.008705498193797909 0.013656414441170028
Ni 8.343530996231816 8.975757979773478 6.584727702090367 -0.6064515019691427 -0.7560308276935883 -0.20849846865815705
Ni 8.002052063908291 4.186046688718766 5.3412109560494905 -0.7490227718068713 0.11065513785542233 0.6861217614072764
Ni 0.007589537110274614 3.3824545520589626 3.2073124419121815 -0.8893504970260618 -1.0066781618056533 -0.26555484735151685
Ni 4.08137885173882 3.182892382381168 1.2604093804514451 -0.8455882643384469 0.6343171180311592 -0.1088535658703093
Ni 6.0593717043443895 4.497602256530002 0.31724338193877094 -0.6377269150436565 -1.6718084085629272 0.9085702644876223
Ni 6.06849668637973 8.051979142792346 10.168128242424075 0.8600201234930608 0.5865449928532027 0.05183935326879459
Ni 3.044674936776793 4.310389411889024 5.6555624768146995 1.500829019896151 0.7593336668145761 0.6265235901286694
Ni 4.032931499671307 8.797871067723174 9.51689864364085 -0.4395285427599269 0.14185161806288474 -1.7571528355677029
Ni 4.201949184938512 6.83044638750488 11.151850630060988 -1.8686178709189303 1.1684676564430456 0.3606195869678499
Ni 9.099269498373951 6.202722523225903 6.53344512036943 -2.139507500219799 1.5131651728640003 -1.02600642982062
Ni 4.464719438384631 5.8209438704419965 1.813049896553544 1.871576696436938 -1.5002438368166422 -1.192545523327856
Ni 6.9413893622809 6.587414959062136 0.8728561394365654 -0.2815262830791087 0.6169737416567052 0.2911062134580599
Ni 7.313924289519498 5.006911439021039 9.884952373495523 0.2379923643522159 0.5010319014810468 -0.3150467834340574
Ni 5.3151330544369815 8.706073200400681 12.429363643006102 -0.3516731764078395 -0.4591373181297899 0.6056799139104408
Ni 1.013585466982601 4.339481571831526 6.704364528619377 -0.037544276802361144 -1.9058407598261307 0.5559473225720037
Ni 8.03651508414787 7.464783351877538 8.653039608613502 0.8801104664850327 -0.9182262995201477 -0.909191185901073
Ni 1.275825941691933 8.697715484122066 1.3614957304883908 0.9921383163182654 -1.377652609645266 1.2287597684648837
Ni 7.018545241412553 1.9500241889497014 6.7224117153114955 -0.21075718278534672 -0.27179414339300934 -1.0417405527264252
Ni 8.957380138076678 1.8319474694593656 5.015121182618 -1.9394682180725888 -0.1557186058529641 1.013543264356603
Ni 2.0931923255081855 7.654498944344025 10.301025978781821 -0.5920283845652772 1.194595206768033 -1.2571414049313703
Ni 0.9631742799425171 0.03277777580962866 12.606939995107256 -0.13974922700790127 -0.29347239969739136 -1.7060542171196744
P 7.864556213479884 3.3027502545210448 1.3676850075926417 0.14778263883533901 -0.037709084514999575 -0.5276579887090074
Ni 7.7676158387641 1.3018033680267762 2.83523422048116 1.042801647001088 1.7283629079192038 -2.7747867250539113
P 2.076604770577076 1.9772712574296016 12.821146893210738 0.39857395472443613 -0.6054695976718476 0.5458637130837567
Ni 5.02547196304087 6.222059447118612 9.143015520858292 0.486340360907143 -0.2982752204026734 -0.8027667982975465
P 5.495047740272917 0.34249099239310976 6.234013264926069 1.6743224332340325 -0.7099669434559901 -0.4236936326101993
P 5.666458563971814 4.997704249940336 4.829617331108966 0.7847215107600615 0.8593122987927588 0.5471346093763804
P 3.164331858361337 0.5431099793096322 3.755976877253536 -0.3810225761042341 0.6895423570530512 0.4342163865183941
Ni 3.7269568768286314 5.108190518908781 12.75208384098931 0.49675949935793806 -0.32758348244848745 0.40056501701253594
