# total energy = -340869.4073290738 ev
CRYSTAL
PRIMVEC
9.25161477816824 0.00000000000000 0.00000000000000
0.00000000000000 9.25161477816824 0.00000000000000
0.00000000000000 0.00000000000000 13.54067339539898
PRIMCOORD
 96 1
Ni 5.322629693906128 0.06288692548196308 4.5098697951587035 0.11477301667853783 -0.07188624461734071 0.6032167970819289
Ni 5.5415506515781345 1.7642551605958032 2.340194077629309 -1.2090905721707306 -0.7066260520082154 3.2740599919726385
Ni 7.820500890488889 0.5048337822500997 6.042728195715062 0.7051790351490436 0.09063550020038584 -0.29441033813062845
Ni 8.746041672573373 7.9691558348270455 7.319938578726773 -0.5080504988907251 -1.102267920687521 0.9121816359879644
Ni 8.390196817950613 3.681300737282262 11.482747927381281 1.0168003378413197 1.354794216989854 -1.0124328049012437
Ni 3.8747057417252018 2.1261505712054407 13.395246335462922 1.5020379526025875 1.2103059326350705 0.2517043146216697
Ni 7.160990287919198 7.233976275962745 10.354037986742924 0.6937653939954632 0.49851890525120596 -0.5976871255129512
Ni 7.659421027663917 3.3740916209209963 4.45142827052031 1.185398113649797 -2.7374327098854856 0.18454787137983056
Ni 4.134750126555727 2.9641433237733716 6.481568360280762 0.06136709025357174 4.448002041266694 2.2437945297653488
Ni 8.70724040069422 2.9122880236106026 -0.019610647592331942 0.17751204757897168 0.21142978337233906 0.8446858071288357
Ni 1.845151279172654 2.1207013701713873 5.489226294552163 -1.2125875295803954 0.39013739392130875 -0.06031782305345096
Ni 0.5909061792285684 5.819182355875105 7.495413028799425 0.20404943174786794 -1.3830894643901213 -2.43636295745681
Ni 4.176696947418884 4.616777753510334 11.231649853925846 -0.6145569046850965 -0.796483793502312 -0.5290736381096114
Ni 3.8340726501435998 6.02413337541227 6.844972709241255 0.07521402343899306 1.0575867757300625 2.107437873378764
Ni 8.244335861239424 0.3689460661411354 0.301083622295651 0.8388630297994715 -1.2389176828344919 -1.2213531915881677
Ni 4.915808442513189 0.857202805245535 7.4772678369690535 1.179939404528071 -0.7327170926683123 0.13908433973039272
Ni 7.490643821442796 0.2233043726973617 3.441429498215325 -0.4002698543696203 -0.09718821371723907 0.07721691280163476
Ni 3.09340688378661 8.54020249802896 6.247720847518193 0.554174289831981 0.2598436558993525 0.3226323090907992
Ni 6.028703673053736 3.347854041748541 12.771062098306526 1.1326341916842042 -1.1906297943623818 -0.15772586609097997
Ni 0.5241465278504172 0.03781690007945278 2.3587990747082253 0.960015724752108 -0.6633777828425415 0.43101587730322544
Ni 6.807236298209335 2.145615968447629 10.847771681725353 -0.7058423797646554 -1.2187394081144043 -0.8120150563686918
Ni 8.498884786962602 7.420701614622005 4.242672061873966 0.35700590147466255 1.45245679924035 -1.3806687707637706
Ni 6.510296474119376 6.2421569264623695 8.250088515234289 -0.11999235609594819 -0.6938391846561922 -0.7154418505276324
Ni 8.445308686473291 1.8698068322384487 1.9252267795292661 0.043558601317241104 2.1940868781275764 2.867675282954532
P 4.695749536238147 7.442535425216856 0.375221436364223 -1.7400429153602937 -0.570365811990179 -0.7903226589969228
P 1.156794142096716 9.31332292860914 13.220030005439252 -0.46321457352295703 -1.424677829354869 0.49848496668947695
P 3.8010166309675832 7.096617553123026 4.722594021332221 0.22735931011840196 0.4267784421831101 0.1432346144533404
P 1.9493429634604504 5.533187191926547 12.488901728634055 -0.2275706547982597 0.29535547565271714 0.2178454570906958
P 0.9895249490649843 0.17871529068764191 7.289932816903775 1.2594646537479084 0.8482416428008941 0.2906120474304608
P 8.826021881298999 2.6980391313413086 9.546905845192468 0.5219239144387076 -0.5304157539598027 0.3743590480411295
P 6.847823131717642 8.79068071330225 8.147097690529208 -0.5924749851843926 0.027145964287172603 -1.3662299696306213
P 6.580155416408236 7.40447428251041 2.7402264941855945 1.7054260966173727 1.0121348140448505 3.7827157285475304
Ni 4.758854799826058 5.038623627109221 13.44485904423239 -1.7569481757560643 1.7513395713200357 2.023846424509353
Ni 8.675303826891922 6.95590049416215 1.6897408058106167 0.5612497086215237 0.19031691265312384 1.469211907211502
Ni 7.048370382677203 2.1609366423226595 8.200665464565327 0.5910002004110789 -0.3729886500561641 0.08717968044130148
Ni 2.2471894457869754 2.3834102200236575 9.911772874430522 0.21713249018407121 0.17315659882375337 1.52882396244718
Ni 1.465372497427489 5.111378324786297 10.245712681025559 0.5478488618345856 -0.41060028976135093 -0.2500680645698274
Ni 2.5408171918290714 0.9126976906150892 11.893613059541595 0.18534285647730017 -0.3500253563917714 -1.6657642592513764
Ni 2.225679441705185 6.951283938447391 8.538057973751041 1.4059383439638367 -0.025377302422524034 0.7538135083272953
Ni 8.829037907677778 6.01134764395376 11.398010538398081 0.044838239360613104 -0.5764387576571363 -1.4324384471368943
Ni 6.023087942955822 8.92881657177331 1.2707222256514703 0.72637418116942 0.016715512982467984 -0.7542634513805203
Ni 4.981393138829668 7.24489318126017 11.34757166043958 1.636543928933678 -2.010513711956189 -0.4047754555494577
Ni 6.559690844782894 4.511660907756654 10.269016573189699 -0.4717174687876457 0.9966092076054256 -0.793750196621233
Ni 6.291181232539534 2.159530396894516 5.907402977777355 -0.738748643574373 0.8923592019453986 -0.529288582333895
Ni 1.7633392507445786 9.100017701035048 9.414898256271417 -0.2602866569740421 0.8764813543728776 -0.15701289918435538
Ni 3.9255341126608396 2.876308494202395 4.004680750905704 -0.7087518401019665 -0.6013936278302611 -1.2112492703849462
Ni 5.059754314989998 3.1419501059015156 8.93538151753522 -0.8768932450993155 -0.22025175253934326 0.3938230703030121
Ni 3.347409964244917 9.135858456223373 0.9344704405531908 -1.3031361264939298 0.5919327395276773 0.3455189838809856
Ni 4.763517613614112 7.817457109266132 8.568944489289562 -1.0710611560674135 -0.6683672656373328 -0.7598345177103947
Ni 4.677449842442972 -0.021323121465682247 12.512828254464733 1.1693863116025731 0.5028815530952758 -0.502030003728258
Ni 4.537519170728096 5.29134073312995 2.473501518409924 -0.40982047417253287 0.6775134509129751 0.13802427389699456
Ni 8.84801296934305 2.890768767914153 6.4847499905619355 -1.6870033711358106 -0.8217639082253396 -1.3081613476226632
Ni 2.671542506958406 1.5062553826048797 7.779644834994009 0.39640188677378185 -1.1679832606074594 -0.3204126757316611
Ni 8.280047093822526 4.424529200899748 8.418426269759115 -1.0932492621286782 0.1143482704362934 0.3541319223609772
Ni 5.845780748019255 9.286955826831461 9.948034578085826 0.05307039746241828 1.4856965351300864 1.5668847738746436
Ni 2.7342592027306463 4.159822002281169 1.0223700314267794 -0.5837787429619753 -0.017201708590267147 0.3907053506096368
P 6.383336566156187 5.543789542325572 12.133770173501492 1.3233061736839016 0.4770435089862494 -0.015974006830753135
P 8.324834160385945 6.085453077371027 5.7989694281684825 0.537464690386784 -0.8423880122335944 0.5382820440817568
P 1.4830615846551811 7.372232405424371 2.9756440059557687 -0.4418492204733036 -0.23654560460336035 0.3907138352500691
P 5.811808818992014 3.8943191648019306 3.9252380609917568 -1.778329469645318 0.9913129922034927 -0.3169941369684154
P 9.15628602139008 1.5385065113055774 4.367300562943129 -0.1015266931915929 0.05641077468956091 -0.15088904567480468
P 3.8407245610833014 1.3301601491886197 5.500248668256699 0.5642740972701443 -4.116866322690574 -0.4485646848202662
P 4.242198379203434 5.8171007425768675 9.499432109732123 -0.04174777336074746 0.06748400178458701 -2.1002236150185123
P 7.5855838910717575 0.1306744312487109 11.534649485617342 -0.1393026263887859 -0.3750617305351089 -0.2339523899548874
Ni 0.12607267811740652 1.5958757738050116 11.681633588348113 0.22496047086892224 -0.808478246860027 -0.6726543230484608
Ni 1.671017388064067 6.383022011257786 5.297653109811673 0.36413634187185673 0.777014886144423 0.08007340841382339
Ni 2.5781567085921284 6.647359145290013 1.0332924876929996 0.48723201948347705 -0.04837607731054249 0.37998590730960363
Ni 0.4465264060242598 4.358158117337268 4.643449233410289 0.6311703448720615 -0.015715353852727775 1.3229688449491408
Ni 0.355865208175009 8.383054571433993 11.241574986131845 -0.19681820410675135 -0.15546278108841613 -0.18403236519599273
Ni 6.480876339504282 6.400118995147313 1.0316891828726236 -1.265614732509704 -1.9525718453340826 -0.738279160137122
Ni 2.2080551157801045 5.073650240207568 3.3626094419679164 0.3056920816920348 0.5215176801392244 -1.9054964891128345
Ni 2.97082298955705 0.347973580871023 3.6554804059309203 -0.7851596267387445 0.32711734144534627 -0.13665001925728723
Ni 4.432235795910557 7.908724287875537 2.745371317097373 -0.4769926011436559 -1.2472195178319683 0.3602470341197796
Ni 1.8813343441033565 3.4777189567146043 12.222949262682397 -0.1542574479264053 -0.49309567735310567 -0.18518936161857139
Ni 4.127894680093531 4.981448648517621 4.97392245999266 0.6025043443959366 -0.5443963845096108 -1.5953957368301426
Ni 2.898401350007692 7.442785218812644 12.138387654377714 -1.6054032416648158 0.4526707365688398 1.2023236857605422
Ni 6.239973545402885 3.8990282366632782 1.8621002372276392 1.7776126460839516 0.3011540846123652 -1.719059628240407
Ni 1.6622098509088563 1.9465489758334824 0.6205733319550537 -1.1328167400086553 -0.6419725776938879 0.5797395398955951
Ni 1.16009696852992 3.1365934210140503 7.948957709703877 -2.8287698641385868 -0.37711809884350533 0.6016664218756735
Ni 8.23079149737889 5.191367785126582 13.467540302729988 -0.4548674871098424 -0.6391690468068217 0.9312525365764865
Ni 8.625789185237839 0.4999396780955761 9.454260175998897 -0.7620680350266036 -0.06990546674188605 -0.7919643083654039
Ni 0.8879459207568429 8.680290447193034 5.267741714458193 -0.030344159509496125 1.5843204528525876 -0.6347410929424552
Ni 2.937128608969574 4.118393271838908 8.368812635828183 2.809790751932922 2.726240183603776 1.2324534152663873
Ni 6.702508020271326 7.617261419663608 5.904152885547706 -0.726897914883374 -0.22561147418935984 0.5893302689078237
Ni 0.40697482819627545 7.037286948315918 13.18846719686917 3.077590429454558 1.1378440180199179 0.909815192638317
Ni 7.466867171769591 7.5874157107742075 12.863233159668098 -1.263287112817792 0.1675058282958793 -1.4710728716796408
Ni 7.85979249794496 5.3640954308070254 3.5623073947017954 -1.1549405684908882 0.5657640515521094 -2.015447144702064
Ni 1.5403198277787091 2.6456379859136687 3.08781520788681 -0.5116659841561253 -0.13997188454166862 -0.6694386443246406
P 3.575286484906675 8.499476890300768 10.309583978307224 0.10718697680116378 0.9254737251111803 -0.02258791260284497
P 2.11789813092976 4.43999790060932 6.352010598921372 0.6182533797000772 -0.348235097260568 -0.8888792138165982
P -0.009699392808322313 6.65911794752139 9.266694790728614 -0.3281108157068672 0.27815402417276613 2.095559119663307
P 6.374168216029282 4.287577549105018 6.992268591386029 -0.16039929915808504 -1.2469276976231622 1.1803831769337092
P 6.618799410838189 1.7097909050992433 0.6875152401419841 0.908835602333867 1.6025210350210142 -2.560059501877223
P 3.422403552669431 1.9011605543172394 2.040538904636982 -1.267313974588998 0.315859766253656 -0.27430945361569536
P 4.464181621327514 2.3237465570888327 11.184528604984004 -0.07347595770196379 -0.007151780553432845 -0.2774587978779544
P 0.191996908691865 4.535085996072824 1.9436828256121754 0.045447590809837866 -0.3884121837000859 0.4591411747845318
