# total energy = -340854.38326811127 ev
CRYSTAL
PRIMVEC
9.37997965166425 0.00000000000000 0.00000000000000
0.00000000000000 9.37997965166425 0.00000000000000
0.00000000000000 0.00000000000000 13.72854836307825
PRIMCOORD
 96 1
Ni 4.86095880225743 9.087793448753366 11.81259222869089 2.262664112976342 3.1678022118539633 -1.2332915948969663
Ni 1.8248469340709308 6.402914924932424 1.3186300591329816 -0.20377689481277161 -1.858562286455141 -0.047414484728221566
Ni 0.7594031662394309 1.6426595860241364 6.752482384881923 1.6402630296564784 -2.1346694554012076 -0.6013123809703644
Ni 4.958304232830958 0.9596563554198361 8.045945020159458 0.3004884260039083 -0.0384243654144693 0.8883076575838443
Ni 1.1001778331055194 9.008148040100464 4.666347670938846 -0.12643991149350484 0.3527728372299215 1.1129462263369736
Ni 6.859813741971983 5.783170278235223 8.823846444602207 -2.0751602442919808 1.622804724970715 -0.8816482432857978
Ni 1.9736040340387067 6.705700673526901 4.445702405629432 -0.38947096398190345 0.041473950874070506 0.16293389265448066
Ni 6.54910191042948 2.0999523622161416 4.952642477011514 0.49335124500733746 -3.4021330681941926 -0.7815040322640282
Ni 8.473761209766637 0.6760020136665396 12.908761996419258 0.7140002329850994 -0.19340326488793144 -0.36037944593258575
Ni 6.3611646347529325 7.829309696223158 10.317937468252953 0.2533135680903186 0.42107393559916517 -0.5467643705211551
Ni 7.398074503971532 2.506274328065446 8.659406018375138 -0.9255089492244899 -0.46854678436914793 1.91256573725479
Ni 8.322696634763105 4.672543147610056 7.3912862125756895 0.171678214506014 0.36815471900263047 -0.1719605216331232
Ni 0.10420876180793237 8.297145569733013 2.3009324998326086 -0.65600077365218 0.7411078878351688 -0.6501476573055125
Ni 4.572796442202569 6.089801818555961 5.057213306040505 -0.8907530338005434 -0.1083776546751553 3.5687091855869504
Ni 3.05169201466777 4.455265295056076 1.961644559768014 0.656168923798928 -0.8191802066585634 0.7180471493609634
Ni 4.431018047220985 6.732621215610735 0.32308308692730153 -1.635697521772983 -1.835616733402561 -1.493727375854363
Ni 8.06419377089956 9.324684839111283 9.004266604450887 -1.3511044268430925 0.17186590503678786 0.7271745655835282
Ni 1.1651248133802454 3.2670938712577193 9.121316558632605 0.5565451040570027 0.8001514721618865 -0.6470422789073115
Ni 3.126300374157252 1.3845882012323198 5.307498369583614 -0.2494993365505509 0.9402706809146968 0.01305297652921623
Ni 1.722154914999917 8.076087585311512 11.15391034776226 0.267182612762927 0.25428210265117496 0.296874740510721
Ni 4.30707099387751 6.624216788829249 10.917188735039089 -0.06465450275559188 -0.2734172808187291 -0.41440835065353143
Ni 7.1302291802071185 6.748145082213084 5.716265696172031 -3.6662465551134926 -1.3548590087895183 1.123242723166975
Ni 9.084360376139191 6.179052326544699 12.364782260723365 -0.18862692654521063 0.4520559858029763 -0.3634184898692257
Ni 3.7590362929053627 4.650725314548384 9.284699861133943 -1.1141286766808491 2.7626382626168358 -3.027845753931263
P 0.8395869857340104 3.64650467500301 6.9319973766779555 -0.32332239317928835 2.562570184114219 -0.3644050221522111
P 1.0908353732046487 8.309649082833275 6.902796561499843 -1.9114655622120755 -2.5631103728884055 -1.504338575711306
P 1.7079723855118485 6.376125702566073 9.930230072356741 0.5875927173914267 -1.9446744448638769 -0.2650221147764984
P 0.1895093602944042 5.891865484391134 3.133513578638948 -0.0830070371208506 -0.20131917730089846 -0.03807109584010863
P 5.011948337422402 0.4198385167701419 4.8853176718523805 0.9104407420374578 3.040633135503918 3.203900757348734
P 9.272081912279875 1.1150451011204587 3.62288119582596 -0.8907111248190143 0.20281016002412816 -0.5263701231355193
P 8.53173886503499 2.332641521614629 0.4781791772575355 -0.6641396007092304 1.7091279709489922 0.5492231164742928
P 2.7264599743636717 4.869991722824236 4.742128527905846 0.6970834026251027 -1.8077554882159188 -0.361959388825196
Ni 1.5268262152250909 3.1900654769746386 4.173163339963015 2.414608082278222 -1.1908120855765167 1.5371954743403269
Ni 0.7871003706523729 4.164832979884738 12.40849390468325 0.758697318782158 -1.1868189052567237 0.15729366364956782
Ni 6.815371397584108 4.2593550365324 5.068470219822668 -1.6213952462176981 2.239586919441904 1.848172458580385
Ni 5.008393325070565 0.6111610271637813 2.8565537284832936 -1.5813837388217669 3.7174035376032815 -3.5094799676119885
Ni 1.3763056790511266 8.231504470951595 13.658876168642793 -1.125977348489319 0.30461607501903665 -0.7374018997384914
Ni 6.50381536785779 0.8558593747260084 14.053228342243603 -1.7982046113026902 0.5058861442495546 -0.7643637730393158
Ni 5.120709203437054 3.0671314614517393 9.656716426787009 0.947295191861646 -1.4966774596216224 0.0446214953641167
Ni 6.894969906337909 2.4806763631362534 2.7909182576897686 0.4980365662981487 -0.984625552880988 -0.26757444888470694
Ni 8.128268413051012 2.4107486135770273 6.63853532802471 -1.3940387643127732 0.6396143618743565 -1.5832904689261764
Ni 3.8238425734827866 8.838604904851234 9.556264346897047 0.6575737745662547 -1.121601073798494 0.07591722015360473
Ni 5.595251762518316 8.450076760720755 6.667928432789135 0.2121527775812927 -0.022603853442444942 -0.049808695992010994
Ni 4.162000225979053 6.471041718366182 2.868635142491648 -1.4693813429098306 -0.2107821224860112 -2.054994567977383
Ni 1.4334860360347674 5.851634750942506 7.7621218387693975 -1.0215789901768857 -1.2576075459345115 0.29529274073558176
Ni 8.952327780190746 5.287072525527253 0.928235299018294 0.6939741675721597 -1.1848635813025659 0.04422888791138834
Ni 3.4662308428395265 0.05048117539608905 0.5044187328064261 1.6558390297178645 -0.4185750804367114 0.7549018562954677
Ni 2.01786815881 2.957216857919209 0.3962403635386058 0.03351381548672938 -0.6248881114077754 -0.5175795214270829
Ni 6.413458022250274 7.76304951877361 12.937962811597371 1.492777610346584 -0.13325076376775116 0.10832211884687151
Ni 3.145519952808741 4.306705174664523 11.283439427096708 0.04093659031336175 -2.085709994783369 1.8222644804653712
Ni 2.219959824035154 6.074925170561202 12.238478956449066 -0.11687772172636646 0.6726399248707576 1.3524437144798063
Ni 2.0952811322657063 1.062460934248692 9.732085502639904 1.0044317889736378 -0.6252647780209039 -1.6013092741011001
Ni 3.5049420195572902 8.410493245879719 5.079329422460457 -1.34031453531644 -0.7481750790945955 0.40469266602766435
Ni 7.732742803974703 7.625707854246959 3.761100826463778 0.5718387969912796 -5.103309645506592 -5.00167265198938
Ni 0.4651259973398133 3.530877663760008 2.337463769240169 -1.4027239507915972 -0.23926403197578794 -1.5773856734059675
Ni 9.2164211120271 6.823269340592675 5.468643608899864 3.155465544665482 -0.43299742650962847 -1.249940259197241
P 9.478469608262658 0.7261839677063658 10.412884437986468 -1.632933842984917 -1.0568110739063026 0.7191905189367872
P 3.038888342213264 2.1400048760481867 7.8324388574911605 0.6396567850765177 1.9433780946499561 0.36714221857771606
P 6.0317585034288665 5.90039188604765 3.651285650717341 1.5769820102096455 0.5832861195962729 -0.16089397940631647
P 5.225464818068501 8.16782378795259 1.3937496275226615 2.393197992033562 2.5193314280302417 2.351914045683111
P 4.798600696413065 2.748981305911855 2.059996462176244 0.6023228245127498 0.6132207023721762 0.5571341437912534
P 7.61331690090454 0.40543837175024594 6.98824348767151 -1.1679994585573756 -0.31014240415390454 1.1260187432502156
P 3.423476894819278 7.982109567493419 12.496864570564858 -2.541739620522113 -2.3586531641791573 1.0619440242574938
P 1.3970635743931208 2.377890544267038 11.14633226206556 1.326044655660987 2.8499171876401626 2.4110897847123187
Ni 7.747488132251981 4.13204057043349 12.635385298554901 2.8382551779212024 0.17387805037081022 1.5518065393852825
Ni 8.73537822693047 2.957048018282446 10.849892069819415 0.2928391369887666 -2.006328470230248 -0.471722096773336
Ni 5.62153446597438 4.583724118693045 12.5124878649533 -2.5483424705506112 1.499349864247463 -0.44280284263582453
Ni 4.574822517843722 3.592898090330847 4.6160325211855735 -0.8312975587473876 -0.2671175638529464 -2.5584893291766257
Ni 5.272693016462961 2.6842031652738916 6.603651183073568 0.8782253336471778 0.39876730168216484 2.0432914206078423
Ni 5.448849037485399 8.185692649509978 3.7688299298355825 1.878343068626494 -4.596470907535781 0.3937359099058445
Ni 8.528268272501535 7.302248630128869 7.533527040562406 -0.24858350960450093 0.8502411897294261 1.2763902258586535
Ni 2.3231396020568162 8.070412697520322 2.715039848932638 1.8953180059179358 2.543215690847007 -0.3316712793646159
Ni 2.4940803542992493 0.2168276135226122 7.441161441275397 2.4506305231194183 -0.9362898418900777 0.4280526809098434
Ni 2.4207758120047687 0.6155893156368747 12.107563516097198 0.5802447616667877 2.161631071591716 1.0268975741763215
Ni 7.490579864957863 4.693394842750251 2.9253474384822633 2.258621310365536 0.22445370643583282 -1.3763238635315134
Ni 8.93705717304354 5.969081478270618 9.555234425112795 1.2738049816299803 0.022798228841438156 1.4570847849306647
Ni 7.148407581098572 9.444607881111914 2.3552013110800742 1.7595743005250017 -0.757794090241598 0.5144772283526752
Ni 7.006441586520585 4.264645345150966 10.441892963578267 -0.8476505461841144 -0.9049565789944349 -0.9425797886638477
Ni 7.886311833590216 9.100231301994887 5.046284691552048 0.5757062503664859 4.000424660060362 2.3869404411596244
Ni 6.378630157178054 2.408666258056954 11.89792940909866 -0.9408144692333086 -1.7979171619692584 0.07508186873650294
Ni 3.5638295328681986 4.066587071248476 6.6617507780795835 -2.034697251180928 1.298457490071338 1.10424972700424
Ni 2.927191542514905 1.8024850621796906 2.5228675123672932 -1.0835708584986499 0.1284821387345142 0.019727303225598285
Ni 6.9129231877136785 6.335866829177985 1.1168638792075862 -1.5974510766972745 0.2885883321322127 0.7117196644810387
Ni 8.97810396473652 3.8750760232604513 5.0574459295400445 0.5883627627882319 0.7393500246037976 -0.5605297997363636
Ni 3.156372589460656 7.174906024090498 7.158655209052087 1.2094217302579042 0.5540498484389749 -0.05276495040685751
Ni 0.8049035723510197 8.261323426799855 9.139657233174946 -0.09224989587535726 0.05832393255187375 -1.8890895085097208
Ni 8.735368846950651 8.28952902611905 11.465617395163681 -0.7561431849017365 0.027022294225114752 -1.028773451042796
Ni 6.510559573348479 3.4182991459585548 0.7434994104543647 -0.4927634908246675 0.2855873405223598 -0.35178707627788447
P 8.672860661429164 7.368968426589604 0.40653770538516765 -0.14632122379846413 1.057820231897107 -0.22825919622485202
P 5.840753974351131 1.079241718146942 10.156682483172808 0.25596694655276564 -0.7978853018355291 -0.7850655243630414
P 5.545519109511875 5.015465829854959 7.354891890873503 -0.20693240972261784 -1.1883176012894372 -1.3983597602856304
P 5.002399517965488 7.087325152509748 8.52744658626929 -0.47323956185912686 0.9423787283966352 0.6610385931864035
P 4.4207375893381 1.5886215222802462 12.984475317531555 0.6063504576149041 0.7031851446474664 -0.3832365530364174
P 3.6468986341554563 4.7794467776203176 13.570038379766144 -1.1691885937694704 -1.310146753483808 -0.3367528076525813
P 1.5509609033023395 0.48489899480069176 1.3137562216184313 -0.6599821268974312 0.7157683806291156 0.9834659853552481
P 7.059006993432712 6.076951246202355 11.390192039431865 0.22570969033012098 1.486457324555511 0.5442151217367401
