# total energy = -340870.8995802762 ev
CRYSTAL
PRIMVEC
9.22423278497522 0.00000000000000 0.00000000000000
0.00000000000000 9.22423278497522 0.00000000000000
0.00000000000000 0.00000000000000 13.50059708054899
PRIMCOORD
 96 1
Ni 7.386396747706692 3.93510388200636 0.6267386604520475 -0.4492637677698198 -0.5368733366596884 -1.991281088978822
Ni 2.926572376423525 6.002863277263888 12.209130114500402 0.6731860271822149 -0.13925814630409564 -0.832508034115721
Ni 2.187683647364195 7.450062403274741 9.916364005787146 -0.6256399019721354 -0.14841487310269924 -0.029595197158613543
Ni 4.700650644185317 1.3978587041572599 12.100531375564767 0.38133239403516905 -1.5429200355289299 -1.107412698113254
Ni 0.39843243888320795 6.036319570040666 11.157932842000085 0.7563432167276846 0.40917641283063083 1.2134555340076456
Ni 3.9251601589257517 8.24551412855883 8.161610505978855 -0.06810260920519239 -0.30089800273750117 -0.6390626031359445
Ni 5.4709571105475705 5.278511939276022 3.7737277720336104 -0.6136061107360529 0.07078195580956842 0.8073775575966804
Ni 2.319507159929104 5.289590243004975 4.35506291323949 2.411190314845925 0.00799098862527656 -0.44449617117784734
Ni 5.8836031699269835 6.776020031596372 12.099100697039901 -0.251508910781412 0.48955603963096334 0.11267962448461885
Ni 8.038420875420856 2.1298569312303055 4.159763764304546 0.056228997696058 0.03473894614308211 0.721761364987757
Ni 7.428136401639671 2.57621756190807 11.63222260509294 -1.515683825520796 -1.4116518494088464 0.3892038263634458
Ni 1.9341832784390798 5.701922678465333 0.9380353055424381 0.1218440645927063 -1.9417544430036044 1.5311942624515695
Ni 1.635013732359891 7.596340288814894 13.3943471894223 0.7395426002305779 -0.07658622119617133 0.3158839346233721
Ni 7.457506359235827 1.9428263846789033 9.208635657932456 -0.6746875514284059 -1.1949543898796646 -0.6645820875632877
Ni 7.021762820641346 6.853614278863604 3.4624707911447477 1.2799090376451892 0.32066772916526065 1.0509936958935773
Ni 8.139555365082998 3.6778400260525914 7.2443398711476945 -0.7352951378081336 -0.4032155672615056 -1.169689701775605
Ni 5.927519742827518 7.0200840102511135 6.595041504259429 -0.9233497367896422 -0.2181845855976694 -0.762746549150867
Ni 0.6042804205778761 2.566550565814863 8.468600356721995 0.8037350757480868 -0.13024128751746603 -0.476926780902727
Ni 3.86762861824509 3.186907901937444 10.740899737447076 0.22029340441055612 1.1837729193415485 0.3596052867707226
Ni 5.65244389311804 1.8436013112298288 0.7821789765450464 0.8086610522947943 0.552478647297113 0.545812291020531
Ni 1.686595642811432 0.35034743512912403 7.7045746705504525 1.8151450958117707 0.7943356368110578 1.9842128692781311
Ni 1.3750471761625065 3.8724344435929536 10.357252821500703 0.844774767298216 0.23890330620225955 -1.831951368735832
Ni 0.4970311869174649 1.9013542335004114 11.623555515847542 0.37928579591878553 -0.6188125946376568 -0.26101582183058275
Ni 4.228471385583042 8.675344933855841 10.333667380364517 1.9164239346586158 0.11154448243891112 1.0706366669354852
P 4.2194869827254236 6.81361800495125 4.936628660268203 0.30856580369540404 -1.1525640978389118 -1.2808222934880782
P 2.8549185351525006 2.7331033152985937 7.992326461129477 -1.898579193167711 0.8313926895643553 -0.16441381963411686
P 4.478531115631472 6.2932790263082925 0.26684783395075534 0.2934325475983914 -0.5747348875921521 -0.21480281360963008
P 6.0918586764120395 7.089634726417891 9.517543226698287 0.21867000987452015 1.808971620011207 1.4987495116593028
P 0.5932915919081836 0.7062081942705668 9.602597111122556 -1.0539478934258946 -0.7620436095465715 1.1380119110563498
P 8.189790537529188 7.602511300633934 5.2060869521334405 0.1022229479276691 0.12837518084300473 -0.5320494329084837
P 3.043378837805474 5.365496455649061 10.083245137962592 1.1209007052973599 -0.410158574238242 -0.46458188618412893
P 2.411675695199454 1.1018530699673557 5.67118199985825 -0.24698891142387142 -0.6148217283107089 -0.6451792575566437
Ni 0.2311113107977941 8.533808304033158 12.038684738727232 -1.1410008184813447 1.2192158335301906 -1.7881667674507142
Ni 4.7441705750705765 4.302385163917841 1.6902069299970146 -1.209021666606008 -1.863205184543791 -1.1971220869549448
Ni 8.598396382892545 6.805473007288748 1.6684441972845108 0.46852338733038024 -1.7926016632936161 -1.0383353836996183
Ni 4.360866800588579 2.015891533585673 5.706149221986238 -0.41110859685633716 -0.12537881721884214 1.5746929570651524
Ni 8.178149555592519 4.190642806405329 2.769418197855223 -0.09808835693400526 1.0810385789950994 1.2745374889206307
Ni 4.031681600609298 6.459453582242575 2.375051800840226 -1.5473844990581866 0.9274167077701642 0.11610356256450327
Ni 0.9089273161610213 5.633322058288632 6.1909149463988 -2.402830887137636 0.7339864462990392 0.6468157647188022
Ni 3.911618985008931 3.242576147569606 3.8220461488804025 0.09724914886216154 0.48735851775901223 -0.3599801536116381
Ni 0.045397984706420466 5.540083512000333 8.869217093959088 0.05480563498597013 -0.46266255767422904 -0.02346260189831443
Ni 2.699084344314101 1.3559530140318394 10.075779043842514 -1.1671818477520868 -0.9667674416536447 -0.4001338430123883
Ni 1.9462301266239355 3.4723610136744583 5.937940358749747 -1.1459211386010975 -2.027902339746282 0.4980720475217745
Ni 7.2674225915901 8.032609608685437 13.343396216502034 0.1555090609453193 1.0247954402316544 0.44788051426904796
Ni 4.378678794344288 1.4573088852839013 8.057993775239726 0.33721714888350957 -3.2613610563487314 -0.4011656267110123
Ni 6.9022167620841275 5.381841796371544 8.54304268360273 0.7255370299801054 -0.9304971464677008 0.4249249339141391
Ni 0.3695356844355073 6.048191157800167 3.7446603692770126 -1.7383009929685227 1.6254861284576196 0.2341868745631967
Ni 3.208880024737081 2.1889842642049793 1.5212337417968171 1.1992866987064315 0.33382354982092827 1.1675060638607249
Ni 4.880652325256735 3.5619559879619787 8.461310445450563 0.9023548797055297 1.2458411494272028 0.2511636116268513
Ni 4.162739501842398 8.402160051893604 13.282022782812955 1.471625144638685 0.04326652399811903 -0.376503605187958
Ni 6.157193918137409 9.218633803987252 7.663222434399834 -0.3939238575469345 -0.5544131453156645 0.1972879446543183
Ni 2.8912712370640747 6.650920984825306 6.5574564448306285 -0.06142931095007485 1.8904416516622409 0.7690552649777141
Ni 4.620316799742816 5.915011682996994 8.49221347055692 -2.163214614028752 0.3302854547606828 -0.7491374430078646
Ni 2.7631189691986853 8.998442140112301 1.5370699048624832 0.10468452209428422 -0.48881196237608715 0.4586117846436231
Ni 6.591443130999925 9.159524919478406 11.180384624911218 0.12300440344939462 0.2639242537266293 0.25182592780119856
Ni 8.921373674121131 0.01945944175403621 3.520226480685204 1.3604773834175603 -0.30147367273531306 1.625734754133316
P 9.22410377410488 4.186187501908173 4.886838095848438 -0.11199005461676198 -1.6802943345467511 -0.29588769400710335
P 7.048402405295146 1.545713933525598 6.456228790416063 0.9516131025107095 0.93822562546021 -0.7370200909190404
P 1.3918998496952257 7.398904807537216 2.232121389424334 0.535167152601859 -0.11464883239584772 0.7334552563859175
P 8.34292202812397 3.713666946688104 9.854261857697912 0.005755414426538475 1.3468695628261385 -0.07533717928041864
P 7.992705577102216 0.888069480697319 12.924837423825153 0.19910725725124417 -0.0050846136117589855 0.1319418151483405
P 6.281370541617138 3.0599732328166196 2.7174949907858874 0.011781051795328098 0.001093490174494891 -0.7955728516522685
P 1.2021481544343804 7.196386773924272 7.987156278581535 -0.16236593596615265 -0.018085139636484983 -0.4721951797550126
P 8.515295268576034 6.3478588124566775 13.038134064583566 -0.2461381333878019 0.06662371066682074 -0.31995450514831997
Ni 5.189940854841885 8.268879110528385 3.607831787933312 -0.1413178570466018 -0.3610152797443718 0.3031240638545425
Ni 5.365653267608588 5.148717757952054 10.650094543801321 -0.4753082714626976 -1.2078710979413327 -0.26111480930229225
Ni 5.757332645575921 1.2895569855214337 4.007516877646155 0.09803282110572148 -0.967334112790392 -1.0652615186665009
Ni 7.3053434130969475 8.640163709524266 2.134903509057208 -3.2979475972235135 1.6521255854220194 -0.48234203838102735
Ni 2.1811436662286185 4.726303235917387 7.990314655931072 0.36430269224639195 0.5563939231911192 1.2933001142401146
Ni 0.6996525319390378 3.2794454065243284 1.1989971564711748 1.277617413397535 0.5755057043199057 -0.24799678386309545
Ni 2.8696404108822318 3.6975153148568003 13.37278738983389 0.500488370272751 1.2754242624009584 -1.129822433267022
Ni 3.1899518987988547 0.921103303606664 3.594682643915309 0.5446455244059394 -0.16604235637647533 0.9400981598925745
Ni 0.8511439539218247 8.297289747901551 6.153653657545259 -0.9552702396473227 -1.1532459543972848 -2.154330938385877
Ni 2.307755487197476 7.9898645133649 4.1769632689948075 0.2749100633141717 -0.8776836022110949 -0.3215249349592334
Ni 0.2957934768328968 1.4315824996885247 5.901799814195179 -1.102307772786521 -0.031625597325081016 1.5434537965452129
Ni 7.624022211787904 4.784434351737417 11.74809834137393 -0.01538419576555415 1.4484255665937702 0.1923228873395591
Ni 6.372985622912685 5.80167353319047 1.471808457000421 0.5379462580088928 1.875675291986344 -0.7536780111906956
Ni 8.05197127357059 1.9679255224361714 1.7388232495669085 -0.044336874244162355 -1.9412307092896504 -0.3706564023785617
Ni 8.293000479596836 7.895500610661169 9.928946781904267 -0.2606977763695317 -0.7297734366589561 -0.46303125386755734
Ni 1.1853969474637085 2.3642631380247536 3.987631276331521 0.5721457867087373 0.681814135170858 -1.2592962464908442
Ni 7.510351989596499 5.4888060012349325 5.353635014545763 0.26766469460566805 -0.8815382000704947 0.6162759442587322
Ni 8.162855777422159 7.044399088210746 7.350373350910124 0.7519792833320339 0.06879603572779118 -0.14418849372617748
Ni 4.228858803365403 8.762661522613762 5.796265365433364 -0.44297176411352096 1.1955899665811347 0.6917990142977117
Ni 6.19715329511811 3.36068322579234 4.869260397608728 0.26821979577818966 0.6181726470608128 2.2574843685476154
Ni 8.448760876571928 9.248584888256952 7.940700274359952 0.8308648420853432 1.616346628050197 -0.4210646796277845
Ni 0.17146373108680638 8.945504267422496 1.1149210407357206 0.0811167620766732 1.8765798060784842 -0.206758860259231
Ni 2.570683022160051 1.3624560982357623 12.984455485990818 -1.191755937547025 -1.4127296558540574 -0.9777871898029161
Ni 3.795928655809499 4.655322763649038 6.136007699981992 3.06772202130091 -0.5377030316498352 -0.21376305949120605
P 0.9384088869754293 4.0073941953484065 12.332552195727818 -0.39237991009858225 -0.08246324880223863 2.6381009674626825
P 2.482416337412055 4.111923202722666 2.5258403362750146 -0.25538433457641824 0.41649968596492143 -1.2760999483117441
P 5.078530569714255 3.3518187379625957 12.68236647019455 0.41687660968836593 1.5241442975833235 0.05742533199700432
P 5.908296441436063 4.629282754134607 6.711848888064669 0.4339507915618333 0.30127235535778435 0.40766229017894956
P 5.024107595525398 9.27275237848997 1.8131705668486355 -0.3706096083010263 0.3667606668685813 -0.7408168389573112
P 5.397799719311667 1.4694664242637174 9.937290100574408 0.23402489506403565 0.23968877821803233 0.781975572583808
P 1.3455019581409962 1.3406869085602193 2.1116012518714635 -1.5512920616427088 -0.5390821713855489 -0.19465230680368412
P 2.6372358626299843 8.59026983369587 11.759019833143356 -0.9243779209438403 0.8290198184568045 -0.03911753482675199
