# total energy = -340896.6435581574 ev
CRYSTAL
PRIMVEC
9.03019001837642 0.00000000000000 0.00000000000000

0.00000000000000 9.03019001837642 0.00000000000000

0.00000000000000 0.00000000000000 13.21659587749384

PRIMCOORD
 96 1
Ni 6.353163070695524 1.9747038847064315 11.441607398670625 0.1649928320660384 0.6025819917114074 0.32206306685089053
Ni 4.6967914432059645 0.43841482056772413 5.846545934256874 -0.9107076225455992 -0.37904154111846333 0.6118024818684109
Ni 2.9026552373633865 1.8404430200661146 4.625147721933208 -0.8568216711604211 -1.2132778707792007 1.3859431317888324
Ni 3.5603871850232442 4.262213550361247 4.897501863841859 -1.1543687551478183 1.0732792467646548 -0.46451915126699356
Ni 5.044896236790816 4.574080191551587 2.600299192261234 -0.18045956024306983 -0.4769704896564688 0.3777251362998849
Ni 7.134798255087274 6.001139174658836 2.6148107075610048 0.9101185828113488 -0.2007108542929382 -0.03368119430252909
Ni 4.970740316665292 4.629796463735524 11.430002701525797 -0.2989141395382529 0.10095153741441323 -0.19227532193107533
Ni 5.461504051572968 8.02347731151604 12.41950292607554 0.44296482213498545 -0.2577044980691626 0.037212861604871396
Ni 1.9043496745629884 6.571829121090014 0.48082601083337606 0.2107013898467468 -0.5148397538984165 -0.9997364403804975
Ni 2.705724854253618 1.3883375284679098 0.5199989749717736 0.13000268914409868 0.9348857624536996 -0.9412083622376177
Ni 0.6569707026444435 8.80025425369791 4.579933560697395 -0.3219113717643746 -0.32908783490815585 0.5241309493923554
Ni 8.523496991154431 2.1651957423596118 1.4380315669533907 1.0082259659087474 1.0991717982607005 0.1314039403669995
Ni 6.922986118888508 0.6437577286639679 4.729149322965559 -0.04145235360751571 0.06783315759388962 -0.07058320953520102
Ni 0.8522955179755561 7.210453186749676 2.5367140125276904 -0.5607807394049052 0.4840165978699729 0.20683445069217282
Ni 7.599654374938918 3.872262856403566 3.921271503469475 -0.5507904609614128 -0.30386325601341213 0.006945063859265459
Ni 7.62397267655826 3.769399962327843 12.668648576713535 0.31449631024722613 0.19808627218589756 -0.024097921489468176
Ni 7.917634454746524 8.702944926460619 6.996350091352681 0.02173353502234967 0.4631628943494152 -0.05548749154434315
Ni 6.861698219486178 0.7254764328987369 0.4459640593919981 -0.7442258646388602 -0.04633642117269439 -0.9628372533613032
Ni 1.7062634271356285 6.702324396508175 9.079272675812678 0.918500893337773 -0.4124268014471284 0.3226204820162573
Ni 0.24299338220381275 4.859930855406123 1.3778435446907702 -0.5706347493808495 -0.38677516231729514 0.1692598348725085
Ni 6.345360986551776 2.022870918066093 6.873026592817579 0.2803381763082785 -0.5076954295441515 1.0881268533004487
Ni 3.263330055402053 4.357454964092847 0.43372002479650407 0.23926968840274274 0.5441431308482242 -0.08135484622940828
Ni 5.757640101816077 5.551426683405646 4.950844099079739 0.9868621555209908 0.42113409941313923 -0.737397528863117
Ni 5.290770249598628 2.8349468728844323 9.167255622837398 -0.17865644559606006 0.9120615654703325 0.5056017802399163
P 0.2765595013828901 5.60955401631456 12.457025171485375 -0.4949216748182509 -0.3992869216310608 -0.2358735182370002
P 3.8987484036183933 6.361759811557616 12.457989595775366 0.161246991870361 -1.3049407838028364 0.46721983802760825
P 2.492034438538764 8.450822022185823 1.4170309571331376 -0.366866082098194 -0.5209967746387479 0.6558393083736511
P 6.13674553760635 7.790317806201742 5.724477632129158 1.8836333704911559 -0.8440779983415078 0.7062987505757836
P 4.712332400163591 1.153371985157374 12.693998126028728 0.47604669229061886 -0.5167112598895165 0.4081109476805939
P 4.1730675148669505 6.315335604864324 7.994625854526141 -0.07737683541826675 -0.32180004299749093 1.0359110905288416
P 4.756833176390889 1.0494164380939273 3.742754580750349 0.7808918526013261 -0.34677393933400924 -0.5263192152929258
P 0.13194552392914008 5.428101378832549 3.6544944068932064 -0.28613344283381686 0.10795162288133021 -0.7169719140189137
Ni 1.5591977531019856 1.004951782626553 2.636195100455458 0.017192966839518778 0.1576916704189349 -0.19363543550339554
Ni 1.675696234049304 6.31682558621122 4.77210322764908 1.3754615155312182 0.44999756061205076 0.25076843307096164
Ni 6.050561404425883 5.759066871833105 9.258634824314043 -0.36128344580409394 -0.24459752837355941 -0.5969990983069912
Ni 8.627660232587447 2.2273595701901163 10.263360852191067 0.2652031204390529 0.9798271030510802 0.1411661619600859
Ni 2.5230170203642226 5.2332930903683605 7.030805684244905 -1.3199285154609204 0.43797122557513607 -0.4567220238200779
Ni 0.5185523385367871 9.113358030915673 9.292667804315148 -0.3257981084132905 -0.20490818020373744 -0.7084119402640444
Ni 1.5474765665064023 1.1210258446447554 11.444197257157228 -0.29425118684494483 0.5219719940678237 -0.26519283602640775
Ni 4.1742324093745236 6.688490145456994 1.6079968997603304 -0.5242705602940133 1.0570005642092895 0.06129252826189444
Ni 5.682238015473149 7.937410570805328 7.8922903235453195 -0.39536341820693843 0.6400709897958009 0.6346336208303136
Ni 5.322655850422206 2.8900852129095718 4.7752619881045 1.0941236943138317 -0.3106967339954778 0.0969519293367169
Ni 0.9707544531677905 7.4325958602869235 6.772990148205969 -0.7593169546440277 -0.07820267375367178 0.6776381494162975
Ni 4.975679830585003 4.467794855472994 6.985380216563533 -0.01669648681907447 0.8646928463783817 1.0884623822629966
Ni 8.298582049292959 6.9238439869367205 9.18536205676868 -0.603992756016005 1.2613742120657956 0.38611927390085116
Ni 4.583850857111234 0.5452853129570988 10.449305106169719 -0.6601569619123986 -0.8311764597884911 -0.03487881415505606
Ni 8.039794864812048 7.016015136074715 4.887061158185607 0.09026320446263164 0.21339616307009054 -0.2777349343574765
Ni 7.318580681584431 6.0887681382362935 7.159232143138376 -0.30118699473282967 -0.16838463135640677 -0.9878438027079697
Ni 2.3659278354514606 5.04598888977854 2.743395194779146 -0.08545035645502058 0.02107790371622176 -0.5731852837168452
Ni 2.354947124434335 5.224488655136701 11.251248284810167 0.045521638580882894 0.4266429450465104 0.809074228572813
Ni 0.9858529308163384 3.21522623337226 3.7455169158655948 -0.13977493803951413 0.22069166829023928 0.2821343489767528
Ni 3.659899878615946 2.540318864368181 2.5405473281747053 0.6261258404696184 0.8679681746955439 -0.7874687344878954
Ni 1.1860522426992968 3.358860435213051 8.188593432303081 -0.9947880952362866 0.44476639412009855 -0.062011922926422235
Ni 3.6785201303571577 2.5988615860162287 6.9341266642683 0.09024237852702523 -0.4852419856366417 0.45438720503931423
Ni 4.068678518684407 6.978964266581897 5.978659419719664 -0.6410423525701346 0.42705046489757414 -0.9614992512761699
Ni 0.8547083847385297 7.3858646271342705 11.272672410540538 -0.38278326754908276 -0.2037460415748362 0.6282498287911568
P 0.36607577466641594 5.515387195190721 7.85694886901594 -0.18877862163172648 0.017186539081615562 0.5186894666618099
P 8.436933589994755 1.6446955918438821 8.027046945615602 0.35161764057955575 -0.18000190388036097 -0.33296582980632333
P 1.8968907376385264 3.3141609948061657 10.380340642264382 -0.2587758767564705 -0.7334753109905755 -0.41259083782881845
P 3.952378701916674 6.181074740224007 3.7549805549658806 0.07466175047994884 -0.9405738139774122 0.6131646523232601
P 6.820800489061374 4.0421026695697675 10.475790653384546 0.4454729332688199 -0.5466435286725747 0.681074428791356
P 6.319155375226366 7.7867599113491535 10.219640284378142 -0.2823978870507846 0.2901641612597648 -0.30118930872567484
P 2.471779722410957 8.570444948866633 5.686810000660626 0.013543800122705707 0.7620657210337585 0.6895526414656963
P 7.008971587889389 3.9818351816353124 1.7064340977262729 -0.12115063807010748 0.028762159734356918 -0.9550712362626391
Ni 5.3082436672122295 3.103071273805894 0.5173106874143736 0.12040604659459908 -0.7949251907659407 -0.4286363213274553
Ni 1.493728875738366 1.1672784777284049 6.890234522845733 -0.6373417637900959 0.2003231319362163 -0.19084193191865842
Ni 6.7276089284555045 0.8931842182103795 9.29659322789997 0.4288625784056485 -1.2302672062483457 -0.8923836274254309
Ni 2.5844313424262886 1.6258224947831974 9.058469827153013 0.8792630308830728 -0.32756085674066815 1.0921053783322223
Ni 6.3923179744539596 2.0474872159548143 2.600906924046968 -0.10443769619080077 -0.3140571658272785 0.21713069041185828
Ni 4.086133875918044 6.870999315166803 10.16933761108793 -0.09186165929800308 1.0876370581482238 0.5761569647506593
Ni 8.034250328163598 7.307672212087155 0.1446699646316334 -0.26409548919717096 -0.7789645536716263 0.65387755666159
Ni 7.695347298169578 3.9565867704479083 8.527743889502586 0.03949934364620294 -0.7377507984374778 -1.5418432575249832
Ni 2.9700475451929997 8.379573823234242 12.31300357449439 0.7999650671826932 -0.08536936670544007 0.43803730292638104
Ni 0.12068307098460125 4.940236334908836 10.24238552690276 0.21669334576412355 -0.9083923441488614 0.6216593200578326
Ni 8.49764355723829 2.273359357954293 5.689559693509897 0.6753742930827852 -0.17208264903328427 0.3932507427393098
Ni 3.5584366639873077 2.696477939712881 11.743539927862658 -0.17498825271585344 0.43941207178672065 -0.6212559139718268
Ni 1.0953620447182164 3.2954865619250673 12.660785087277915 -0.0397885927518476 0.3658841778008989 -0.21381113912032207
Ni 2.9826988413566453 8.44282127386249 7.9678630804788915 1.1557365820296226 -0.31461689498549045 -0.22764136013519506
Ni 5.795738473346713 7.830809178077392 3.5394046355829536 -1.4658296210028303 0.14281269642457342 0.40686010599262834
Ni 3.178807477178125 8.204857707478201 3.6491413102723573 -0.01798872326793676 0.49118329082174117 -0.18819446699348236
Ni 3.597338722426269 4.571091198667815 9.095357250207172 -0.5086310539845434 -0.8189308096519187 1.0326990113494472
Ni 7.1742330947351265 6.1010491966107105 11.443497417433687 0.3290400123893559 -0.24965514540212486 0.0610485305718884
Ni 0.5739200453874489 8.954833045795901 0.3895777471114582 0.3709204546732257 0.17690115346785018 0.06639076872040824
Ni 4.57394473870187 0.2379238335483733 1.6496558752005492 0.5379429155747832 -0.2036419118968041 -0.25245044875907485
Ni 5.850452394442737 5.577605204161114 0.35296393881372956 0.6024940599832914 0.3822929581762255 -0.17391610269759725
Ni 7.904748373643367 8.759203010043425 11.31841483789025 0.06402098293665104 0.6167168884508928 0.24046576559337302
Ni -0.042203495896084554 4.715682600646612 5.796534936103053 0.514604755069475 -0.004647268964024254 0.649776390009023
Ni 7.839577492549127 8.753857137574562 2.3869437965946814 1.153486609653181 -0.3569295397107724 0.573426967414006
P 8.663961596311825 1.3406761857471947 3.5478632145383333 -0.9175295305634391 1.528361935209097 0.7452440214907294
P 1.7803019547913963 3.154859413348012 1.6087509206237598 -0.16158046395037978 -0.19594402903191416 -0.12725495119563246
P 4.637074796860362 1.0349049227941567 8.155683807935635 0.34743291307424684 -0.22702326693522193 0.11817561460218359
P 8.634649599632887 1.5655911276086674 12.486669479155623 -0.877631923037553 0.09450423912717272 -0.468755043725212
P 6.2612899178269075 7.654566960214527 1.4216164876055855 -0.23552256265548469 -0.1677282287193305 -1.457420828113845
P 1.8954910581914424 3.37844691728225 6.059386609094498 -1.1942709906593947 -1.1332188605430806 -1.416686069398644
P 6.859549034270655 4.009575925257525 6.285588353028291 1.2517490302712055 0.11327149243234685 -1.6660964457798144
P 2.4423864540221873 8.528734501343521 10.216864403977924 0.03676060455880121 0.4937417955775368 -1.045781555565018
