# total energy = -340868.79444299336 ev
CRYSTAL
PRIMVEC
9.28957541967169 0.00000000000000 0.00000000000000
0.00000000000000 9.28957541967169 0.00000000000000
0.00000000000000 0.00000000000000 13.59623263136149
PRIMCOORD
 96 1
Ni 8.986493505861567 1.504818284360046 11.972583788358017 2.269884541984181 -0.4300414292050981 1.0654463809837973
Ni 6.691039477431618 8.098651647046658 2.3007815997990484 -0.589128694419979 -0.7079931075590711 -0.3567374783046243
Ni 7.3823789523396925 8.545647425840638 8.31557809095716 1.2284355523562458 -1.8777879674539724 -0.1469205479453599
Ni 8.66534360211065 4.155617142800122 1.6837299286949055 0.14828528950337042 0.19415145590786564 -0.5561422121916293
Ni 4.611911786355162 9.259049641815167 13.69562069653692 -1.3037686178716064 0.16134469379048985 0.2536814929526986
Ni 1.8770608516332814 8.080564844159758 7.375276143152572 0.4290947490211126 -2.313077018211255 -1.1119838624237044
Ni 6.415380623365935 4.6843147353538805 13.290317460134672 -0.002497569610873118 -0.5581715839168323 -0.3665647488076913
Ni 1.2523554995334951 5.063617379768381 6.33370946520427 0.4412840919984529 -2.3786848860190513 0.41761245941312597
Ni 7.524165738401717 3.058462575897056 11.632012169765991 -0.7747160628079174 2.89708356091332 0.9270238432071197
Ni 3.5028386944886187 7.278112760453421 9.060515627815182 1.3187992869524834 -0.6137089548625043 -0.0019445253208805224
Ni 9.134690098801846 8.586428660906632 3.778379570949441 -0.7599324767408396 0.3653437319163966 -0.20316728625323074
Ni 1.0912649762352202 2.718844996676617 9.010019355019798 0.7478655182739765 0.8859309298215516 0.9539836596254151
Ni 5.5188437221770466 7.0928786312470535 4.556165045664721 1.3521040717522004 -0.9536141921011384 0.31078877948865186
Ni 2.9828175651584683 2.5286502343209927 3.511485431071632 0.7390018972357595 -0.3244909595660928 -0.21001670507489636
Ni 1.9595058314079308 8.302539243226263 4.687164777020906 -0.14034495161037122 0.02184563512018173 1.2229177078618099
Ni 6.4043538976203 5.036974878135289 10.833192309957331 0.7887517149653771 -1.3285620227662023 -0.5635886411673455
Ni 0.3562710006561589 2.5673970524212812 2.972761600019757 1.0736805959681317 0.13577507285150167 0.53134237953913
Ni 6.949429011226758 6.09791868096381 7.012325008980249 0.8270266992861758 0.9227781805568883 0.5378521556331899
Ni 6.021056735875872 8.855008858680678 6.414335546157524 -0.5032492208473397 -0.7456425424807287 0.001086548195959419
Ni 4.0897912130330045 9.012978084716499 4.582840989768482 1.9049362457339902 1.2882700080153748 -0.8525461837135188
Ni 6.426453796987499 1.2385419012320977 7.882388478804429 -2.6981735072745465 1.8202729039566392 1.047372554201222
Ni 1.6380586612510648 8.455733627616544 1.065334056061366 -0.6738773968222845 -0.3222271032325805 -0.9739428763561613
Ni 2.7252640931300576 3.4257352204458478 13.441072402081142 0.3957776229262216 0.7933190226210852 -0.5968615442878624
Ni 0.38688851151128745 6.682130774828363 5.164216047371269 -1.4095435448165918 0.6123629823575711 -0.3768576460932671
P 5.143164012085037 2.0699588803679956 4.17135089629244 0.2432613260606391 0.13608720477528177 0.8161244505513753
P 5.045511997731109 2.7079761937091424 9.254370482794041 1.0940601880657481 0.2792290024044997 0.2958792093666711
P 6.586420281688283 5.062028862411597 1.7555587819471354 -0.16396979011816276 -0.47085846322146 0.6355278505098086
P 2.713076170486188 7.759275596781052 12.959669894713715 2.119248492860447 1.4272376196622452 -0.5663420355427666
P 8.281256826475422 2.3729569542057116 0.29221009017435834 -0.48358722364203816 -0.09421164758741839 0.3369397268524068
P 2.0681938610826793 2.1257706480847385 11.386232305328159 -1.0826910269968577 -1.8866808990682282 0.31867718109779314
P 8.791198766728897 6.030151229982845 11.789578228238744 -0.012930077798106765 -0.2975995344918875 1.1699750942265077
P 7.740566392356698 7.635835721711132 5.359416961794563 -1.0706466942378143 -0.46598905094430065 -0.39004354865592183
Ni 5.577042910716559 8.789015716560215 9.850932137910696 -0.2176387403965284 -0.8455772085948535 -1.490220134032053
Ni 9.044841327604054 4.8272534287389535 10.034427258642268 -0.5002428299208481 -1.3559545558465422 -0.42477760970299744
Ni 1.6137013951136983 1.060795169625547 7.424630727157612 0.7563177628063877 0.5336106067480164 -1.001844744972752
Ni 3.9647349518807427 4.722987236852682 9.726023581003892 1.1834420183646908 -0.09410931768159922 0.1837811684171351
Ni 0.8914146294313965 2.5676014230753705 5.797011690500435 0.30426691920973403 1.4008984675470841 -0.9700049747543359
Ni 2.652879723281712 0.10485422199553768 2.751741240324841 1.0782854417299945 1.0414608167024775 -0.5448630397333841
Ni 8.844595244897311 9.162326584979827 6.436075938965029 0.41059797576850576 -1.2805875517694527 -1.2186373353189013
Ni 8.434265419361985 8.052956226707334 12.655699202354038 1.3420276613528048 0.2818957506033855 0.8873527498697427
Ni 7.942633231799872 6.298239080272039 3.2980379330682412 -0.23584035100621964 0.5375991590821193 0.4613592654817732
Ni 1.189855237682922 6.385886222150778 13.391703883713323 -1.1879447913310508 -1.1085550392478132 0.04718617076749938
Ni 4.4964237876443525 3.5709312806010893 1.5284611821656189 0.9608659885675452 0.6319236780983182 0.42197459303656354
Ni 6.5543805368721975 3.5202938062628792 5.5213073175163405 1.3282807440803575 -2.528982320856445 1.1221178655339126
Ni 8.536636537910338 1.7809601963353947 7.582835908403154 0.9661038399277169 1.6104960828066912 -0.37386822444763995
Ni 0.33133499398471206 4.147414447910993 12.803870713441315 -0.9328880152973805 -0.3699007551594597 0.4405654686648735
Ni 6.47652460723937 1.3751543939155895 10.671859328746704 -0.5484013919039459 -0.17146507005394343 -0.15757442811478023
Ni 8.015853663414946 6.342661828810899 0.7768258615985794 0.4372957967746663 0.6968517462302709 -0.5235897321769047
Ni 4.225809172904601 2.187815720751204 11.159175579677461 -0.4790129740077944 1.2131793975281233 -0.013423472494757527
Ni 6.8803424405693985 2.637412580597229 2.7249436027861447 -0.8453594361570924 0.8341897926935181 0.33093234431606233
Ni 4.008275190776943 7.536799560654509 6.3264896073698065 0.1021005634171919 -0.26754231009519086 0.6771259856665693
Ni 0.9162735326288005 6.553330814876193 2.6599258660601985 0.46698998140498926 0.47787140420418345 -1.1084421678190328
Ni 1.9847363176127697 4.1756919147768 11.048855371642553 0.21362653391334177 0.35953072477904535 -0.00833731622110177
Ni 5.145653618234852 6.966986308328063 13.241737626700134 1.0458967409866438 0.41839690298763427 1.3541756095692485
Ni 8.61693562581705 4.429325186076771 4.603398819654826 0.134700094619768 -0.6940196760981144 -0.1454789304028269
Ni 3.725342599340719 5.357056480739831 3.2130615440554413 0.5984191185829694 0.5132567256820129 0.6374484645712892
P 8.551899309940733 4.2180616671995805 6.823541333095359 -0.1915667258998249 0.24145512608983577 -0.3723834123719974
P 4.507980019175583 5.027192955464562 12.27724841198408 -0.45306488668346484 -1.2472686259023484 0.008157596110127887
P 3.464472748970951 1.7075168149158595 1.1407143139071565 0.10633748431667493 -0.7264207181366392 -0.16054842314143963
P 4.525816003532464 7.417642179745277 2.6364864099511967 0.18948001857412528 1.262604742038787 -0.10331978053627369
P 1.6750869079419666 4.6809611987117785 1.5023017384421924 0.19437874142732328 0.41628885550569594 -0.21236746469526005
P 0.3688054244544613 8.971676633440095 8.470493833629382 -1.6574104879700424 -0.5513980126384246 2.020226311258263
P 1.3872587103827858 1.0339390077631798 4.248170109334523 -0.8917038277495868 0.6640858646531596 0.3951947538395581
P 5.362416565622081 5.192110783739418 6.110350919435067 -0.9279813220243825 1.6777170607378782 -1.1864185844945114
Ni 1.3112142479112052 1.6071057967317262 0.7307021918431866 -0.853922238125439 0.2555185461614374 -0.17099687216827325
Ni 1.6196653023830305 4.562658458719649 3.7519349372678077 -0.6116890962189981 -0.45771524097128263 0.11600303243089699
Ni 3.2346115005716363 5.580257103730873 7.423379421380075 -0.16444544420300067 -1.1071509598114353 0.6136400492977818
Ni 2.5138519410498925 0.11653957862185103 9.382637221130542 0.16686433805713843 0.5688432046980655 0.9936943479514757
Ni 8.432193844095535 -0.03405651158893984 10.38647428946141 0.7511781275869773 0.8723722173005105 -0.9569846512352679
Ni 4.010337476468208 9.215676615272312 11.424397596021812 -1.2280275182845495 -1.078818174305013 0.40698069073089266
Ni 6.759169221844832 0.4908267813934978 0.605782487446157 1.1134133957813792 -0.047852343596588555 -1.4776608093098036
Ni 7.1450395959157476 3.8432365980246708 8.482240501451923 -0.46964310275712023 0.1906041048762395 0.1456560794106395
Ni 4.091407599115347 1.4446404163059416 6.339216325374457 0.392139511953002 -0.6397544869966466 -0.16266624081539083
Ni 8.461437426780671 1.6248117270360058 4.766077860309886 -1.5104881402524697 -0.28458461028945825 -0.46832875482107084
Ni 8.219081699756353 0.895603298882708 2.28477844862634 0.9567434817587392 -0.17420046670723546 -0.18325563493096825
Ni 4.990564160506652 3.4616487181144446 7.240293041956682 -1.454674118606643 -0.7357173129472169 1.538053451465248
Ni 0.5869729556097953 7.073082546525952 10.117989774311779 -0.6041331382486111 1.8597727618234745 -0.3197200205400107
Ni 7.433657407365728 7.259189895799791 10.467467308634506 -0.33227985948289224 -1.7522906223793948 0.12537881721884214
Ni 4.956610763202276 6.776001932081639 11.05698653680275 -0.8161974698811556 1.3144538654995943 -1.2391861060045304
Ni 6.183726486955746 4.7666110819255545 3.7857619963496565 -1.3802645933468165 0.4727374254117278 -0.7728828662539207
Ni 3.5934956587275817 4.298843813015957 5.370824560122817 -0.7551029165626801 -1.4134917308310624 -0.4012977814135024
Ni 6.660058744186721 9.344012096465189 4.292847392233474 0.15960071451618965 1.0452102564425805 -0.6602163543954243
Ni 5.576745644310612 2.2581749632090284 13.140853769139039 0.03976082483770571 0.4639146849137752 0.1837585427093158
Ni 9.209898499506698 6.418938530662126 7.843829310122895 0.21468737107768832 0.010281841541982292 -0.12637820501763397
Ni 3.4329625099404595 6.34963829977549 1.1188243589391584 -1.6036569483976704 -0.14863367398172467 -0.4826999359410783
Ni 5.077161580389388 0.7356535354172586 2.4240719127084756 -0.14882522116724048 0.08105994069680877 -0.06891764890732001
Ni 2.569672998341821 6.634837547557068 11.10617762428452 0.8541657215948129 0.16594002647065614 1.4471407863440755
Ni 1.2807072830007886 9.096621419690127 11.54543054216107 1.4388489786489287 -0.017857339896395052 0.344258114890691
P 6.49571686957339 8.526037132623253 12.084562185563605 -2.014387078868666 0.9989887635811957 0.06250917427781492
P 8.304973111924962 2.3671323905641675 9.640938503961415 0.11865563956239567 0.024010246871668327 1.4739836175685326
P 4.307501697089194 8.9982448184717 8.004809287476458 -0.17894415203980796 1.1121687247410008 -0.7351305872058114
P 2.669043584105136 6.324695790401415 5.07903528770438 -0.28491885370042547 -1.0184533000637106 -0.33680268705391025
P 1.9001547355453692 5.528356247167384 9.2867437233593 -0.591862291301058 -0.40898923652048913 -1.3235244603422949
P 2.56510252735037 2.9502761832823445 7.019258747898987 1.1659585168679467 1.3885741416537765 0.6705331629404
P 5.882790698809295 6.474555217299964 9.059536506590591 0.09086921347774672 -0.1776442022814618 -0.31172620370125664
P 8.858771136630958 8.31687305773807 1.4782909734592589 -0.66222361463344 -1.1045189215052267 -0.4632842504186279
