# total energy = -340858.4755606473 ev
CRYSTAL
PRIMVEC
9.39442931818891 0.00000000000000 0.00000000000000

0.00000000000000 9.39442931818891 0.00000000000000

0.00000000000000 0.00000000000000 13.74969691064000

PRIMCOORD
 96 1
Ni 1.036337099503624 7.838665030189517 7.518237948791965 -1.9693202684370146 -0.3559152395136451 -1.8211792178209925
Ni 6.103673600746039 1.5592874138877342 8.739513788082274 -0.6350516822043385 -0.8486270511647708 -1.033506080631775
Ni 3.3922815322194926 7.83923809039103 4.6354351190062575 -1.2602745512437135 1.1285201695158305 1.014457548640756
Ni 6.758728383223229 5.810182227705512 4.771736078771729 0.8816467006239008 0.2847944123074192 0.5767534606840776
Ni 9.205159961200977 4.264892513821952 1.6243757794641878 0.009194779125390616 1.0439966957504534 -0.26248417884599307
Ni 2.3120254746490825 4.879494882730032 5.183498622417989 -0.5714251064926288 -0.5041197963777512 -0.3290353844036656
Ni 8.480426694877508 6.671876882190622 0.5084998028764459 0.26825913365655735 0.2360907764541289 -1.119333103699924
Ni 7.419044046238899 8.79073409678211 12.741844209215204 0.8941898273962343 -1.4744273899741702 1.47146342224984
Ni 0.37952086148899644 6.12248124867111 3.1606562354255994 0.5467671987346326 0.07411847638196913 -0.013499062927699331
Ni 3.4456794696850785 8.895190758759563 0.45982444513710075 0.03655825874000801 -2.0012374288605854 0.8033242134629133
Ni 2.152329567017575 1.1407373949038793 13.581964556277773 -2.1672036805834867 0.8482105324526424 -2.0494546119957606
Ni 7.875998493153669 7.542261383993759 8.787088118680352 0.22105753627009025 -0.05948350007761369 -0.26628684042153494
Ni 6.586115134983843 0.3705632729292787 10.905640953754968 -1.0253212308281374 0.06647098713904036 -1.4610067456928904
Ni 5.365600244485707 7.847326694218945 11.723143272273882 -1.1215972171437523 0.2847764145852902 0.18351891589468394
Ni 4.607131581709227 0.1831068260277493 7.348071949445926 -1.3819018718399232 -4.9201604542465 1.1711506025918474
Ni 0.4635436997892164 3.3952219886633226 5.75593973102491 1.4093651102571987 -0.7393937333575396 0.8786711629353449
Ni 3.6854159169377656 2.0942907813626865 8.410098116507545 1.5871509803228472 -2.319485749951076 -1.8362973044093536
Ni 3.087667154611891 6.898987216150954 10.891424363542678 1.2189098722539975 -0.8855272666252297 -0.54056775479214
Ni 2.037520243694753 3.2980084318558136 8.221947421263527 -4.387883478708243 2.0932160733524277 0.19089515375409702
Ni 8.095828144225925 7.789306697423123 3.930131411842945 0.9767867735628596 -0.9909700070417774 1.8516915274772368
Ni 7.587411012329368 1.7820105492561544 6.6554169022058485 0.6107609279777739 -0.01123906324892903 -0.07013326648197599
Ni 5.273985767679868 9.042626935850501 2.7359556834264875 -0.23768923128950034 0.21988717011107295 -0.5350108295296528
Ni 3.421263347328805 7.048640478611682 2.3637108076108015 0.3375166824017994 0.853722206299491 -0.13172584248279248
Ni 4.1948288583648194 0.8695023648699881 4.707593732249249 -0.7477277071445316 -0.4314336815669344 -1.0863895588943677
P 5.086087782590289 2.8935406627419296 2.311998230803437 -0.43391351056599464 0.015507865827612004 0.14820224287126088
P 6.773130043697321 0.898617580878669 3.942217345437152 -1.2189813489218815 2.505344369722531 -0.9206477644774467
P 3.079071251589194 0.13170426539497349 2.7020493083559756 0.020342825322410128 -0.9172724202473106 -0.10234507532783019
P 6.877135773057191 6.136995642299599 7.124652686849111 0.02204643827707816 -1.0957077509715 1.2468217681729172
P 2.8982848496560956 3.0832141950132472 6.330855332370823 -0.3116040763010956 -0.26531187810277534 -1.1952120144164255
P 8.500079841460549 4.413249345007125 4.12859437238534 0.16036536059635606 0.11137736073342752 -0.9918660364934853
P 1.9163696804371546 0.6974762684764152 9.571934460699595 0.21933001205602226 0.33215156143514407 -0.9023679923316524
P 4.107761285452954 6.595265309348988 13.155697013432556 -0.4077288817508269 -0.09185857397420955 -1.3429470878432808
Ni 7.708617942164165 4.113210054582095 6.277946844683906 0.6301215918925729 0.9074708607758565 0.7389180792727016
Ni 3.634441742291695 4.402502117621371 12.024770221289991 -2.361506574467552 1.84148039127219 -0.2329180351531021
Ni 6.257864372671207 8.737599203343448 5.158391070048087 -1.5424410390099823 -0.32272101214986354 1.5255620038664566
Ni 0.08548085376374191 5.84496980026622 5.495300678061292 -0.18608102019490533 -0.03599261604452511 1.1641119505775113
Ni 1.1877283314279574 2.446281267105219 1.8641150450457356 -1.7306840998532127 -1.3200755825617458 0.15749009593109006
Ni 8.195643958014074 4.685922662202519 10.293614537424839 0.2112670325422297 0.21572198298978978 0.5054482853811876
Ni 0.5592015390660598 2.299944238269642 11.398608946284504 0.2154360763182548 0.4124026330774124 0.25191385952931455
Ni 1.0659295525325814 6.4392238348058175 12.129144212287553 -1.6110036185707286 0.8611984600718781 1.2230866293395064
Ni 3.000918992304147 8.150005819342748 8.4100849643062 0.3326423850286336 0.003721157605329075 1.3619236289457834
Ni 1.3543385391957543 6.558843106049537 1.0367410599735432 0.5099636567530379 -0.19026626192084653 -0.7646980164502831
Ni 8.933811258569735 2.195233926694797 3.9975599298160693 -0.9502601880272409 1.1933659623466222 -0.3812974270321756
Ni 6.376966950290612 3.9022581394185267 8.541174834009714 0.7993731992349652 0.5030820991418561 -0.7517458271649892
Ni 8.903307545876077 0.7234509266922133 0.4576421191565843 0.9199695074634995 0.5550286674124764 -0.5068436230668174
Ni 0.7957410619486667 7.12269676662034 9.686854638290907 0.03482045011329487 -0.7951774159860627 1.0325030932885573
Ni 0.9331815660164915 8.761301349055213 2.1761641741857556 0.7723825295787342 -0.22152856236923782 -0.6647196415824165
Ni 4.688440369317363 0.9245339936313628 12.39862436288468 -0.9066475935436128 0.5841183856895811 -0.18162426997513237
Ni 4.073856789268348 4.0932562862539985 9.208776816571183 0.3131747632223251 1.9593981242272964 1.3132138224449061
Ni 5.147818579051647 1.8085779959754853 6.453943026998126 1.6243815825395314 6.286911586487914 -2.3172797434386934
Ni 7.110042470039385 3.4431899458588324 2.3725650574456565 1.4831213182037426 1.0259040999148008 -1.0930065499902528
Ni 7.441590677118106 6.238051520786105 2.482713804277156 -0.768896885022979 -2.01019952314988 0.10286880904178411
Ni 2.5919325025848883 3.7149613978190583 0.17960646158375262 -1.67496083814898 0.7273514574810248 -0.018810190727967604
Ni 4.877522052528103 7.025304715651704 6.905813208649634 -0.22019955914516914 0.23040940979863547 -0.27837462482400444
Ni 8.003405746480247 7.678884572692212 6.330993430484958 1.5334578616747654 -1.6724725245094874 -0.1437084687659654
Ni 9.225386167985532 5.461160381695408 7.9556435272915085 0.2437619198461415 1.1214473218294492 -0.4014181090414506
P 2.6764166073751787 5.08450012399921 1.8843825873202347 -0.06391685325861896 0.3274222742802748 0.026251734607677372
P 5.604744842677816 4.069413224099238 6.243297370237334 -2.0143947921781504 0.2766774396272396 1.8512176731646117
P 8.593620176320654 0.6862442885267576 11.428748155112283 0.40665776017383515 0.10387051083342111 0.6078530103023596
P 0.9587672948496234 7.778230665003712 5.15198406910658 1.3299043957267096 -0.6651137916970415 0.3773101602496534
P 5.320441221720565 7.1864379710017605 3.8325082579077976 0.6266392897709273 -0.31444180286020684 -1.327107806818179
P 8.761075882746422 0.2468348782078242 3.357786126417261 1.8053715613647745 0.22306248251526098 -2.0242287475494365
P 5.51107298580425 9.187564194685663 0.23789983627898564 1.6040606115939922 0.5765991944944006 -0.19899258605025086
P 0.6702653033340737 8.206588468420021 13.434389341629744 0.050870561597622065 1.1975578889407827 0.7374666915381557
Ni 6.856458633655053 6.101813503698505 12.318285080404351 -0.15211957564779607 -0.8345800861534014 1.6130332474062479
Ni 7.530386825064044 8.459993810643228 1.8236494792752809 0.3364093082702336 1.5133541489463551 -1.3591859182996464
Ni 4.281962192283417 0.5169942460601867 9.847024025170878 -0.9222323353557471 -1.1817273496664293 1.7355650820945983
Ni 2.6679991985136082 5.609160224558327 7.459691863942294 -0.4608123918393677 0.3539869121426807 0.04847069390687781
Ni 1.831293726586285 1.2210597674110497 3.9615764463758105 -0.8035342725911903 0.22882406758938653 0.7929629248332472
Ni 6.6010240946527174 1.3258546288516913 1.267851542029028 -0.4885175710641199 0.45791732967975973 -0.02296509343660561
Ni 9.138177678630669 0.05914263112501645 5.489607653764292 0.4391346497556179 2.047289486023642 0.6723684163769259
Ni 4.3993643781573475 5.689971107401213 4.90899902812138 -0.18592675400522818 -1.924696459080053 1.2317823573412916
Ni 4.820413315396981 3.1797795361829793 13.540427086097601 -0.4417034389240586 -0.3845665847017506 1.6290368219233557
Ni 8.029522260581993 1.9323589995023247 9.757857736701338 1.0668098369902272 1.0603756513291094 0.7226337402903813
Ni 2.7974074653307164 3.466196903785155 3.1638606753393064 0.8017722955947612 0.6083273788356168 1.851193761905212
Ni 6.007202203871637 3.4446836601545803 4.355161708318665 -0.1066223625469454 -1.4694417638341208 -0.2990884603325881
Ni 5.439346516319776 8.15470303410925 9.011455279217047 0.8116998391211181 -0.39027057706506335 -0.08138981323240176
Ni 2.3473673185522377 9.020211826984758 11.367342405912764 -0.35671845214123077 0.5427339092055234 0.9619458518952853
Ni 5.592635423009776 4.39258160003452 11.241780218546468 1.7973350642135433 -1.8881050331092646 -0.3114505814423668
Ni 3.350880281267551 2.00478065677224 1.5247722797834835 2.5266266761400744 -1.9646601439571842 0.1300818791214663
Ni 5.634600339733698 7.192290700600822 0.9446512250333341 -0.5491860925887704 -0.8231469046157953 -0.15820563394087594
Ni 6.833132265124608 2.979170887935246 12.805079053844795 1.9318775502095245 -0.46903118020473417 -0.5793615877308861
Ni 5.029909093982933 5.150702668918278 2.4620066027005123 -0.44462189812243424 -0.3973670789005285 0.2209804031752517
Ni 8.69370842856526 4.678172257837792 12.950468184740494 0.6347691179669133 -1.1080768140598143 -0.15810099004221156
Ni 6.148250168880135 6.083701043558876 9.933991077686741 -0.09061853091952135 0.5625283182236313 -0.9384793933422289
Ni 2.0466422347712983 0.3528528943736626 6.40822503567577 1.005105932222527 0.315671818612566 -0.21157967868664204
Ni 2.951353982088026 2.425106222937832 10.63457972066744 -0.17511217988822744 0.2973177415854106 0.771390083758478
Ni 0.3020327883719329 1.3354651302639526 8.04691416797644 0.5427303096610976 -0.10336631750349294 -0.05973212575331003
P 0.5143299858446273 2.807440716071963 13.549240000442511 -0.7211774674598289 0.2155983129277319 0.23528293584085289
P 4.120810148074294 6.258766237906375 8.89829561772022 0.45961580042810524 0.5273692538239949 0.380620455569809
P 5.499705726069316 2.2470817832874372 10.734553360871743 -0.41825883474787323 0.8765230062440905 0.3658988330889182
P 7.9504963193503775 7.200257176844807 10.947041265263957 0.8340165003404475 -0.006610306227666035 -0.825339798502056
P 1.7890000048287082 5.028124152371664 10.853515961491105 0.4064163335869904 -1.4816390772312613 -1.048824199046084
P 8.829382779880882 3.5073445051397054 8.47260489284833 -0.11622106197897403 -1.4401530421723328 -0.40751470885749175
P 6.526714157046669 5.143901101936385 0.8006430752789874 0.9919794221428981 -0.7120788475926705 -1.376060839678114
P 7.281763247473136 9.233296277652318 7.45471469517571 -1.111924984161311 1.1994736179062568 1.2580101806895692
