# total energy = -340895.38568840036 ev
CRYSTAL
PRIMVEC
9.02550402742775 0.00000000000000 0.00000000000000

0.00000000000000 9.02550402742775 0.00000000000000

0.00000000000000 0.00000000000000 13.20973745607458

PRIMCOORD
 96 1
Ni 6.599177845233438 1.901881304048478 11.452763625910173 -0.3224608165099414 0.4782907511297892 0.13530558941425086
Ni 4.325391618539489 0.43968555601379655 6.002016195936481 0.21514528455071333 -0.925231270083071 -0.4152930672513299
Ni 3.1742336959355817 2.130352915266443 4.537425981659557 -0.9615527302219246 -1.0981104468757217 0.6180888290977549
Ni 3.679842436570423 4.431459342922578 5.1629863796606825 0.20285489721913455 0.16060498741098791 -0.39906863497266754
Ni 5.04150219169533 4.696628653880301 2.6260029146585766 0.00458247716435985 -0.9787225571329919 -0.2910555627257826
Ni 7.131673562632849 6.11003162410802 2.5414745558507295 0.8304871470309504 -0.32887186224260784 -0.49506848480876026
Ni 4.9621138574821195 4.764987822062527 11.32291189307794 0.15479917936248824 -0.027253179288998227 0.1565110198472724
Ni 5.576452846214568 7.843000618606676 12.444246842428013 -0.07756375461809223 0.632303172924924 -1.1468670474541345
Ni 1.8359138944572597 6.4848337335750506 0.4310616868299945 0.58539159597505 0.07534026460421218 0.5910997021034207
Ni 2.796128251961725 1.4848037332973771 0.40415034120430887 -0.3125479282716037 0.141744145950743 0.1413854770597436
Ni 0.34912906300619895 -0.016454396555719026 4.642166054387034 0.8832050462499564 0.5608959248265307 0.4837214352270573
Ni 8.81706912493075 2.1894519162246175 1.5169399432563992 -0.5677018920047707 0.5157167571867312 -0.04600037798951433
Ni 6.95046851647566 0.5047585381470194 4.81775001658015 -0.9058806334706011 0.36695272827472936 0.4458465145581547
Ni 0.9002272469411774 7.618085056010813 2.6062153994324464 -0.40189659133976585 -0.25308165458517057 0.2802623287650206
Ni 7.481926300901616 3.8727264850550216 3.8407969591402793 0.3548831987047049 -0.08082751297102854 -0.8053525567468517
Ni 7.8800232364946465 3.7797637926498293 12.643211373036243 -1.2273371770857442 0.01889478002197391 0.01277966826317154
Ni 7.677915122802465 8.58958129366154 7.056377391986291 0.7379621431173355 1.132622107499346 0.6308332732476167
Ni 6.932498737778696 0.6348332009309409 0.3788807347775072 -0.5087747786512592 0.06414131056459921 0.11814244737140299
Ni 1.6947820865795906 6.388730165737139 9.247107319593876 0.5925269214682505 0.18488520011459125 -0.48033786346680507
Ni 9.21007567620179 4.62258341810436 1.5593038544808158 -0.9271097180527065 0.39429332507121123 -0.2777840424278571
Ni 6.281877222495871 1.826103171482071 6.7828035315948085 0.11286834345665722 0.25779757200360115 1.5460747791078275
Ni 3.288514629065149 4.366268126685422 0.37055831743121326 0.8286326103207149 -0.25608418885692025 0.6630985610392257
Ni 5.963024213050178 5.6356601532221475 4.7895994692391985 -0.11843452469052507 0.008141912380844043 0.6476207771186008
Ni 5.1117386647338945 2.7376249342752734 9.492649769298751 0.8923851700873275 -0.3022848557826987 -0.3585061401692729
P 0.17157483326434023 5.579088293416735 12.592974514570558 0.2420045708354026 -1.2049739788991958 -0.6691452814539379
P 3.887997638021001 6.247138057149503 12.656870570966923 0.24743216960887707 -0.28780877365371077 -1.254161753477756
P 2.66545700335567 8.367680249440758 1.6544137143154447 -0.5034284267376814 1.2773405055870648 -1.2930959686491086
P 6.167975360539217 7.582957793987414 5.978978596677815 -0.6818629861309224 0.5182356669538429 -1.0843555591834744
P 4.761883048646276 1.1096857311862511 12.458737289287873 -0.1837940239329415 -0.5286987712686959 0.2343668517844867
P 3.7061066535509193 6.153426247902599 8.169905280275152 1.1040003299975953 0.38242228466523814 0.8137312677288502
P 4.987285988464457 0.9502592264634049 3.7142476582644615 -0.9094668081599628 -1.1043266029887626 0.22039547720605912
P 0.2013580943000581 5.770699745820835 3.440093457958256 -0.6260456220509864 -1.1298869679563703 0.032926832635007806
Ni 1.5815120099111282 1.0815983623741192 2.6835711901185064 0.4632618818211247 -0.15652901756940138 0.48181316246075084
Ni 1.8660951802245376 6.384632586868018 4.657383956878722 0.38900610853034295 0.5387391862238334 1.0053339890729331
Ni 5.881018482643035 5.655371854213694 9.339826323387909 -0.25717305104572485 0.20464747034318304 -0.39428406909983066
Ni 8.647091805895121 2.344338592376608 10.026520973525594 0.1615670942139411 -0.7800325899248244 0.21931818498148037
Ni 2.152844471526029 5.23046014588903 6.989853108791052 -0.2121116399307121 -0.2528890789583903 -0.3400535898910402
Ni 0.5605343484893114 8.88405641648719 8.757976441825457 0.08517216309296945 1.2558998192147854 -0.39681300616927145
Ni 1.4878994812095112 1.175111610530449 11.350532643327224 -0.3042036700719664 -0.4353433010339858 0.782317272193943
Ni 4.195298002196922 6.77448923720222 1.6113367882657843 0.5418587056894216 0.7291818258215441 -0.12514536105179738
Ni 5.365391432438314 7.83686327580711 8.21640377493557 -0.3349759182578167 0.2382276202914736 -0.3498456362807975
Ni 5.469256933816853 2.7782397028018138 4.672865404090628 -0.02443473600359663 1.0406018111362918 0.30341536984271616
Ni 0.5382503788244163 7.055489282381176 6.78197138011522 0.1494605407583942 1.195459354540541 -0.05148582658411779
Ni 5.088173073484383 4.456965417557245 7.268433416316238 -0.3373534173510577 0.5072711975225394 0.09575045282944801
Ni 8.360577177700671 7.139489649198179 9.424949462917068 -0.5688367769401623 -1.016406444837011 -0.7287249407897837
Ni 4.601229075363516 0.41785917940763384 10.288879742501281 0.03260775873269223 -0.5909418363693179 0.9477669892917421
Ni 8.042157392452594 7.150708350815622 4.678387207509414 -0.7290738394887701 -0.22358621622921493 0.37619250170544244
Ni 7.173217958083441 6.188869402570094 7.298538887848934 0.3604555505861599 -1.2280414022416204 -0.3839423208541904
Ni 2.3327408195862516 5.289297407227811 2.5046586220070384 -0.045334205160425155 -0.8971874765719775 0.2775127910443414
Ni 2.386361339545402 5.217255833365846 11.226295676606183 0.31660101529505474 -0.08999503840290952 1.0067720070710404
Ni 0.9436435319456372 3.3170352220748973 3.881060635556668 0.5581692699239871 0.619292619597869 -0.6554243323234196
Ni 3.8856871089670464 2.6049861257717097 2.393102488570396 0.2532786010873251 -0.19820325737973607 -0.42003392437042497
Ni 1.0069213413099871 3.336115137778254 8.10328893693792 -0.14543110788402694 0.04977784275407556 -0.062085456476835006
Ni 3.603432518715825 2.577124394562503 7.06096144552732 0.6055081642192668 0.6836851269413257 0.09861620441301726
Ni 4.028994063336914 6.842451283203297 6.043507340912782 -0.08009037769468788 0.396662082413704 -0.04009738224151804
Ni 0.9871554872937375 7.366742817360347 11.592099358468555 -0.4599109630710209 0.3743791026457875 -0.8872581332734074
P 0.1015883666898177 5.3782618013091685 8.093896997353761 -0.32535022224259447 0.20843599085133782 0.4144317476922992
P 8.56561858023088 1.6097437867891322 7.905790148198295 -0.6362955819137687 -0.2069943733088048 -0.5368643377986237
P 1.9214034694535684 3.1679790215824943 10.42957652108051 -1.073653599384938 0.2848604896586643 -0.024213106911093785
P 3.903223663466395 6.12258610033478 3.771591198671878 0.49032737057934905 0.734092118638968 0.7411901631363299
P 6.85719895693049 3.8424729952548073 10.346711562681428 0.2609050072843313 0.7150960371524395 1.1067249280176101
P 6.4208158328731075 7.805246934885227 10.236516475265631 -0.909855301847633 -0.7970548355144338 0.3575633166400294
P 2.1088180624432593 8.419468592064156 5.746777647158702 0.5682009431283763 -0.42137835421346137 0.4318856815026884
P 6.871486329947715 4.0110964886728855 1.5942433860185812 0.8486026256847385 0.6047085511361069 -0.36761401600781207
Ni 5.442478263101687 2.869325090350668 0.41658748587754724 -0.6674126150335473 0.5628242521974952 -1.052453311158239
Ni 1.559246091254467 1.3306571484829814 6.61276844933283 -0.6177126767052588 -0.6109882134972316 0.6292808411588324
Ni 7.0124376277430445 0.7053124600302519 9.369970604588309 -1.1987966464438902 0.21371215164861257 -2.4083574733828197
Ni 2.56114022677128 1.585257594119687 9.093649380743607 0.16325759454248656 -0.23776610727402275 0.30068485828543057
Ni 6.355516310586547 1.9960353629971155 2.4365891725069684 1.3533955368701143 0.09280936792325306 0.5010969503910274
Ni 3.9194154178523086 7.063179011888868 10.357081866911871 0.5869648539994406 -0.6295955441857738 -0.31102660653107084
Ni 8.069396363877729 7.296136298652986 0.01130805410820052 0.09301737016900109 0.14218200481910998 0.3136992682672275
Ni 7.350036609239763 3.7927966205947903 8.230036798904312 0.9997091866869879 -0.42948761358415705 -0.39188908650509285
Ni 3.167627026921931 8.367806606498396 12.400205089988248 -0.2761135967039696 0.25406972953005275 0.06060990037257303
Ni 0.11964569277671751 4.569820321036325 10.400594724810384 0.2563122457073263 0.9525412707519336 -0.2227503505914809
Ni 8.496356861636954 2.4259652516108368 5.776895754397161 -0.007123755528974827 0.2596235694687465 0.3466404990799385
Ni 3.690609862982015 2.8768162587677852 11.66512290717845 -0.3423758102663136 -0.861991902507451 -0.20980973127041286
Ni 1.2329650919204764 3.4531939771840943 12.698322906275521 -0.025302226210214485 -0.6285092531001305 -0.01087653770318772
Ni 2.823953881154464 8.545843700710515 7.8636509720263925 0.6362115068403946 -1.1856076585574422 -0.10128912325949008
Ni 5.663521884431353 7.758124777890323 3.618120624115846 -0.8013418929255619 0.45021044795380527 -0.24567482059813817
Ni 3.2186301506871486 8.40994668522071 3.848155452646876 0.3666915041935427 0.2113577924838231 -0.18322375325176832
Ni 3.3982015805991588 4.167039148806566 9.101892373653673 -0.6587685662053041 0.8154220251677118 -0.08496878883291172
Ni 7.39132829057508 5.999812167831107 11.255846079635681 -0.7194527714592384 -0.2856251357388307 0.7462184695888567
Ni 0.6989918994971106 8.894210108618825 0.5444779766651524 0.31495628060278014 0.7767685744615719 -0.5709139711841651
Ni 4.7847175740623085 0.3274398740626147 1.3987265979830512 -0.8402290569090627 -0.7373530487784269 0.7089750118563661
Ni 6.014848657690044 5.638205345383143 0.12764409452521086 0.1416004212840271 -0.7016157432778174 1.1771528429218694
Ni 8.113855997158115 8.907486625174947 11.180655507387291 0.9394692680593241 -0.1527374117374531 1.4497098326228324
Ni 8.947198843289785 4.973269380570742 5.499768553034813 0.053289712562075965 -0.36677069417091024 1.0438015490205121
Ni 7.773576440938643 8.842827913680694 2.6846939628306625 0.4881092798821077 -0.2357393066519811 -0.886581161811041
P 8.505499697307485 1.731750551442859 3.6247787385029633 -0.8990723522995161 -0.723749084841747 0.5039557599960611
P 1.8754817045062269 3.0838522977078537 1.8157969483308585 0.4191342953742911 0.7760913458888893 -1.1892979629248355
P 4.627114221171098 0.9722814565089067 8.206958584877121 0.46187271478308195 0.46640197011200324 -1.0037825854254132
P 8.515518006877365 1.5906819220940094 12.69535080776979 1.9954457618794732 0.09017193030040599 -2.360224365321019
P 6.407259525689359 7.741355391240921 1.2575641033913842 -0.5664811322237923 -0.6442351484758195 1.3995272982311704
P 1.9101847678361263 3.3464132379757614 5.876378470976481 -1.176702385648012 0.240097840730993 -0.01258452153322994
P 6.77237726923884 4.035158482648831 6.048369379980615 0.8007808782157693 -0.5570868354930857 -0.475665140581484
P 2.2097412494796536 8.432880491182031 10.07905662788988 0.33246575024145325 0.9336786295194758 0.9011994259448479
