# total energy = -381166.68311756913 ev
CRYSTAL
PRIMVEC
9.27464097167116 0.00000000000000 0.00000000000000

0.00000000000000 9.27464097167116 0.00000000000000

0.00000000000000 0.00000000000000 13.57437455711326

PRIMCOORD
 96 1
Ni 7.225399599077291 1.0159719713159554 0.008362943561301014 0.7898722017230655 0.7813711062305898 0.31696559772332505
Ni 6.21383308211602 0.5391710377046878 8.320901614796215 0.8396266474383733 2.040223837426112 0.8101679758576241
Ni 0.8210282974610302 4.0422965216055 3.043469651173897 0.8006716063314145 0.08916971428813676 0.5407040232596881
Ni 1.1329066418503717 8.850270284695712 8.266237809699229 -0.36423558645388243 -0.36457471496085603 -1.0085851490203792
Ni 7.622131631658208 1.018494673599058 4.199341230977177 0.17510035281368552 2.001855264950243 1.3913177658371845
Ni 5.269331492394148 4.412224842428447 3.5442149248009245 -0.658610443360885 -0.32424284811102866 -0.791716711130972
Ni 4.338843884840543 2.960808488054843 12.277465212267352 -0.4290019321969902 1.5766611365351169 0.5703593842322758
Ni 1.18529908742849 1.1427563103233689 6.450461628806996 0.0693868752342547 1.008537069391263 -1.1062222773495787
Ni 5.285116930945034 7.226577478452122 2.6130938592843203 0.6814778348773619 0.7932452319603565 -1.730128227349743
Ni 5.306652646758876 8.531083523397971 10.062941619359945 0.10542268581188942 1.7925708100556803 0.09647910346535643
Ni 0.6468690935194638 4.6923282676195885 11.66246471181763 -2.701299197387722 0.987434740195009 3.4973361331606028
Ni 5.17489710031123 2.888336445260115 7.7018147076334955 -0.36373319289616707 0.39652735660805255 0.5109532743598169
Ni 1.7817326845673895 3.903974529509189 5.63240121638491 -1.4939166090470335 -0.2566932831958289 -0.08467002664557031
Ni 3.7349813004635353 7.162656654425853 10.855182359407287 1.146454128286432 -3.0695572747374364 0.3224911555272446
Ni 2.99087687335565 0.5245894475227232 2.5331687151855427 -0.06414002501301858 -0.5739784690421018 0.7269794188535867
Ni 5.930400060896813 1.2614531625996586 6.130852871355279 1.1954642396365478 1.8031881805602108 -1.3474570598984923
Ni 2.2523743292587723 0.9823606732499081 0.37505719715587416 0.7246538560442035 -1.2430358187679238 -0.7894667387545307
Ni 2.5038562131055917 6.305661300149113 12.898234539261521 0.6407916700119093 -1.0533457410655214 0.5839623197276911
Ni 6.6932485369537815 8.182950608329772 4.304976606689887 -0.9459039679410741 2.0225207637193945 -2.1165971712805294
Ni 8.971350719643905 2.222593457821113 11.215976086558808 1.0965022218483376 1.4263709007865757 0.7021489900734682
Ni 7.546005380409279 3.583192530003014 3.6509094644869076 1.303788415365948 -0.6639169431754631 0.4677741678691815
Ni 2.6627122598151005 2.5123239601073304 7.85415995653882 -1.275406007568513 -1.7369637622143377 1.4935124316300794
Ni 5.895054405011131 8.134175272642867 12.452968311653116 0.31596441015232035 -0.5271388829807437 -0.11988899774886451
Ni 7.462468691203736 5.988143974185777 4.187056041844096 -0.6271365411223199 -1.1149935957843053 -0.9845949567533687
P 7.3344879235399985 7.783547479213805 10.28465190640985 -0.2054475976469752 0.31208178726846253 -0.2830751156234673
Ni 0.7149254798546869 5.958474398437079 4.446259064112544 1.0578081477122492 0.504965432207498 -0.3070894762601937
P 1.2604515013990147 8.278599978350508 1.4905748150702545 -0.3513528169539433 0.17323887412491454 -1.1493108810089365
Ni 1.152856394096527 3.0003184576357924 12.995508826341078 0.6430951213341054 -0.15508148648959744 1.9313805559684478
P 5.4582188258414766 0.2606118401978726 2.363217415750755 0.14568359021446523 0.22766887093902083 1.4299611892409956
P 1.8858869001528507 6.482500875266477 8.41140170427438 0.8787902050117123 0.07859245299292271 -1.6673902248905739
P 3.0581829412544645 5.368152789550255 4.099746428782795 -1.2687180540253764 -0.3468433591193639 0.12305325440945904
Ni 5.556965925871611 8.441509043066324 6.503916948214686 -0.33331472850530985 -2.086889359803451 -1.0149964518633616
Ni 6.549482330739157 2.731084911399786 1.7758813137202953 -0.782049363244537 0.004900008404778658 -1.2450659618240751
Ni 1.1021890316972953 7.976691872763871 12.688496885951533 -1.3577684691268295 0.1267705553600462 0.21960871963870562
Ni 4.980593376667827 0.7431482116469005 0.3692188108058253 -1.9206698544191634 -0.564847196164795 1.5712525639250359
Ni 9.125485974213342 6.8709042804568545 9.019180969438722 -0.9233258255302421 -0.24391284360170898 1.333631981089942
Ni 2.417935941228146 7.845372234431319 5.9993987507319 -0.23096065431641513 0.23093468617448618 -0.15660512222297546
Ni 3.174959942896187 8.68822376156934 12.298450941884914 1.6544745452701701 1.312955940797829 1.0581807005603194
Ni 9.477384393424702 0.6777341704604127 12.969065898108157 -1.1785679781018412 0.6684294863338359 0.2442643134038567
Ni 2.303245733754432 7.517337465861224 3.299794752418644 -0.06001083333599343 -0.45406581714415345 2.256168220839353
Ni 3.5706439410727264 1.5729976199221187 6.007448211435962 0.1994263311535598 -0.424276758807179 -1.3541234161750744
Ni 0.22035711696496274 8.842312642935042 10.606134141292403 1.8111601430220938 -0.45661120927382653 -0.2695369719277165
Ni 0.20285308748371245 6.679420047600449 6.800666498618008 0.8526076330790736 1.3633251372790005 -0.22847362622850328
Ni 3.9238408099886244 7.684086231846176 8.002636752788694 -0.6580998222730537 -1.1592741628692358 0.8259329520013646
Ni 2.980767514941745 3.1771023849086752 3.7599662551710753 0.3853487142834137 -0.11408318970036482 0.4545250161687591
Ni 8.112713753955 0.11062142257813638 2.2419301563139116 -0.1378610088462529 0.6287596785480397 -0.36731242560699323
Ni 8.52189235441799 6.52655541881331 11.389891367448737 0.01668208864137127 0.11772335755611338 0.01814324656793004
Ni 1.6644548523253453 6.295394272842515 10.483665292624428 -0.08162018407565298 0.9894841665248701 0.3187797681139284
Ni 3.1571619073032666 4.602401350939568 8.017011518482008 0.5345282334662794 3.058258047674533 0.1725115090405868
Ni 4.064212497689956 1.76435200780807 10.02810977857163 0.5991115166643036 0.39911671460178355 -1.4635202561433633
Ni 7.3777448479826155 4.26312571778447 11.458034007942903 0.2807660078743165 1.896629525640508 -0.28770207287251737
Ni 6.555594318991234 3.7903694550028386 5.609474304459063 -2.234164462874752 -0.20700465772144994 1.3787155036921417
Ni 7.769672616656739 8.102344705600187 0.4125833210811043 1.0059747079807255 -0.7467051794172882 -0.5372224924689909
Ni 3.834757885616553 2.5077051890154727 1.7956993660678477 3.3720097664462507 -0.3340356658317344 -0.887405200374233
Ni 8.905788284205471 2.3770904233796712 1.96916668180971 -0.18562953447978353 -0.8362137651020823 -0.9315654398312151
Ni 7.6302747662338115 3.033605143275705 7.64672983384661 0.2744272101404822 -0.5993783971724451 -0.4677744249794976
P 1.8122184287017984 2.534824238558829 1.6538335337422223 -1.7982907432585933 1.673992817808756 0.8099383763453213
Ni 6.563737453566838 2.300797228597302 10.158614175982548 0.014823181055761567 1.2956195064019105 -1.4693911131018438
P 8.743073986945333 2.753446070240084 5.382496948929105 0.06943109820862882 -1.0623042358103898 0.5181122540021013
Ni 5.433177295825383 1.0451778150273192 11.844008384721722 -0.9783073239724442 -1.3005128299384698 -2.0545996465318095
P 1.4522325227593147 1.3907045560456948 9.647809627001646 1.460668388516865 0.8239025518348971 0.4946522232069481
P 5.201914128806372 5.544575005834018 7.24243062188046 0.14095867393497014 -0.12034176901556695 0.7696520180214487
P 6.604128514018725 2.679879619837245 12.383738683263434 -0.12067112733052766 -0.187433934678374 1.2990123341335433
Ni 8.900223499757448 4.144530886556393 9.730953071439528 -0.6881907281211632 -0.11644140551989625 -1.3858351454560587
Ni 8.973567358782367 7.309093957175528 2.6261933618749618 -0.10720548874392503 -0.31882116287482515 0.16123285080297392
Ni 5.766081250787496 6.297351222040069 9.662551668468529 -0.3336564281154447 -0.699871249782885 0.02250049509536125
Ni 2.4123062342948987 1.6571649846984378 11.647491731796155 -0.6622048455803629 -1.047910428982563 -0.5747662550507198
Ni 3.2311920897434403 4.351457396256057 0.7056990672398681 -0.4246801648931847 0.85142106897014 -1.1800959847105934
Ni 8.82992172289745 1.613574173188939 9.012461492217735 -1.3200388157865395 -0.4653257063286889 -0.9567370540008361
Ni 8.589393189772485 4.841176976963406 5.9138114384572615 0.00010027302329014989 -1.2426136436288406 0.11553457743491069
Ni 7.087476416533089 6.0366874438540155 13.298258141843442 -0.05225175821586485 -1.1304114730012724 0.2797046564893376
Ni 3.3882952293518223 7.754740445054549 1.3106263803745968 0.10491874959227737 0.8545876396235798 -2.1303605436132083
Ni 0.7856520352608856 1.5814282683608707 3.7995624789109694 -0.3741045088281622 0.7894070891611888 0.6981103012277202
Ni 7.590597853119421 0.4777283976859377 11.114100650204811 -1.7557582692130214 -1.0175559850604219 0.5905093768175894
Ni 1.986804266117713 3.907554540837416 10.385007229145463 2.942116175672927 -2.3211096587077447 -2.617503860037621
Ni 8.368499071108287 0.3153118163937704 6.973346397360475 -1.2723602787636539 -0.3541118677563192 -0.32969178704074187
Ni 1.5367152253210214 5.978665291342648 1.5456736008182606 0.7367709510227118 -0.3942059075637276 1.218922727769804
Ni 4.49207949925755 4.248935517442016 9.812589386756073 0.6278261109901768 -0.19746637921371152 1.4709977954673312
Ni 4.923396667182917 6.3703055461536255 4.575962132562945 -0.45564267471297015 0.5151914808108805 2.91634523735641
Ni 4.280552767747523 8.740152475110122 4.419218849015536 0.3395023453732605 0.927172452969842 -0.3426174939634744
Ni 4.93537022838691 6.384560668981306 13.805952903781973 -1.4809459078189784 -0.6866262118475206 -0.6163039692831902
Ni 0.8332680408544525 4.34855443370234 7.711900879445534 -0.5524642491194098 0.43953702740035916 0.8584661487423795
Ni 7.075836742395978 7.686924271914665 8.116579424218225 0.455212529154087 -0.2979638598098417 -0.5790312009746608
Ni 0.22417641402445454 8.560140972857386 5.006229411155785 -0.38805300058845427 -0.3943843421231208 -0.5329392917126047
Ni 0.05517854765842769 6.075214301515814 -0.06851919090848356 -0.1109587851387702 -0.46550208400555315 0.2578721339952785
Ni 2.7899696055005956 8.978557115504092 9.8889317371344 0.28425576619512977 0.014012512229008126 -0.07621495389968165
Ni 8.372848877618491 3.820001932188551 13.883326594211333 -0.8115003215158024 -0.7851783957918219 -3.1587938377077664
Ni 5.381128011954892 2.183463748510778 3.774626679799387 -0.3381370895946177 -2.2427501476612344 0.7769089566941781
P 7.634281411036386 7.3453021546506525 5.796706114533105 1.5673606850697974 0.041391675572909355 2.943606644175524
Ni 8.237698812657552 5.005254646413308 2.074124081283836 -0.28285374364128063 2.1927365347472687 -0.266984637819508
P 6.0647988799572685 5.317754391732678 1.7733159480897576 0.419938022222509 -0.12383409843954159 -0.6451962268375082
Ni 4.0077670341055285 4.309406175110511 5.851084260695092 1.4901995652067626 -0.5100248490082765 -0.6139444679120781
P 4.1020159333735124 0.6197120179490463 7.9899314224297875 -0.10327632889284794 0.27067802751069514 0.0823992283335226
P 2.243387202375218 0.31821385148341347 4.525940285159684 0.8104988768344815 -1.20903349368055 1.9792025605477332
P 3.868424831527081 5.070835631133235 11.879736155806166 0.23408994397401622 -0.30324182037932934 -0.500310707044306
Ni 7.318795231396578 5.329458988355015 8.21126144920908 -0.051245685548853684 -0.8505201544224256 -0.9021257944138592
