# total energy = -340872.66490030073 ev
CRYSTAL
PRIMVEC
9.22638128565099 0.00000000000000 0.00000000000000

0.00000000000000 9.22638128565099 0.00000000000000

0.00000000000000 0.00000000000000 13.50374162846355

PRIMCOORD
 96 1
Ni 9.095459021151104 0.8744229135050151 4.598590860531424 -1.5635611088180492 0.9236649540372157 -1.3915180547734487
Ni 3.754620541385576 7.239009598742289 1.1205716968745145 -1.1508075201591215 -0.07024253836633064 0.9540949883922988
Ni 7.657287598279607 6.997481387164303 2.379480988138854 -0.1385631771196001 0.29306745094948883 -0.07892078286661891
Ni 8.955125760470336 8.272502708220019 8.905271931360376 -1.5979303303265384 1.2122075205331575 -0.5177371300508695
Ni 6.848023235305805 2.3489075281837013 5.806190399705172 0.24493100045357816 -0.14470991344728626 1.183810200337387
Ni 2.9475705099412517 3.2060660368638745 8.223846463412254 0.8595020462060616 0.6764019630163512 0.16537669776801842
Ni 8.077207893701292 2.5558183568508226 8.516134534751009 -1.1745118057545965 -0.6762183862506355 1.5419476443133315
Ni 0.2703163667374943 5.247855008290131 1.7018632477832971 0.197481291612047 0.7351105326011533 0.07948334023830828
Ni 4.931989841991241 0.30839917849199394 5.448003822049103 -1.1474625149462883 -0.5161998674707368 0.7645157252361479
Ni 3.665318396077939 3.1120584370560933 10.655033015402594 3.3865298144392963 1.5333221074278496 0.2163033094145565
Ni 1.5708652397755598 8.563871831974039 0.3787881646234634 -0.00944031947729342 -0.6183353978909222 0.7348374814454248
Ni 5.278911007991082 1.3484633167834545 10.32970065917704 -0.14623406340129652 -0.906531893901355 0.3951975820530355
Ni 7.3887906739488365 4.5808060877971535 2.543929241813792 -0.6959251206509434 -0.9277864324047571 0.463142582634441
Ni 5.095398282485462 5.15091341920579 1.3685639112423056 0.9285089123930783 1.2082886450947257 0.16046846183312366
Ni 2.039270169311474 4.016566734941638 12.412734323254266 1.4691198617183279 0.2572360430731764 -0.8813039725725015
Ni 3.53358412283665 8.381023405927262 12.539371943425204 0.6922510142334658 -2.04139883157082 -0.9154070849037976
Ni 2.434223876738275 2.9942006413995426 3.571672470419973 -0.8164226985180842 0.8602882895527829 -0.27684301867082645
Ni 2.9566769483562365 1.2841462122334455 11.984921781206262 -1.7309957175563606 1.8379986033711766 -0.4781272289687314
Ni 6.579867687085827 7.320985997239896 4.560402868029273 0.3638283237131347 1.6517280928732843 0.21397234728853473
Ni 2.799929955213201 6.686330901746931 10.478201112649039 0.9379070657785267 -1.2780907534895278 0.9802749892217762
Ni 3.4079392613014297 6.117422999916762 8.093642846840716 0.444223377132435 0.4453227808442008 -0.5303234513563124
Ni 4.680395648335497 6.446684871969003 5.4336088218312115 -0.9378800691953331 2.357706226884856 1.8716530582008282
Ni 8.589152116935598 0.14681110304263345 1.5475824663812194 1.6525426183547798 0.8394664677114252 1.5540356858261173
Ni 1.5859872788456308 6.519554832051627 12.69347650094306 0.33950465936610563 0.4999569232493131 -0.24860536398137184
P 5.206640762697692 7.498464669327685 11.446244117944177 0.12245264471098267 -0.5251761028274181 -0.6150850092744246
P 3.1748070567727207 5.290720776148307 0.04962132429936282 1.1276575644052194 0.9474466298378456 0.604472523865901
P 0.5199914730676898 7.541893246449604 2.007385640563242 1.1324526718010173 -0.2264437402826681 0.05951512464649749
P -0.18075957330396727 2.9656542174320015 6.791544864370152 -0.47256721838245064 -0.9142194923535998 -1.4083232992562456
P 6.872436240418316 0.39987782716548187 4.904748028349819 2.6004790433448504 -0.956062910751947 -0.18717888124477441
P 3.202735313188282 1.1273161816580544 4.531531675437409 -1.1279884653820766 -0.11339799070788212 -1.1312974751506517
P 7.646944824760664 4.890092844177214 9.1808971579398 0.5822533074563843 0.9393132020974339 -0.6076990012229986
P 0.31030627152175827 7.871505720994012 6.474814263498492 -0.9190161424112946 -0.542021456519531 1.0110186981625362
Ni 6.2389528953597 9.205289865013292 2.2717611403347706 -0.17518468499737572 -0.5092949128207874 0.5277608328354588
Ni 1.77093009346404 8.636262020225276 10.787856001645876 0.7273637987761989 0.9901289991977205 0.2418449053290867
Ni 1.151433942566636 1.6491049538171718 8.102838781155018 -0.47232450624402533 -0.8157233584582144 2.2174515209954455
Ni 3.978240346718895 8.270519036224858 9.404978282341759 1.8618399287651481 1.3301545640643029 -0.16531421996119916
Ni 0.14528229164915527 0.32811964603828425 12.47389231482222 0.10486424220525811 0.8730291341582191 -0.25550929019005675
Ni 6.0597119844297005 3.548161805405724 9.625534929059299 -0.012954760388455108 -1.520780523317413 -0.07896217762751562
Ni 8.596007318295612 3.3526086522085583 10.841533243196736 -1.9190649718258885 1.3517387179929816 -0.6970888019417415
Ni 8.606857542790062 2.7171231823920374 1.2403347402845548 0.3956261849500219 0.29941010533806495 -1.0637427680291294
Ni 0.9608169034039354 6.586224663851708 8.23336624371274 1.4068904234644608 -0.4113024580346981 -0.23215261774198728
Ni 7.5602168398560465 1.9141050796076404 12.250242985068505 -0.776524833881882 -0.05086901893572529 0.8040736900344282
Ni 2.5969403386295333 5.131621055755199 2.06726116512037 0.2679007218758741 0.046442093512623246 1.4635752777510147
Ni 2.3225477566015216 0.10229842610940747 2.5218643507606653 -0.16590428813671426 0.616417612042919 0.770618495699776
Ni 7.537409225102407 5.716841199852533 11.250480603251711 0.05918833743469806 0.4407040511252668 0.18510631498646185
Ni 8.205223935249329 6.0514266939568975 6.988496736983439 -0.5113098863682872 0.47557798018431646 -0.5555387742796756
Ni 0.5521500253426943 4.444117247758654 8.43956848629043 -1.3135226119345764 -2.547679897265948 2.8257855846992816
Ni 6.592839979296028 7.548231770452738 9.705287769646054 -0.4101102374988098 -0.008286408378508308 -1.5071295081928817
Ni 6.159273865823927 2.232655122886024 0.8653450768722861 2.9169898129189438 -0.46354727427202747 0.16364428845794396
Ni 6.021810009750108 4.564632241250579 5.69974010197799 0.9754809102672427 0.7568826341709224 0.22870759661618031
Ni 1.9927046225227927 2.882653690602009 1.0269838974191974 -1.2419461852481708 -0.7234423522346057 0.8235580240112849
Ni 9.172480852851502 4.731712781531187 12.895465977785914 -1.970763685751761 0.2084573310075765 0.48822266553152044
Ni 4.199322897174686 3.175849637867851 0.32061398479148573 -0.6254498974485164 0.6106873944273611 -1.7743393746493183
Ni 1.8271003032618387 2.4299428357812816 6.278997235794064 1.0535938525205855 0.8562472867141899 -4.7596513689834286
Ni 5.657718548015428 1.5244196359447257 8.149710643805276 0.850499071376503 0.2320973390240196 -1.7309589507811545
Ni 0.9591746075195715 4.692620603654499 6.386999410868156 1.3295986915608329 1.8119235035506795 -2.7442451048216285
P 5.122265505043147 7.4023257754227805 2.8982268997212115 -0.3578949889478352 -1.0104371146274533 -0.48901353686393206
P 0.5494328560283954 2.541582050392544 12.578870082082295 -0.9518977236306639 -1.0703325054315052 0.6919877332697502
P 7.786936709330638 5.581388694917993 4.621682647831347 0.5947609530050918 -0.4397242037105008 -0.035605665018751585
P 1.9628295996375642 5.3363360056555855 4.487144477290854 0.7391199108708625 -0.2902389803617582 -0.8658534423453862
P 3.266028289405907 0.7517065054175313 0.4659866949780947 0.5095175703545548 0.2692924600170782 2.2767858970897046
P 7.397869433219703 5.669869692283448 0.5032511267048242 -0.9187261219747016 -1.9853618952809098 0.4372618582129372
P 4.354842781595135 8.082171686879876 7.102684278129878 -0.5373998985871197 -0.6384499092526101 0.5058835731463933
P 5.7229675170840935 3.213419462818021 11.992092524809228 -0.025671179513859013 -0.9571196341512356 -0.42816503811799167
Ni 4.570463314278209 4.923141742254696 3.81718371083661 -0.8861595008925901 1.2127520801827176 -1.4078389034206593
Ni 7.369913497660023 1.860342955348151 3.4069944798488514 -0.7996146258218099 1.5186642483053587 -1.5540968780813558
Ni 5.261122544704263 0.9405557699091974 12.542950856759726 0.2286525750085288 -0.6123221018173067 1.5681325302388154
Ni 8.372498229538767 7.350021419420197 13.283495285992405 1.2944884781212609 0.778826228321549 -0.1668118875526482
Ni 0.7404355579324803 5.372134365382173 10.620409174024767 -0.3048253628163653 1.0732494219679838 0.3703170167612719
Ni 3.0904502518809216 7.328487045296009 3.703346772182339 -0.24428256823630187 -0.48006712630392157 -0.006386877362950291
Ni 5.9427030158594505 6.102577752287877 7.858353514347041 -0.3595543789281292 -0.5573660572964013 -0.5596083163633588
Ni 0.41982065050285733 7.215445420716076 4.24933080685357 -0.34181505266683715 -0.604216956211669 -0.1373231340649119
Ni 3.4213544198175265 4.470283265332004 6.071741340463599 -0.2891058951985795 0.16060704429351694 -0.15905589775631315
Ni 6.519490247382016 8.509048673856674 7.064928080275976 0.011023347693697144 -0.6968712866142966 0.2726040408888144
Ni 1.6055564337374066 0.012715798808036489 5.402226208229663 2.5795950008069894 -0.7449984811388266 1.1212542319820367
Ni 5.275598737078236 5.543053080313877 10.109454941511766 -1.637991202903166 1.5611851523867049 -0.22645942401195193
Ni 2.2597253258339114 6.894496518280757 6.042978096533797 0.5230963374802539 0.13175875260325698 0.4259127517487052
Ni 5.925643436701085 7.374508235583693 0.22915747943329262 0.0666738471784658 0.04400597326730486 -0.575480250398609
Ni 1.4979583741674447 2.948936014384431 10.45610946508993 -0.2816273274333472 -0.2968441443831017 -1.4046921302615614
Ni 4.389377127073644 1.6271646189125781 2.14262501608807 -2.276010709486577 -1.255953041050224 1.67768440772773
Ni 4.469960341983954 2.8363280297290214 4.671768059113762 2.063626532620768 -1.6950974609978549 0.5783462590924944
Ni 2.013731545671476 8.651596266066923 8.243926759832084 0.13823304747369095 0.1358861445080692 -0.8988391532427876
Ni 8.54771643819021 0.5720337998392837 6.919776803242315 -0.08349966048655297 0.3599981513337671 0.03152686696368764
Ni 9.488041548565088 1.105744902008374 10.077734642351972 -2.135116313130639 -0.8104698233687592 1.1408673782272738
Ni 3.408243731886733 1.1009656364572473 7.263568380680491 1.181772858192384 -1.3729045534373194 -0.0303690992101606
Ni 7.383051864734935 8.749543530720903 11.45726318521775 -1.7289784300160158 0.9293167530063543 0.9418015157369265
Ni 5.091144920672587 5.304707970309519 12.363053950114118 -0.004174443092663779 -0.005385946902261692 1.146940323894231
Ni 8.832470246499913 3.5934910170904453 4.688067384447007 -0.5136117950285863 -0.08952144120060067 -0.6134009367037823
P 5.44814129513156 3.4014162096708374 2.5862368135989113 0.7297042739839175 -0.24431316436392117 0.4589786810647386
P 7.057674299240656 0.01572452177371687 0.24506745147260342 -1.0580637153664811 0.9792347208827201 -2.062578550972228
P 9.14608417574383 7.737852360427174 10.947240817223404 -0.20083812389942185 -2.5969885136930886 1.308952476065391
P 2.64603391391437 4.793105123186008 9.60221340486319 -0.4420032295526645 -0.16944315452790817 0.5388448585637623
P 0.4482812691236309 2.3692055672039314 3.015034733177534 -0.29335849982734635 -0.7363863139897834 -0.39656798003800087
P 5.0223714739195 3.4932279307118845 7.289941069196593 0.29005000427940375 -0.5232629449651053 0.3183871606612001
P 2.849134247074512 1.165900908559236 9.821986731802177 0.14483281217839575 -0.2413003456795264 -1.8332194368149783
P 7.277575872880724 0.5211272406146854 9.420628993064495 -0.2300214303315974 0.3599372161888446 -0.8225696919560866
