# total energy = -340893.20869047864 ev
CRYSTAL
PRIMVEC
9.04842339432028 0.00000000000000 0.00000000000000
0.00000000000000 9.04842339432028 0.00000000000000
0.00000000000000 0.00000000000000 13.24328226624465
PRIMCOORD
 96 1
Ni 6.314713660336478 2.2116337225407845 11.4920432249972 0.801756097644845 -0.24179631147933842 0.8539538626943229
Ni 4.6116918121114985 0.3285663472719353 6.0344604644917235 0.18416966210480537 0.4997337514949136 -0.7644856433291608
Ni 2.6826222527291184 1.5019477854061616 4.787618496864163 0.33894621575947437 -0.8695429753818315 0.2261400929993202
Ni 3.2722537093723325 4.19135635561859 4.634817772409956 0.8077560239820218 -0.21533760306717756 -0.09718564261407778
Ni 5.221148364229288 4.323101399027914 2.6891280690897847 -1.2785715497806882 1.1981680117209559 0.5211656961164444
Ni 7.250175855929168 6.209869579430995 2.424302434990421 -0.4044484112273422 0.16974397359777862 0.30850461144016544
Ni 4.808151179041666 4.758647255106747 11.221841017766392 1.2794590945919644 -0.3963512360415045 0.1721610676797035
Ni 5.564481738344907 8.021372974732513 12.360829398895204 -1.3683583288275338 0.409380815531953 -0.08758951428521043
Ni 1.956703444174418 6.379265112237723 0.35433354233489767 -1.4182423581421704 -0.007352583710329272 -0.9431354040570016
Ni 2.70031192030228 1.5355626780068237 0.5011315427645344 -0.20401883562024864 0.3054835652256545 -0.05834321582558339
Ni 0.5913117488520817 -0.22667295720819505 4.760390886278793 0.8995870871524054 0.9070083193171411 -0.20905768359573676
Ni 8.66029119315118 2.3997594916014475 1.4257455836495707 0.21009383816973498 1.346348657325662 0.0663786845355502
Ni 7.247262263623001 0.4665900916168178 5.1067419095686555 -0.0658130418400673 1.6041171758635404 -0.9014606500260346
Ni 0.5911452578631577 7.373008202377079 2.467620856749885 0.0921809903106348 -0.9006314692565199 0.8043403134322534
Ni 7.5514069163783315 3.995530378320198 3.7279178298410214 1.1520213379615643 0.21596495223853127 0.509521941229929
Ni 7.623269494314929 3.916582884931025 12.60520740599619 0.5456703661260279 -0.231586203715556 -0.7744093302007761
Ni 7.964820329038264 8.64069230825938 7.232659918083581 0.37949868326054 -0.3126579714869067 0.39297306359789097
Ni 6.871626018286827 0.974053721014446 0.42306717549052325 -0.5132173878036451 -0.8875111298244779 -0.32730194665232665
Ni 1.762524279918642 6.538960735254974 9.170575216094871 0.6068929603819354 -0.9042842355177587 -0.7151469449950328
Ni -0.04272032097860179 5.101944435529122 1.118155291297381 0.07161705011635408 -1.2649722138296988 0.6747716265017799
Ni 6.279506245233066 1.9950506621667747 6.936169326607092 0.373788263139324 -0.33958384934347324 0.6666425696367422
Ni 3.2850210346642665 4.351622029304438 0.3366348263384253 0.7247695556864614 -0.5098081050117801 0.09897487330401664
Ni 6.145254788566573 5.868734972179969 4.854841948169169 -1.2773854998923873 -0.6677864534331983 -1.004145882302103
Ni 5.2145701604821335 2.7936735520260028 9.584123450262139 0.04938214997755366 0.4311647441762638 -1.5733315579412517
P 0.09556492279997093 5.618826568751253 12.25306901115656 1.0128989459043847 0.6780376988475613 -0.09233294250746679
P 3.9734431770178515 6.2123940895347864 12.580999254269726 -0.3701334399955561 0.5294040248658367 -0.4361493418750489
P 2.1146617699159407 8.283243393778479 1.3304331118599788 1.5231135423259639 1.0359368015604546 0.6613463542348095
P 6.3781250109005265 7.786195404454234 5.861184967769205 -0.16087315347071002 -1.1555175240402809 0.5633796104803329
P 4.558396598809237 1.1184394117893488 12.739362044533253 1.0750044569858774 -0.07662607329517125 -0.23479468335052464
P 4.081951869364322 6.081698663229547 8.178468080890159 -0.34242851788111994 0.7096980060653196 0.5007151415715764
P 4.738804062785549 1.0387408992653566 3.7801227081342974 0.15193985553682218 -0.21274773085281426 -0.33703022968368407
P 0.33307427176551535 5.331095755882221 3.331043125309081 -0.27613133731578254 0.9328335079103612 1.1298108633027963
Ni 1.458651079862644 0.964091406948947 2.6079727604127085 0.2811403604945997 -0.10945160446562441 0.12230686316173774
Ni 1.9303182417993088 6.336457021553003 4.727745984657078 0.4299974633410401 0.5483198879337331 -0.24233701447415684
Ni 6.138079388880887 5.792692022673654 9.158868366014996 -0.7576207978885274 0.6916658311539572 -0.008667702977327007
Ni 8.56904689248225 2.1412641344505157 10.253690488120094 0.12615503326323435 0.9511454188456715 -0.4508830485407977
Ni 2.661955653886612 5.034361761818665 6.856047347872142 -1.242028717659648 0.21564922077032536 0.7417378081096839
Ni 0.6190759309397994 -0.18414536764611927 9.268404054407275 0.31390855606455614 1.3374945493691417 -0.4389901537579536
Ni 1.4888004263351624 1.0685735509219874 11.520980082746034 0.31486654910245127 0.14560979955373632 -0.9641796263218104
Ni 4.023544296891301 6.739546183214994 1.5171636140460738 0.7404969937240473 0.9738713996882776 0.694218679482798
Ni 5.545760550514283 7.907371889436217 7.9290175276809824 0.2416803547267644 0.47690544074648833 1.0551030900762604
Ni 5.362584269004779 2.85766400168196 4.907046826462445 -1.194848974650052 -0.4504004524774243 -1.30308033355533
Ni 0.9794737265777829 7.288387347571859 6.831215759779544 -0.7444636916812791 -0.723829046150063 0.46405866669080725
Ni 5.136554654694002 4.3781158127592805 7.364178750910127 0.7934270089538593 -0.03717995148440694 -0.627476440960242
Ni 8.269390257689215 7.084969743115471 9.348803819737874 -0.9578125464532021 -0.13301396516659672 -0.6935764179131086
Ni 4.748449682035161 0.6581786922786315 10.586428158538437 -0.7605395141972192 -1.6914374956477642 -0.01982629069730779
Ni 8.369040543614139 6.971412030561417 4.786744419172313 -0.9103145008722388 -0.11514582663692427 -0.6464288136930286
Ni 7.370031271107734 5.972665162331035 6.952802138337519 0.214940624739075 -0.18340835845874867 0.6063738546536718
Ni 2.407459699839177 5.153981917991142 2.4884657095316203 -0.8209815215333602 -0.22625990640663615 0.23480213954969237
Ni 2.4094594013909254 5.317631701995334 11.279753641484296 -1.4615608184241473 0.013237581736196557 0.25218973889852053
Ni 1.1232350761442211 3.0885616677340986 3.7620593406783884 -0.08731620601916575 1.778878914390885 -0.30145618923381634
Ni 3.516226347108981 2.533730447145298 2.660959422480062 0.3643410016834951 0.3732251915470024 -0.2033791451537207
Ni 0.9794465813078496 3.2237089183083887 8.566231927990172 0.34888378658816044 0.37359954416728564 -2.177920552780359
Ni 3.6861557368910627 2.619002788428915 6.833785511999891 -0.33597787715976973 -0.15828148148413385 0.19943610134557266
Ni 4.163496260243775 7.025765909391075 6.166615401477039 -0.6762911484700999 -0.9267435929625395 -1.3898164987013097
Ni 0.8177594003198309 7.513756426980927 11.203419332747364 0.3624900645176854 -0.8202145614603488 1.5309968017287827
P 0.1970873275079569 5.339628419064569 7.991936644016908 0.2609715988562086 1.0407853879020075 -0.9090885988849375
P 8.638891672020476 1.5168233933295772 8.102200730485729 -1.574795544081288 -0.26301356898690187 0.42124285707686165
P 1.7970892569669676 3.2754025606845882 10.485938178930246 -0.4763945625483409 -0.1991280831868506 -0.16821725254060707
P 4.065112753582403 6.0691394516737684 3.715455436414671 0.4185773944295566 0.3871158334861655 0.5867925900876346
P 6.828872218141975 4.16102604067985 10.336911551839092 -0.06679854568178818 -0.9836873573374348 1.2401986064294448
P 6.263825327634965 7.8692418336033265 10.30446571553022 -0.15003004010861906 0.019506702574359953 -2.2518158574079283
P 2.4304879371658754 8.58119892498903 5.881619926974948 0.7110768886907173 -0.5997882310163541 -0.9014786477481636
P 6.9106971101440715 4.080305056321706 1.4355721713654035 1.1280185472890638 -0.5662031959720571 0.509423982199484
Ni 5.259622260148 2.9922773952808965 0.42109552405103895 -0.2283440426291745 -0.2409889850866946 0.10416953013107867
Ni 1.445630398718 0.9876715980976214 7.232540478895873 0.38176562491784577 1.0790943107845352 -1.1558111440212997
Ni 6.764854623216084 0.7681749454174438 9.152127290648242 -0.002285453600067032 -0.29627001704718653 0.20371981632259112
Ni 2.8785477626839326 1.6327789380610667 9.228700477760587 -1.2688838901792794 -0.15617780487756974 0.7800696138103468
Ni 6.477340972506518 2.2220213125019046 2.6138533307225797 -0.33282879000782684 -1.6431460076312279 0.2644181626439124
Ni 4.026077855418404 7.085820294906712 10.296042538269935 1.5953327448026913 -1.1054748576605928 -0.06503451180282993
Ni 8.303656636768274 7.370474643849977 0.3394742215734422 -0.22947764201298546 -0.3032279364222584 -0.43106704225613507
Ni 7.503142626437031 3.6055161883427185 8.32226381446518 0.4197246206601223 0.2874567896309308 -0.4867077715488908
Ni 3.008926494173284 8.393579867633788 12.54310988649691 0.70557575636683 -0.3238564113058874 -0.3018277136406221
Ni -0.05407971160333156 4.889813199424163 10.07235013170041 0.048293030678432956 -0.5863385332693515 1.748718074536788
Ni 8.633254504297673 2.2779224717177566 6.024276464055103 0.5278369374890329 1.2354338380509498 -0.018802734528799877
Ni 3.4800507507112832 2.7405774040365856 11.592229177582139 1.1431983403532955 -0.2157191547763124 0.36741244151996727
Ni 1.2025264096192148 3.4050212246158087 12.596254895972208 -1.2654517245692787 0.0768261051211193 -0.1855655140110675
Ni 2.975537812155399 8.386006337322412 8.04524090574248 1.144762599516622 -0.4776546602076871 0.3227950599209086
Ni 5.995358607995223 8.186063327417479 3.669435155454518 -1.2574396528980796 -0.45342175580225136 -1.20832952563499
Ni 3.0750976138472117 8.171911593358951 3.566270461915571 0.49902386991208253 0.2823788608873911 -0.009148499268487471
Ni 3.398108229206144 4.240281180461599 9.272986175972004 -0.40454765580936775 0.37403328927059454 -0.7030061958674408
Ni 7.082752879404256 6.200287299144562 11.471449918383513 0.6306844063745783 -0.9143565321520962 0.03294842990156261
Ni 0.47133508480114816 9.463745941058525 0.4136052392341269 0.29106687557969224 -1.1845072264044116 0.13954071054152095
Ni 4.544724431186196 0.2731465641762328 1.6293477759415051 0.4575121238215411 -0.38279972260931494 -0.021777757996723785
Ni 5.8668800454011985 5.574480246103649 0.29053220472614183 -0.16750068608955668 0.6446951188313736 -0.21406979209834748
Ni 7.839119632400741 8.636602420922772 11.504188018765332 0.2828758551284677 1.1737330186070432 -0.04231598715939164
Ni 9.242692959568842 4.923618108914357 5.562151769342304 -0.14277747231126378 -1.325570544238046 0.9663830617310325
Ni 8.139337269439062 0.11132184715388557 2.3980801042349116 -1.2058386408923363 -0.1623530804503462 0.6496203240471329
P 8.682640798729548 1.6418273613721466 3.874825316192722 -1.3188198557777737 -0.9959088391042914 -0.9459471624741838
P 1.7033928335807347 3.2798453365303284 1.5091783804740455 0.13803892918501387 -0.5999671797963797 0.3753067566663794
P 4.5896589013490185 1.1276507067200283 8.16453622351809 1.757642630719928 -0.5825839513229257 -0.2936791163915587
P 8.500776538600151 1.5470089334953399 12.245533484223092 -1.2636113289264304 1.2295511540179276 0.94534372456223
P 6.269607270130745 7.728801255392054 1.0461542724841244 0.7883225978477584 0.2260601316910042 2.8588666835239667
P 1.7893619034593053 3.2020831865949075 5.950683827581427 -0.8024109576200246 -0.2379296294350806 0.5510874233765412
P 6.835305647116153 3.945139708900793 5.885817490548957 1.3851556028905305 0.685432962870368 1.1450801307570406
P 2.581488025381178 8.513299556462686 10.267066772300865 -1.7407168014988665 1.974803660149089 0.07246654260084293
