# total energy = -381174.29946404696 ev
CRYSTAL
PRIMVEC
9.12706421472822 0.00000000000000 0.00000000000000
0.00000000000000 9.12706421472822 0.00000000000000
0.00000000000000 0.00000000000000 13.35838105604022
PRIMCOORD
 96 1
Ni 4.859632389195632 7.680753213071349 10.894468320415648 1.4708263028864732 0.00397543970798025 0.02512404876113738
Ni 2.6634051521494064 5.5584004347608165 12.850242134823167 0.9248841711562975 0.10049748059613015 -0.4002408009038978
Ni 1.8732386843233846 6.674603894797907 5.554829014486133 0.9002756285789979 -0.2856701300441532 -0.2131609071308329
Ni 2.372288308087924 4.26251245914063 6.479429838330164 0.6869820525250426 0.08403830659884237 -0.137779247765724
Ni 7.84103358987608 1.8950341139577846 2.8537774600699732 -1.0657181465879453 -0.9855292956421802 0.17832811572236387
Ni 7.516447800894436 1.9996667795058418 9.419716352296172 0.3205456017650995 0.0786904120233677 1.312052198036637
Ni 8.877630794774463 9.014600649265015 12.853247677109016 0.15731757490896775 0.1625983636919329 0.2460095782297376
Ni 0.6486367319931968 6.688997275255801 12.285876500550815 -0.43596962176407494 0.17709758574937243 -0.5204820397858585
Ni 1.0104938008973845 7.230588145890498 7.7487562313196845 -2.1306101977301695 0.9172747342401558 0.5005572758374734
Ni 3.7952067651367445 5.4370196061561735 10.36798730478922 -1.483076066788104 1.8102504867236309 0.7822931038242269
Ni 6.781682613588016 2.293430472224768 7.294678391657984 -1.2603460279115972 0.7811972996568869 -1.2390524086401435
Ni 8.88418402696772 6.460373440703001 1.153563272483695 -1.0439460450181763 1.652922884512334 0.003881851552909443
Ni 6.21300261600403 5.547192399756192 10.818739242206876 -0.16462927807903263 2.1144053058355325 -1.1385467005138974
Ni 7.428554171338628 7.366836962298506 11.936354659096748 -0.2676911769682293 -0.6166505539893316 0.7513053971934609
Ni 0.3622121117068587 9.044190591842371 5.664140213212831 -0.31431581880530385 -1.2181025458613537 0.654427515627789
Ni 1.912576331611602 1.9596446023924232 6.254928698737943 -1.2854083701968635 -0.2871739682831893 1.5945328746092151
Ni 7.392839968591808 8.814307222411202 10.224946127102351 -0.13903214633621863 0.8011467461956202 -0.7648029174592635
Ni 0.516053344622532 4.977946524183373 8.073751825490016 0.8223493484151644 -0.6167631683077958 -1.581134084704806
Ni 3.221525136296624 2.611234852404754 10.914732228654465 0.04059206248974944 1.0092778042120294 1.258669925760755
Ni 6.412830562576708 6.746835481953117 5.605977995731586 -0.8511521315794697 0.018037831338317323 -0.6913187322271835
Ni 7.201719241395687 1.5538827032062767 0.6065034648988582 -0.6620372096542468 0.7657107739855136 -1.8629840696719207
Ni 5.711479557804433 3.9069767949955643 5.7832036801825595 0.6543349559139828 -0.3118419033435145 -0.06885799931397818
Ni 4.21145566124497 0.7953679817911157 6.676478593812525 0.6295862882143932 -0.7873257811521279 2.4154873995593817
Ni 8.173578178958728 8.775927916878267 1.9015654411966356 0.8092485493671482 -0.7871586594466443 -0.41873088928828534
P 4.2851384516296065 3.250238880697722 7.627969574603316 -0.346017777894275 -0.15961074181851867 -0.3674232401532446
Ni 7.934540363998537 6.624341151499482 3.914820594085934 -0.1531503309051556 -0.6041616774937014 -1.8036612635418872
P 6.656240241353848 7.308478512934036 0.6633942823180967 1.3925040728358018 0.02791266724986806 0.06949229046386741
Ni 1.627903194971345 0.6716122910462432 8.495062591478995 0.42422790784711456 -0.6725694766441385 -0.523672264588382
P 6.468952881178854 1.8774736421752947 4.5649997999519165 -0.12261822375456947 0.4440665398395965 1.3683770978806111
P 5.490330788942828 2.0117510126867235 12.62463205691412 -0.3287566768209822 0.8066422220925528 -0.28078014894170356
P 2.5095045933155484 8.462075555555774 7.057233249424428 1.6083165586568686 0.2875822594652015 -0.3583709001429893
Ni 0.21667376921765666 4.790129794276891 2.6294369568100655 -0.6638238692410245 -0.7093095123776495 -0.5127067667158137
Ni 7.421462442349546 8.969321283094054 4.148285423562554 1.3245824692931638 -0.05749526600299131 -1.4119902065848717
Ni 5.009471404399964 3.78377055352372 9.803636273819805 -0.07363510898764737 -2.465814172838392 -1.87745475248427
Ni 2.144723212998102 6.592232139165387 1.62837323878465 -0.1077114818460661 -1.4342405333426396 1.253419475995093
Ni 3.640402626933622 7.5400230080743595 3.7013002255963703 -0.5849753343732377 -3.0079790969143225 1.7034028955397567
Ni 5.894760136735917 0.3873827297327164 8.377134531312667 0.12542561129637753 -1.0806308020337194 0.8036384022692226
Ni 4.9056966828994915 6.449448344692793 12.755383642472545 0.892951841224075 0.6048628173257841 0.4600364329052916
Ni 7.167702672615366 5.149699620858473 13.02989835650682 -0.017018646045183595 -0.6760978015123711 0.43229011602995876
Ni 7.817942117105966 4.483305272493128 9.16670865266328 -1.357525756988404 -1.4655403718971858 1.0166054482216942
Ni 1.5324797373383252 6.1466853665385575 9.82861613620104 0.38273930168502474 -0.25497604339440605 -0.030765563317630886
Ni 4.26202872473082 5.149243267641673 1.198303229152399 -0.4590696981166481 0.12272209632228542 1.0246234334301643
Ni 4.297770308670649 5.776007902660046 5.809693159004971 -0.6959289773056854 -0.41824186546700876 -1.5960572816735414
Ni 2.6772691628758105 0.15694078396418357 5.093176624131976 -0.2180819985815341 -0.7240861564661917 -1.3374099600751355
Ni 5.3458219793107284 2.9919977223745597 1.7229104584706427 1.3559926081733291 1.5695605209345938 0.2192824466475385
Ni 3.2443793053940015 8.051494566400214 0.24244494807682404 -0.9876774523334344 0.33114857409192644 -1.8786742267136678
Ni 4.854311310687736 7.609306553449037 7.136234380197659 0.3649812063706553 0.6182405241842708 -0.5971351096642232
Ni 0.6042837628523398 4.5211278271015685 0.013362022187923577 -1.3127903617542422 -0.34454273601064533 0.4316679090649275
Ni 2.227268382853007 3.746039269558641 1.952234338858014 0.8208316262190573 -0.2641751933951708 -0.06346022533717459
Ni 2.309621884356856 3.0418132395205206 13.126292933785193 0.9613192740548797 -0.5442981683688497 -0.5733053542344771
Ni 7.745181160219268 5.03947206487244 6.607589337617163 -1.520788750847529 -2.531245148748692 1.1708752374432738
Ni 4.06230117586584 2.3595743074678572 5.216527985926763 0.11455832956457043 1.0792025542276251 -1.4816395914518936
Ni 6.633020989683031 5.480135858079501 1.9643496040576383 -1.1079991667443432 1.8472172937559672 1.051931377216498
Ni 6.670432826396349 3.4267928132135648 11.175728847700668 1.9265324838475273 -2.1106005873774616 1.1902397580128148
Ni 1.287116866793278 1.2410799542824262 11.517088355519038 1.1102707363873394 -0.8367578105310106 0.20665395925025054
Ni 2.35482823401313 3.8765562895636316 8.86515592324 1.780937082471494 -0.22371939937296956 0.020885585199757577
P 2.327346643297394 7.5788769209527675 11.26973122141657 2.382259747854504 0.6071025052895802 0.8304012721853635
Ni 3.6996737827316926 0.40742211218886737 11.575839268649956 -2.120820722443573 -0.31934541080941137 0.9093151130734468
P 1.9911877367376853 5.29666361079696 3.7033574658977075 0.6916218652898992 1.6511467664485178 0.08511379905120825
Ni 0.7284529096116338 8.353207932155808 10.15577575732544 -0.5502361311198395 1.4403692719481966 0.14773738741970038
P 8.82427397666613 6.616929975258639 5.825950286000278 0.672646609738977 1.9590404837775615 0.28507491966231546
P 5.499613013372554 6.26032644458626 3.684695357449861 -0.566752640717624 0.10601198265645614 0.3849795038694531
P 8.867481499232817 2.840388056689042 7.539817649126799 0.8342458427424341 0.7471049859588681 1.7066620259070027
Ni 8.26325158606006 6.718258643517059 9.638125176444106 0.053409525969391886 -0.8661408916788179 1.1477049699743975
Ni 0.11085002177374961 2.2725568760883057 1.0474428954488675 1.9947006561833325 1.1678369648375821 0.347187372722344
Ni 5.547457084621936 1.169815835946834 10.56541118261579 1.0479489955299823 0.7508063460698553 0.8533815351306205
Ni 3.1093078802853396 6.159326350643937 7.736386321025086 -0.3927349794451559 -0.833917512868738 1.2396095666951943
Ni 7.350773329067122 3.8750138156908456 3.7387303164383607 -0.9098450174349879 1.4961521832457716 1.4993652908664308
Ni 1.9023814007482753 0.8573443994583809 0.48323150856379443 0.22453880995047137 0.3189839137049345 -0.8877358442407742
Ni 8.494805208264719 2.1982808265218288 12.15479086443769 -0.10361905694424733 0.8375329981341383 -0.946307631137396
Ni 5.630193922827897 5.137323321618839 7.959965627119369 -0.008761805353030071 0.22723486872539575 -0.7869208324042254
Ni 4.85934032313688 4.135436342390315 12.511726620251899 -0.9839529522939958 -1.0060644394810543 -0.27499722371133933
Ni 3.8076469538267306 1.5042588544113717 9.131762948733552 -0.09551596822113874 0.22428581339940082 -2.30463300120896
Ni 4.8053811187823685 7.715116610296439 1.796956506015852 0.21576183508878968 -2.2743700885593605 -0.20307806897353411
Ni 5.705400932956647 8.975719355193599 12.949788287416764 0.1720674795246327 -0.6104562522531616 -0.9828625474432944
Ni 0.7462862806177702 2.3863439871653847 9.642466920948747 -1.0192703966483672 1.0761935921979724 -0.32288736252439876
Ni 7.61032878465467 7.235754064304682 7.539002602281593 -0.0963934857300856 0.9759622207790354 0.7446896916491562
Ni 4.0495141587310854 4.454929229472463 3.5711364229811826 0.6344865537294879 0.5947537539162402 0.7760543220033667
Ni 6.762661811511764 9.029687686612446 6.229454149469695 -0.848941754191712 1.1527391899641954 0.5467797971401228
Ni 0.8961928360981883 7.778458436788373 3.6726330292233857 0.0454524759058443 -0.15575331574564144 0.22740224754119545
Ni 0.1887778097810654 4.678095079552326 5.026799136041885 0.6715716315072434 -0.22626787682643612 -0.277100128986955
Ni 8.593925126953822 2.1521891516249614 5.59056238406806 -0.4752902737405686 0.4546656555116815 -1.3176209503736662
Ni 3.600964581937708 8.108173635926855 9.091700612537055 -1.4071141094394926 0.8481485688664555 -0.035379407940558424
Ni 4.328957487506806 1.1617383840094622 1.0806489809161515 -3.8534010108782346 0.3460532591179008 -2.1802623135396577
Ni 6.015958424053839 0.3420914983781172 1.9502163449333214 1.634667794956888 -0.33422721301725017 3.9672322324687936
Ni 8.414295373756744 0.5204589785775258 7.756570823804179 0.5638506365794805 -0.12093286563234658 0.8733278963455604
Ni 5.102759128978357 0.08989702017756372 4.372384972323992 -0.3673849307161415 0.7279620944818302 0.11939406039031696
Ni 1.9071731095246824 3.2676807006438433 4.353870722318389 0.5625745980805344 -1.442233064629813 -0.8972029031909451
P 5.760528401546169 7.029445902053435 8.990697780475431 0.5202768657535879 0.6314559944332803 1.1849535699132108
Ni 2.798723007995141 0.190548460262252 2.6861972572092987 1.5225880088397972 1.6452414567076763 0.17838313733001537
P 3.729993890455929 2.2579261919576763 3.084116270011509 -0.9259812608752181 -0.011902150754224664 -0.874820421730687
Ni 0.6944418170699135 1.2305929573603471 3.6668218273606463 1.0180028427898533 -0.5545334729436127 -0.26927806183937497
P 7.517944639445544 3.7167596471687094 1.5026442767303312 1.4514440417051198 -1.7882991792635203 -0.7991238022283206
P 1.171102752018212 8.517778029198464 1.7647087623038495 -1.75370755733158 -0.7633124489566661 -1.9102049503320975
P 8.576611085908405 4.918428937648231 11.407028737516786 -0.3088673940962229 0.0551974711077501 -1.1189788056842986
Ni 1.573140808955265 4.233378869780075 11.15419445210628 -0.9671374233985538 -0.46819737144952916 -0.07984895110784312
