# total energy = -381170.91767271666 ev
CRYSTAL
PRIMVEC
9.16300407019203 0.00000000000000 0.00000000000000

0.00000000000000 9.16300407019203 0.00000000000000

0.00000000000000 0.00000000000000 13.41098266736920

PRIMCOORD
 96 1
Ni 8.370477398924297 2.9007688078123683 12.267468153190695 0.6262513103038891 0.8076889181895123 -0.3979260367277921
Ni 1.5338776957646003 3.2597111609697147 6.987537285483859 0.015475984148412057 -0.6561000182342055 0.7239879403254306
Ni 3.570950915639911 6.7626909134176 11.028682250261118 -0.633980817737663 0.6459523882772423 0.6109277925729414
Ni 5.882456103377334 3.544689746361353 12.071707904516245 2.2742451329457216 -0.9143791578599156 0.8656014742355803
Ni 2.7810999764174036 5.83386469350846 0.4352976649501676 -0.5003767843955511 0.7495506192858833 -1.7411464328371176
Ni 3.5724169962695584 3.3402631285649007 11.793189236898993 -0.2972771181554622 0.16758913203830492 1.4735632422016622
Ni 1.0282264865992308 6.358611602874986 9.767205084386177 -1.8433668096616254 2.609410027285893 -0.7253827637904281
Ni 2.593835664991761 0.547264991537516 3.3187483953248265 -0.28490008464734806 -0.5791736400897961 -0.24423088906276003
Ni 7.954660280340569 5.537029181024549 3.1571863099376887 0.887373318695033 -1.2066053438550317 1.1288060761873655
Ni 3.2236639034882604 2.152591210487586 9.283417718910815 -0.7754719671373355 1.1104507136086295 -3.031898069623766
Ni 7.757948911857636 6.822681100181983 9.541283891958306 0.622323950225025 2.110909376867132 -1.2766321666661304
Ni 1.3337576898177375 5.487851338903815 7.6013311833939845 1.3802293692335068 -0.4471582913910428 -0.5430658386236454
Ni 6.586046523552966 0.030222335879786507 5.83495783987794 -0.35011894454684217 0.44144889971109136 2.130681417287737
Ni 2.3656127259753457 4.633355406917795 9.914309782164203 1.5525670717003908 -1.3139887529377174 0.1950773101562447
Ni 0.19276119748642656 1.1318600611074274 3.855590469885943 0.38199059644445826 0.7608938122128444 -0.29188782881909087
Ni 6.4251625004570405 7.190548219172308 4.61997650487187 -0.722863082692368 -0.5738339730444375 0.9699666653172329
Ni 0.7003494656837177 1.4550758619210555 9.07702197156867 -0.04788911037179494 -1.4039130860036917 -3.4970833937198478
Ni 4.598499339947931 5.435228207303411 12.427434043292305 0.918273093597683 -0.8385763517969881 1.3448425050937807
Ni 5.829118257469976 8.581748780660416 11.358606286255776 0.8431673136017802 0.20663467597654092 0.7742355236270729
Ni 7.324273098604016 2.5794864008290874 9.576326884208452 0.22550657318037937 -0.17694306244937913 0.8305136293935116
Ni 4.481102933528919 0.4841932865496936 4.96431669495793 -1.072679922617759 0.4358521223496042 -0.14254941546085773
Ni 1.0801257408887468 7.638894001726337 -0.020806433035876426 1.7607454380149679 -1.371363948423077 -0.49376210729251085
Ni 8.396793546226467 8.932077910118585 0.045150701891170604 -1.9581796784391632 1.259132210109154 -1.0030698756291045
Ni 8.41934369891123 2.985242541091861 2.6879360502056757 -0.9199458533144156 0.5938806072826674 0.21347303905461298
P 5.182833263905685 8.386897501976348 3.17431288059315 -0.6650597985306546 0.9410083304116696 -0.7109547612905562
Ni 4.5947791603502 0.9139400037158589 1.7552833598531554 0.0014822409724813182 -0.3518791217710585 3.491242361558039
P 2.9068255534135985 8.767446218413122 12.849223607841058 -3.780844479666747 2.9171433077776725 -0.9474846821646328
Ni 5.143798867141325 0.7104415982180526 7.771811620511346 -0.10181465674565691 1.627382059928752 -0.4818440156986863
P 7.947513137271039 5.852868763670264 5.3537846794253205 0.4773659253226746 0.05068415661842884 0.8893183582365458
P 6.3385262982488175 9.120899932213227 9.397397241162354 -0.5746940070518877 0.02943193210787189 0.6566913719613013
P 0.5207545885519178 3.9006266342279226 8.94495101434728 -1.0246352605047062 -0.07143193068874149 -1.298943428568821
Ni 6.793707681738577 4.365859833034702 1.272926339292095 0.35577485728103886 -0.12308950696403316 -0.16245849567995893
Ni 1.0635223777579905 1.019594936892182 12.450850099848953 -0.8916922577853611 -0.6180584900804518 -0.1195462696974651
Ni 4.6470174457853215 5.340528561632128 1.5928086392740624 0.1586128966816236 -0.013556912748828266 -1.892102584304432
Ni 4.611446664508503 1.1740740202373356 13.032859369708323 1.5286187884149094 -0.880517215005148 -3.3707751227082015
Ni 8.53867349916059 8.513127044188984 4.981751142545616 1.11027202193892 -1.6082147429716818 0.8568826063053436
Ni 5.222976384146217 3.080088794826109 4.764573288472807 -0.3991221139184223 -0.6960680739867109 1.6772046398778337
Ni 6.6323196934262105 1.2626252902680355 3.8488849836060934 0.4180186937126091 -0.1763437383024834 -0.5330825021586884
Ni 6.851113901393206 6.99180266381574 7.1361447159072755 -0.9301503046512433 0.5899342210404098 -0.15455903832722412
Ni 2.5791840216992226 0.28434542181970923 7.690809749422936 0.46747926233658205 0.3945535207111334 0.22804065245614275
Ni 4.772926282860222 3.989141252242881 10.16921263973902 0.6606608981320106 1.5854903047909725 -2.886802747812603
Ni 3.267811256448516 6.654897335122779 8.869111579676018 0.42640563222472366 -0.575692366409415 -2.5417825579449067
Ni 6.170989934295867 8.712010044604583 0.8430733312802804 0.6037857822115213 -0.6137830026335493 -0.36138371882738407
Ni 3.6189925452726674 4.166262118312151 8.03008096573199 -0.6948450002128872 0.9033740649986636 -1.5371268258859203
Ni 1.6937812774394492 8.459624264210792 10.920830945041505 -0.17259404145206406 -0.7837712310316503 -0.7751246111002458
Ni 6.911965410527506 1.8304749701461938 0.8285490537424428 0.26887594130494985 0.4333841204250859 1.4234974358935228
Ni 3.0718329282804073 4.4106944112901045 5.121600573807677 -0.12733491250394846 -0.14049176160088064 1.4599675057950985
Ni 3.156957234839306 5.465777662423688 3.1606462602236567 -1.4197086582750515 -0.6285485909784982 -0.6225136976383279
Ni 2.39051777067148 3.7414469298639617 1.3323071862947802 -0.950270472439886 1.4696201983935142 0.6864045827550179
Ni 1.5625029200584648 3.3343896430423765 12.633333155821157 -0.017822115783085436 0.3277236075707775 1.057437908857024
Ni 9.14333096584683 7.135524380540856 7.089125677513698 0.16502342819365773 1.2550778375341223 -0.7014095408042824
Ni 2.587595659311824 1.6589801884931954 0.6152608948401663 0.6101621180515104 -1.4631181356089382 0.6969324788695352
Ni 2.3397547288699405 2.157291831506393 5.056034699148667 -0.43995148922995847 -0.9483133487135152 -1.2079500308083841
Ni 7.416058909023875 8.411665101613453 2.8957795521695995 2.357229030138121 2.06150254429923 -0.6050353383479063
Ni 6.313859491655001 6.7206877033782035 2.160496133982566 -2.7333785944207696 -0.7313667492880049 -0.8360440722934376
Ni 1.8434039686988961 8.37534295401394 5.665281914506099 0.16639793994368116 -0.20053679060891916 -0.8789023051095445
P 0.6809761264633215 8.012350553117193 3.2583990188061804 0.5063677118716635 -0.16983884730443008 0.4508948756153396
Ni 3.0276214342926044 1.2891338606528466 11.191250433480352 -0.8035718106973451 -2.264781930650293 1.5856561409448755
P 5.426935688741968 5.730973322319022 8.453277967685207 0.13588640161838533 -0.37632028553255836 0.5743965304161269
Ni 8.322078412138064 6.837085342368268 1.2815707172046533 0.8780504986322103 0.26726360251250747 -1.7947824729950186
P 7.759158428377096 1.9051076371991789 5.579840568011038 -0.14613533303990317 -1.0193763260986122 -1.139731721960934
P 5.930644341073055 2.8554577533523298 2.697042243516573 0.1533616755850133 1.1028201936465654 -1.3139884958274017
P 1.40303916257251 4.033160323148043 3.2037096298183663 -1.0289937945837182 -0.7044334152322707 1.8094560158467936
Ni 7.895650534997263 9.110151728597124 8.127470869358676 1.2262657983984364 0.44231484725581244 -0.9674845223253273
Ni 6.750256717077404 4.246062719584644 6.125171249417813 1.7377281511841876 -0.19484591087172892 -2.497041763394106
Ni 5.2512900663062805 5.257053595781581 3.7719725611740067 1.7871501532607417 -1.1089314487506257 0.7821241823465304
Ni 3.814860917393553 7.1546750587656245 4.424779780939441 0.38848751702271156 1.3073257390952453 0.48636555771812373
Ni 7.833067218119193 5.028106779454278 7.997210521714903 0.6797927338654551 0.3251974987148141 1.4474950843597005
Ni 0.8506841223489372 5.959232913351179 4.833653175141003 1.1053655857762383 0.32049443681219 -0.37341802428409887
Ni 0.33092280342360536 2.3468560569197945 0.8755039511084731 -0.37200983108266256 -0.9590585030451612 0.43411482794352335
Ni 1.3401992815842507 5.433413932524222 11.766782375857863 0.09435614358508265 0.9255511153163352 2.014044607927583
Ni 6.246575553758123 5.7956916191140175 10.721717953227131 -0.9211185334662781 -0.0068057100679237625 0.8467383187824901
Ni 4.575261961968019 7.875666023414383 6.766323128177551 -0.8647465824344528 -0.5403916342255919 0.05264359433764483
Ni 5.1512575523446555 1.6854612698662006 10.295074745493851 1.9439385951391164 -0.7016016022104303 0.9881312520414015
Ni 8.033361321140825 2.8654179386299963 7.352168947784631 1.516430988099466 -1.1856691079229966 1.4405988714604996
Ni 9.144082332169527 4.617989049318305 0.39446823571488254 -0.3845946097262086 1.3616228098759129 0.03904194439381018
Ni 1.0271269261269953 2.768409215967018 10.634238754656861 0.1005149640976269 0.7929341284778408 1.347610554757221
Ni 4.152563427428883 8.648070603144086 9.53994242818218 -0.49108456046034776 0.49059116576369705 0.4651729828009085
Ni 5.684168698217531 3.3353975734752592 7.8176101467807415 -0.05077620211160287 -1.0917780768997907 1.0188348517728454
Ni 8.706759643349658 7.2533514481448265 11.737211529557875 -0.8494426050875307 -1.1419996920595041 -0.28519319040773466
Ni 5.084230178557966 5.579362259205616 6.238105272920335 -2.1376007701153896 0.5998753914135218 -0.1373285333815506
Ni 4.580209984093079 3.1576719491462595 0.7285889275119061 0.7117433186301226 0.7922622992217969 -0.374534140166413
Ni 3.246617228346177 7.64315479855625 2.0699317519872817 0.19757616531869845 0.4901507357921688 -0.6814094435332716
Ni 0.503530890054742 1.2047425944087713 6.484492034637688 -0.271331601934294 -1.0733286119453513 -0.25703164037185405
Ni 8.404215579414057 4.663510852868854 10.567210464569778 -0.0015172079754748064 0.21256698230057586 0.20955287806460038
Ni 3.823913965281625 2.9326560615071977 2.949396869696983 -1.5809667058890062 -0.31043808101745246 0.7303560486353035
Ni 0.8919038955518658 0.08762672293362833 1.5177883771546141 0.4320150079917011 0.6320278077763503 1.5178741483038956
Ni 1.2635965686851767 5.913756924820305 2.1194852772693618 -2.4754820349454594 1.5564967457721002 0.2203003463890916
P 2.8514626836365404 6.398287409914817 6.18926188044324 -0.531004279473421 -0.09585586805906073 1.081479266076944
Ni 4.427875043668784 7.716431341026811 13.093383759602133 3.0340048315541237 -2.974387634112123 1.3325019812505567
P 3.694459045683765 2.242480279092839 6.6564202263768255 0.8379582585970148 0.3675703072540702 1.0605677127352573
Ni 8.594851876287889 0.47569001889773904 10.761186676378024 -1.455203765857868 -0.29433114815326084 0.5280670512219681
P 6.940728079880399 1.477012093342154 12.188732292975484 -1.6042853260102885 -2.3689522321123198 -1.5448650750704425
P 0.852955631024497 8.449114298697006 8.637222522785091 0.10799250342159465 -0.2981988586387832 0.4973549668500919
P 7.033393538678047 5.568714848632802 12.847533033614996 0.4278415933403019 0.052868051643625076 -0.44295685171518545
Ni 8.950852905182005 3.6109199388056714 4.909452292594951 1.0336912000593874 0.46250443482980996 0.4775561869566098
