# total energy = -340852.0517227267 ev
CRYSTAL
PRIMVEC
9.41487600870559 0.00000000000000 0.00000000000000

0.00000000000000 9.41487600870559 0.00000000000000

0.00000000000000 0.00000000000000 13.77962270898527

PRIMCOORD
 96 1
Ni 4.245873650875363 8.565004450988402 12.147467346228428 1.036069727593893 -0.8097368018574764 0.18560716588228032
Ni 6.911319161822364 5.429191740977743 9.258790420681768 0.7952149540922174 -0.28226161858323645 -0.1411553633268085
Ni 6.311817525161486 6.469686163950506 6.6226656576940135 0.03182022983439036 0.6959338624016917 1.0195897276609989
Ni 4.647747627897625 3.903040360508989 11.080841935245232 -1.4436764819445587 0.48096392708657815 -2.007290577033201
Ni 8.516536669947977 6.137736470103699 11.256793726140767 0.41960275037027733 -1.8291961745881982 -0.30293251666902665
Ni 5.127228426815038 7.876221546338719 3.2960859080999363 -1.9972499049677475 -0.984275625740737 0.5831351958407053
Ni 3.8939079309034694 7.844728786513501 8.350906407481853 1.791206325607986 -0.23040658158515803 -1.6086220057124296
Ni 8.670272178224806 4.353062012791691 2.0117141892059256 0.4975033195024981 -0.45046704404930155 -0.6185094615749412
Ni 2.471734439675289 9.325095625568192 4.0673591307647525 0.5782840383959911 -0.493242487343615 1.884941033558986
Ni 2.2007931415437043 5.26578715517012 7.184709269170852 -1.1521239249776998 -0.019513387442579296 1.2497368849371833
Ni 1.352955323743873 6.308446999595737 11.943418741238302 0.2525340096118167 -2.2486893959638046 -0.12709477146868436
Ni 2.2901968029189748 2.9299752786029583 9.951395764939534 0.3429810479504803 0.20881265746446617 -0.017233847379783222
Ni 1.9693849072405492 8.34622156524298 12.04588460141223 -0.8012336494824718 1.8701438206451533 0.8583967289570248
Ni 5.354776562006583 9.478802889217377 4.8426412075801135 1.6409615983853996 -0.07611339532481085 0.26186402876349096
Ni 8.68704007217061 5.888214014603616 4.447565712432229 0.6237249443376097 -0.5278420796953555 0.22051709038558795
Ni 2.7900890527485176 0.12198666382762215 0.024802549023484794 0.6109625024656188 0.7893384407067825 1.4108843751152025
Ni 2.803665303770331 3.5081616362670363 3.284800296380208 -0.5934844002855133 0.9765967690392408 0.3819970242023615
Ni 9.02780208984295 8.323672937505641 12.20568611421982 -1.5326016843220571 0.36377947275307027 -0.4250416619976615
Ni 0.47330087438848245 7.6455288426025945 3.2258782371604324 -0.03340917158806504 0.5129867598500778 0.8117810859810148
Ni 8.178994539827274 6.922108609583112 1.1155432230907798 1.070292139111873 0.5213685561558699 1.7764217110996439
Ni 7.815646234914069 8.570389759992894 5.488382124160155 -0.5467674558449487 -2.31409877460755 0.6926161108823684
Ni 6.403104161713151 3.4595055577089706 12.430528414082882 3.6920642875075442 -0.4886129589914037 2.0468966214605975
Ni 9.040380364021273 6.480560345594191 7.8337839933007 0.30200769086191215 -2.3186465418792324 -0.2246884481544582
Ni 1.2982831394972223 4.337226191558202 5.031615654795603 0.4343968779603164 -0.04861467568390983 -0.20972642752798723
P 1.257375503790025 5.088702754705982 10.072532265475015 0.025516141993233474 -0.6115392009046952 -0.0862103745494967
P 3.4620758188247507 6.6182999797475395 4.816611900229208 0.4173288667344361 -0.06639154005135663 0.6936406954921408
P 7.1221841369510415 2.99459898665686 10.492837745011425 3.251745130525522 0.33165199609090623 1.126321876312931
P 5.597605040754578 2.974253439875904 2.3924046954937355 1.6492089259958564 1.9049100204817453 -0.16128195887335448
P 3.610105912317102 1.6479704595056768 8.35119544417143 -1.1246290619915407 0.7933187655107692 2.043933167956899
P 8.360551006335351 5.600222376249769 13.430488030433374 0.14118235991000203 -2.068599046134696 -2.261158474965093
P 1.0608211400019547 5.112164625403873 2.92750858112188 0.3854073354354911 0.31701933377939595 0.02501246288393757
P 8.374936936683016 0.8203011888202202 2.881595055908234 0.14165570000199473 0.1795794716309617 0.3710796059589093
Ni 2.2446099738984335 7.091180950671686 1.8149696449250394 -1.4224818501448147 0.3825318136599089 -0.4486562160928079
Ni 5.175178389681956 1.6405232926830315 11.805099150730623 0.20733093071261716 -2.7593153688911896 -2.0237813755993725
Ni 2.0188600800003473 0.30295187613031194 6.924149754674325 1.7495930209425739 1.4392467283079795 1.2011846870600924
Ni 1.3965367842015526 0.7730055598271 2.227448538140763 0.2223099206199526 -0.8750520781255188 -0.15751220741827712
Ni 6.592154869423284 2.0000962323675635 6.1388907338868295 -3.4238318933238645 2.7549794605199973 -3.0259886461178658
Ni 2.001800324902202 7.305350547234938 6.263926876012625 -0.010535095203368953 -1.206812060549199 0.5301275332954225
Ni 5.966564611693443 0.752047104626227 2.7904006851402112 1.2892765949030183 -0.2719419818247833 -0.7024446669370161
Ni 7.8075023672761565 9.20095107218842 0.6771884850010259 0.4021205344251139 1.0283481905799192 0.32055434351584794
Ni 9.243948810341417 3.371523542591879 9.701239688292596 -0.676241526179087 -0.3758551729706817 -0.652363948230541
Ni 0.46300288314877414 2.4374737063407683 3.423491774485225 -0.6248382320064465 1.0691433702194102 0.1791974057011946
Ni 7.225587718762814 2.7664388845329873 3.9503284576014037 0.8543171595710125 -0.10956370456345646 -0.7627738028443767
Ni 7.55705725393964 1.0959762865452634 12.185333977025746 0.1457226709825168 -0.012138692245062966 0.039890922657666784
Ni 0.6709219436139808 1.2332640066562772 0.1839713821718056 -0.9675241173140113 -0.054753184481479894 -1.461012145009529
Ni 1.7511292545445178 7.509747502632697 8.798771111699994 -3.1361341913267218 -1.2542982790556203 -1.6374322450759027
Ni 3.42253334012044 5.081095534993342 0.8887887619360864 0.0004188327049734723 -1.742726632840044 -1.7441659363897317
Ni 7.1585161429795985 4.334429973421255 5.948580315783688 0.16519260678167036 0.5142113762857983 -0.4939420845138009
Ni 4.268968341413856 7.3377188905171815 0.6909050176734808 -0.4078481809375105 -0.1814005840001005 -0.4907240917971355
Ni 4.50831331608552 0.957916546611927 6.66881361331712 -0.2633411275296497 1.1179465077650423 0.2392774017122266
Ni 6.843061311678018 5.035471046469274 2.978258528076098 -2.261798679652253 -0.4693775078005593 1.1783301510594224
Ni 5.134506125871808 8.891851282107176 9.976984456099164 3.785128451754081 0.6071847805907414 -0.8756557731477886
Ni 2.2239819808410184 4.113321613332984 12.428447726512964 2.4492956063580786 -0.5232045809233441 -0.15806833703206324
Ni 7.371217018905262 0.7339253515285944 7.434644096234565 1.7223663240161369 -2.342740863824275 3.0402323005210734
Ni 1.0254588661892425 5.41471166187126 0.4959813103881693 -0.8240398487437097 3.6371342111285685 -1.0133193212712548
Ni 7.512957975308452 8.18364548851297 3.134285617142602 0.31084225843440655 0.3159741803443333 0.5118328487512926
P 0.6379840003408782 8.711848270119624 10.222660934801459 -0.20138319776961447 -0.6890458770326069 -0.4257394593956345
P 2.700092254192683 1.7824337168520972 11.95329871198885 1.4310274257219804 1.9086288640942293 1.3442220979009625
P 3.72971249552176 6.373918046479017 11.997848021687195 -1.6148821276895287 0.6433046662417501 0.31254741405097136
P 6.157780740856431 7.74171121461289 1.5034530562048913 1.3787435287165997 0.4677736536485493 -2.034183544769303
P 5.783850115451882 4.476208589327973 7.7008798394003355 -0.6018605401643505 -0.6815701374808519 -1.0008525562628119
P 9.377206963574944 4.647239224599998 6.63641796689482 0.036206788937860224 1.433085850912906 -0.05261376954097391
P 6.114632364689323 8.482605457269324 7.442705112964714 -1.5859559315734815 0.07473631247162611 -0.5391428494201553
P 3.16022548317263 1.8611326643495574 4.787867342673938 -6.164791128305371 -0.6462406089416225 2.15730801873633
Ni 6.254113750880838 7.058765533010034 12.993481502569917 0.49121542961125725 1.1613708974972643 -0.8901706789345121
Ni 8.584060159773527 2.7111453184781262 6.799472319319633 2.0877542789069077 0.058643520674821585 1.7366359465612735
Ni 8.347671456128804 0.7175189888166583 9.661596470416347 0.6674059301653279 0.9586687238059102 0.7452255095479682
Ni 6.053172054931766 1.6809695994720124 0.6991590393592114 3.529995828177153 6.2813153233470596 0.050138568527603976
Ni 0.8808360162785789 1.0135772928261852 11.464438813717809 -1.9825100276544112 1.306701732358001 -0.4704751117401123
Ni 4.803620312999666 4.934750704283866 5.324335443817381 0.6560573379217282 0.5479907867290885 -1.0206479937221842
Ni 5.67231208087808 2.460201216719865 9.339524864344913 -2.66142190157681 -1.0388241504105789 -3.02898089597697
Ni 7.636236360107081 8.022349834902911 8.854674761712007 -1.6781281801333678 -1.0656227586606615 1.7703045424583124
Ni 4.1894314699629005 8.13958386938531 6.236988091651519 0.35164746537622665 -1.1224922181541959 -1.5513751082748184
Ni 9.3362710832401 8.701548395904739 7.573225420291762 1.31782458174404 1.5884452736542385 -0.8645887167003496
Ni 3.7749886336381957 5.814071867033034 2.9125295135936518 0.8934308377430225 -0.4800236746604959 1.3248601484345828
Ni 3.1870861240639154 7.709229892820062 10.311497820648633 0.4233840717895805 -2.935686617997499 1.9852184277245102
Ni 3.8452518523454033 1.9693190031093752 1.9905354259094141 -1.0730118520358813 -1.7785382432220145 -1.2551133187577481
Ni 3.264410499682607 0.5067575773226821 10.382862579834033 -1.1789158483595632 2.423036929771866 -0.9716823624567589
Ni 5.380017844246168 6.5965233718325225 10.589971019485802 -1.6464491038625322 -0.6657377984342856 0.14530409538785943
Ni 5.307447980947876 9.469764608370678 13.84107924103476 -1.3797223476901013 -4.677146725420292 -0.8086476825583557
Ni 4.098003610273005 2.6821757453892774 13.353543074312725 -1.532890676317386 1.3157625570086888 1.8267495128199183
Ni 6.266287185396236 5.385949216051815 0.7461967007531655 -0.0550750865972729 -1.079906265162869 0.584414062553129
Ni 3.5303713284726244 3.545519863766728 6.51619094336954 0.21067850702861135 -2.021170420339087 0.3473496093318211
Ni 8.619055253426842 1.1530492641418184 5.1884411253369 1.3498620697955592 -0.04018737085216304 -1.1172988468787146
Ni 1.2328779967451162 3.468101339389217 1.1116294591866411 1.4654475550730632 -3.8833325083303443 1.0038414636878066
Ni 9.524559186003792 3.8031861869047225 12.064293508224262 -1.7827947045055232 0.871693446065931 -0.3556059358033424
Ni 4.88129303902599 2.2552111241415416 4.2999037405868625 4.959855458843277 2.421858078972416 -0.34690712247776384
Ni 4.271529187653755 5.31860460886802 8.999733520376006 -0.7201734516753467 -0.4359642224474362 -0.8470645917736573
P 0.8953368081120026 8.789850516801819 5.484854370167177 -4.1881776686410515 0.7291828542628087 -2.313553957847674
P 4.9389968133066375 4.838314130624758 12.908956629876691 -1.1827935861474144 0.5168333872896776 2.3301411727823935
P 6.612942915370694 6.517739690452125 4.509836643003224 0.10074224961708457 0.5056318621469035 0.3685079885769912
P 8.498864947917502 2.6014337698254275 13.42975837755252 -0.843650680996102 -0.6503232636514285 1.3773438201555956
P 0.5610484590961126 1.489433364529037 8.28549373282904 -0.8358437833571734 0.8255639986977201 -0.2625857374208639
P 3.3845819754401836 8.965362632993665 2.15762687711242 0.3810575431072276 0.47545456723257473 -0.9714507060619268
P 7.073113803854168 7.590818998852416 11.018571946161826 0.9978078558992169 2.4718518943920396 -0.408752952139967
P 0.8136147439688388 8.211052192205411 0.23831592873776328 -0.011508514860231793 0.13860148655670324 1.0811082558907703
