# total energy = -340887.37227980385 ev
CRYSTAL
PRIMVEC
9.09941782246780 0.00000000000000 0.00000000000000

0.00000000000000 9.09941782246780 0.00000000000000

0.00000000000000 0.00000000000000 13.31791776643601

PRIMCOORD
 96 1
Ni 6.938151536373333 2.032500601421364 11.496599618392473 -0.27165556093261606 -0.8197993282998011 -0.3916384039468675
Ni 4.9901481305179844 0.5701622524671683 6.143662241846134 -0.3834139591545462 -1.1502968990712898 -1.5755463062043833
Ni 3.2465449512402187 1.56146012913293 4.7582521925639405 -0.7107719558557888 -0.04826654831587171 -0.7078542679883616
Ni 3.5620672704574936 4.2357972787391445 4.331373015722523 1.7055680215118754 1.462455562324275 1.2401821513692126
Ni 3.7159020311982935 2.7878250909264115 2.4583815721079687 0.0275092611638623 0.39279128660438806 -0.49520141084219876
Ni 5.101088234797639 4.823064617166359 2.127870691557898 -0.20099547541289256 -0.8639580250948862 0.7676213607446651
Ni 5.718938717129376 3.295709106704701 -0.018884022179426394 -0.5940803819982994 -0.037706256301522155 0.3831483641979853
Ni 6.252373898657113 8.100902466915251 12.441758896079396 -2.1566415887969246 0.3080091598609857 0.04160867667972189
Ni 1.9852928208272984 6.908141655802933 13.820136915129687 0.7102014280642995 1.5820005464701592 -3.083359470727851
Ni 0.5274641434348644 0.2507517519376645 0.7601535506386776 0.9899119980909081 1.5859980976653267 -1.1553591440855457
Ni 8.501085771222577 -0.08318141972293569 7.104443400358788 -0.4050500493670831 -0.2459321880245829 -1.3099256386119376
Ni 8.876200178934557 2.6732270206099775 1.111083525185102 -0.27579195169849274 -0.0010700931357271893 0.738678966678702
Ni 7.229642292647483 0.8512623833249037 4.544126508025886 -1.0273444319057532 0.47886924934107855 0.9358545541248721
Ni 1.2166558827854117 7.77254996831524 2.567561848946048 -0.7423080787908571 -0.026283102066245057 1.202928923444709
Ni 8.042848180062872 4.044545711174366 3.6666095739399838 -0.31797141328002015 0.3084714442093849 -0.9404915386762512
Ni 7.9523817662875835 4.195796237202615 12.48370994289374 0.018923576377380315 0.23770748612194545 0.12230634894110551
Ni 8.716378001148481 7.510177349647298 9.240145051049156 -1.4351959552773734 0.1376730612051629 0.36111735253987487
Ni 6.958734419893721 1.0925125229849424 0.3940411971560163 0.7856432512433825 -1.054181349592939 0.3814396090369947
Ni 2.027304833742256 6.772269146197964 9.035874036207202 0.35462583127826025 -0.5979360082989638 0.16147324894855417
Ni 0.46622142051460636 5.220236014115043 1.050797151096848 -1.9817507808908836 -0.15633438506009206 0.23227963023815482
Ni 6.5277586850678295 2.215953967758479 6.638489502733439 0.6261998882406634 0.7453188405927229 1.2985369371590219
Ni 3.395839102398051 4.347701921327004 -0.03176242847757229 -0.0004175471533928293 0.38293856218002437 1.446054495258432
Ni 6.193509763602561 5.96453200900174 4.921570366746363 1.2944488831325773 -1.1614230908914382 -0.41125566395716273
Ni 5.5761415504249285 2.7589253393522504 9.544339504795817 -0.9557039847506313 0.8763404579196391 -0.6784164223432186
P 0.3952623390518767 6.243747650391273 12.359094323298969 -0.24298364691922023 -0.4212454281800229 -0.07147795343532852
P 4.0830453487405745 6.4794680737315336 12.455449880405114 -0.38594032512082566 0.820909273534528 0.4991233716044242
P 2.645464696286058 8.92066903471004 1.2093026430980438 0.157218073216626 -0.7984290901541411 -0.4538804406062248
P 6.678008275115865 8.151431535080025 5.917364265846883 0.08119415228182791 -0.06944626771728041 0.037423434953780706
P 5.035181150209586 1.3020721195696239 12.54717019398107 -0.5583101663772256 -0.10367844942727306 -0.48962057432031164
P 4.444638021301673 6.380611996558455 8.438486325078228 -2.538728344499615 -0.01634038903123637 -2.0986822386733213
P 5.147122190469454 1.4258697014860198 3.7309879563037107 -0.17681270751910194 -0.9300315196851917 -0.3573164907365459
P 0.2052828701237698 5.907314868605541 3.365917486182271 0.6356314659672085 -0.5210034595069672 0.20572501967807796
Ni 0.6746717980448516 0.44201150897864444 4.690917409291384 0.44093827862326 -0.9695200646981172 0.5954860040965745
Ni 2.114768439576905 6.241272608694746 4.779627635392298 0.11463880509351869 0.6834128471165456 -1.3669084837548846
Ni 6.250463020876705 5.735718043924953 8.980765230962051 1.7113087806503948 -0.4626715565352935 1.0993299211051197
Ni -0.2992461902372044 2.7695534595785163 10.196917005990157 1.136778552869881 -1.5464990111294399 0.12766684192207045
Ni 2.924252665029501 5.7010401619195585 6.956015513794741 -0.49873307814454104 -0.07145044263150276 0.6148183858765992
Ni 0.6496465786559157 0.42386817942457594 9.235323269449928 0.7889190937811768 0.5208815892171222 0.10181722784881819
Ni 1.6155288709004583 1.3055298984103612 11.285243796694207 0.4975657973093173 -0.3447062581717031 -1.5436193755887995
Ni 4.3775207141193615 6.978416461031918 1.350703049139193 -0.31526249898928926 1.5760579557334793 -0.020942920800254256
Ni 5.758457489511802 8.274537561228273 7.982812949911472 -0.0009471944046177235 -0.5806936762787483 0.6476200057876524
Ni 5.7087109712951944 3.3602876762644707 4.668902277377489 0.09850538986676584 -0.13775533650632404 -0.6553934790854842
Ni 0.9089208454941974 7.175100381143854 6.602078181598675 0.4513211645194808 0.6659370589292853 0.517757955986476
Ni 5.182518926497002 4.708275459071885 6.803698535976665 0.8675256878414865 1.0593065866346467 0.9171734327756011
Ni 1.4393277407108893 7.748618498970137 11.122032995644208 -0.8776584054001143 0.28671322659668685 0.11779920509937133
Ni 5.022724046964931 0.5589708782665821 10.396273425169262 -0.0892224219029431 0.4356700882457852 -0.2062821777331286
Ni 8.345749606511456 7.4866189564402745 4.507768873457334 0.39225906825000184 -0.07763728816850499 0.4888122194864033
Ni 7.692975557888273 6.550115955098597 7.016771417851895 -0.7138565083183834 -1.0827805013868708 -0.08062825247602887
Ni 2.4984999961367227 5.653777784817482 2.225796808211178 0.8420817938470853 -1.7538505106673474 2.3435165656480352
Ni 2.4711835432948983 5.572547280314162 11.354883462546654 0.39042407192379214 -0.3727873326786354 -0.25722627288116345
Ni 1.4902935809397562 3.6876665371382735 3.882226653088557 -1.7994770502572106 -0.7509981503656873 -0.8754539415496277
Ni 1.8513402884207373 1.2659292312659176 2.633751015492161 -0.8442145239193718 0.9403478140095355 -0.00658022432067899
Ni 1.1946443906387185 3.725147039888265 8.110532380986703 0.17029753210840348 0.01927581751047648 0.28600900144081065
Ni 3.9412218197623354 2.8529223273122915 6.638116426595359 -0.9677015234321399 -0.34700173907409915 -0.03605843628545403
Ni 4.3805235220600025 7.091167349493958 5.767630612799557 -0.26890010967466593 1.56127976898304 0.048823449260606236
Ni 8.35584996049361 7.607695812374091 0.4043535675776151 -1.2047024704053642 -1.9458522672220615 0.3194212583526692
P 0.1982453802410693 5.7486028198157 8.349309298833814 0.34314508433217034 -0.918559257379534 -0.8806280295513995
P 9.062474364852275 1.8677283402422316 7.796149308903272 -1.3241392111081582 0.8254704105426494 0.27081866685361744
P 2.0544665964780475 3.4719011374762685 10.222753893464866 -0.9134641022448139 0.3453125242971343 1.301112668305998
P 4.437504077588152 6.458166336188991 3.60754434174759 -1.1289526290675589 -1.5593753528714756 -0.4218864041981315
P 6.915930757612594 4.022443224847653 10.564438859321319 0.989133982274303 1.4801362674334897 -0.7304028427128388
P 6.796182416707063 8.265647429840378 10.198781476738754 -0.9423638159982997 -0.4189085525167302 -0.9798003635782028
P 2.5341151181963166 8.54397132826572 5.469123295304111 -0.050992431887467014 0.03537683683739713 0.06353941531454219
P 7.25907890988376 4.389686635987956 1.2124974487585252 -0.5441829829472241 -0.6382825304368104 1.2065896601257478
Ni 2.6444910585598507 1.60371782633394 -0.02652207365025496 0.6783002084803287 0.9736705965313813 1.5939757165541646
Ni 1.8644161520895253 1.2137076713527832 6.920762548571625 -0.6946732505217132 0.424676822459075 -0.9048668474941061
Ni 7.176074018870062 0.9932742702557831 8.856814778823225 0.22052943168076214 0.41368201401046817 0.8688210096141423
Ni 2.941232179021121 1.8643524561635119 8.955500696879666 -0.4962568486899066 0.3872868118463911 0.6777389366602199
Ni 6.541071133604667 2.463048663601164 2.405628606183521 0.43124933347027017 0.13055110544840096 -0.32227775396485786
Ni 4.540218307994052 7.3213735255250425 10.350219450777844 0.0979834559250248 -0.44443266492976363 0.26144493894820137
Ni 7.57369128730084 6.289754307809083 11.149467740920057 -1.3425210560494556 0.4994491303749592 0.48437012455464973
Ni 7.874472549354972 3.9091918683955065 8.387571441590174 -0.8962873333552112 0.3133274867501055 -1.2661166118467873
Ni 3.3510699658285055 8.658341913132107 12.09368158907658 0.9715597208359654 -0.027076801612134015 0.9270570104379001
Ni 0.30322809555485336 4.957199137932959 10.594537004246336 0.6290029049070974 0.6515532794037876 -1.596750193975508
Ni 8.687259863542272 2.5460626540328644 5.501551801179425 0.5314513943131687 -0.09129164572714601 1.2098521329271035
Ni 3.8022737068727093 2.8919133334506055 11.434977449741533 -0.0876422219000168 -0.88481198572576 -0.4930712518730734
Ni 1.1490290081949925 3.464849088524765 12.427628409864184 0.7473261008307387 0.14814824970487392 0.07610079691932055
Ni 3.1258138731904768 8.370736608344783 7.63949099875647 0.7658843234489003 -0.4529988093322198 -0.04764922644684697
Ni 5.97696181399239 8.025732174801224 3.8066204988522365 -0.6588097038558848 1.2099338940076325 -0.9784654468168633
Ni 3.5386453685204993 8.599459579241552 3.2107232723919807 0.28461932018213565 -0.3916851980244028 1.1177665305437523
Ni 3.5512844601251947 4.34388016576619 8.938600347824663 0.8926587354636885 0.3770625630152216 0.13287641114746795
Ni 5.077420648574592 4.866514338125623 11.446803963318654 0.165123958327264 -0.22198956116605637 -1.98284349973443
Ni 8.159129642709667 -0.07873180431998696 2.553431362730835 -0.8661136379853084 -0.06690833178677509 -0.32064741745028646
Ni 4.6490200490432505 0.8087453527108383 1.3191835751222725 0.493654378070053 -0.672596473227332 0.5529167632757962
Ni 6.002795061699898 5.840543339307303 -0.0019636544048186847 1.2573141830638088 0.22290873054621613 0.783540860188399
Ni 8.291253192097837 8.699935352818974 11.59513903581908 1.9847162912771108 1.2997355854528132 -0.22201630063893377
Ni 0.1840857758882502 4.904176829235654 5.621027159544899 -0.5850013025151667 1.1539650919514965 0.510207654443044
Ni 7.052613115419738 6.200689204406093 2.4433183955475575 1.2957771150256974 0.2605188275895062 0.04082628998774259
P 8.868483872468913 1.890322195141049 3.3732024802346245 -0.27280458693539467 0.7083690028412509 -0.5829691025764863
P 1.7859700694947993 3.5587004857967757 1.408249588467063 2.074266528833118 -0.889836692633861 -0.09377533138094818
P 4.7606426096730505 1.4027389809250879 8.065011632490197 2.140762198562507 -0.5671380490815007 -0.040130549472298625
P 8.941770585056538 1.6151921924343864 12.358122505456363 -1.1667673859224874 0.15323826263327156 0.9714535342754045
P 6.325515020556708 8.053694686321185 1.3949052919672176 1.0607320062272636 0.802491947369605 -0.03853595129166912
P 2.0228552183393074 3.9144695308366315 6.133833960462238 1.1748041401840348 -0.7968985124422276 -1.668238946044114
P 7.178276078026531 4.3000573686688455 6.0378915169333816 0.5215215367939663 -0.12143628763132636 0.17586577022480035
P 2.7769330875780893 9.002509200219489 9.755774491430696 -0.12764010244919308 -1.2534372166069059 1.3317638175329516
