# total energy = -381174.1812414686 ev
CRYSTAL
PRIMVEC
9.15739606754087 0.00000000000000 0.00000000000000
0.00000000000000 9.15739606754087 0.00000000000000
0.00000000000000 0.00000000000000 13.40277478862575
PRIMCOORD
 96 1
Ni 0.4489624128940031 8.885293372412322 7.216120730304232 -0.43988515476839724 -1.7343803177578776 2.5602613334753843
Ni 6.487951137397142 8.364072692972483 10.144547076254115 -0.2376113268637134 -1.2523684090227594 -0.36622022098407897
Ni 2.5442726577568826 2.552779878867948 4.812601831522191 1.1894671415128482 -1.1734460834942437 0.13200686405832104
Ni 6.167945925635921 6.651319086397577 6.267807331681309 1.6320637816751373 0.4722257758826319 0.06077805051932113
Ni 0.5531607618007489 5.999660454852233 6.005140240764893 1.5572994441790535 -0.22865617455295456 -1.1053987530070188
Ni 0.33227612272874296 4.622305643125418 10.489025429478547 -0.4004320909790975 0.64509184004916 0.33498234601571986
Ni 6.829805896597548 2.8502578958678986 2.8305722411612715 -1.7124938020974316 -0.04329660590510608 0.670349071954052
Ni 7.816359666197538 1.0373773187565163 9.34170715863041 -0.12706648933391018 0.48866978037126807 -0.7900393234285491
Ni 4.536564942088923 3.743864093587037 4.110496935545592 0.8836426480080073 -1.802793516224953 2.3855229919868077
Ni 3.105776723275922 0.8538695081957308 7.1675224284351 -0.2958738100500323 -0.7819596317442081 -0.1491800334034979
Ni 1.0898766714257704 1.020720014987918 5.689852919548796 0.4745608517737117 1.2482937247327535 -1.766695999171448
Ni 8.290383125393644 8.681394787634089 2.717895059071818 -0.34771419176009144 1.0088859680902496 0.5212489998588701
Ni 7.374661815744233 0.7627607414807573 11.931391344363366 1.0588787550686085 -0.15942330839806093 0.3066683295623751
Ni 3.0831579545522074 0.4869939952366996 10.417132543042863 0.0006967689567084775 0.3151246878598444 0.30263221181978844
Ni 3.7722794941334694 7.248637728628538 10.243714351664178 -0.40365136924734357 0.27824067034930144 1.1813869356078752
Ni 3.723873497585471 2.3577273388618236 8.801803559372706 -0.08794098408735822 1.1200920933531355 0.7506821617871653
Ni 0.9556567146713212 4.088667534378145 4.19358107593158 -0.6587479973800139 -0.1363725972261845 2.2365041667515224
Ni 6.082827927544046 8.70771314444055 3.6770379944933893 -0.23224594878674196 1.4172632820583526 1.0485493481181425
Ni 4.376246406037879 3.001327461712079 6.468098818078867 -0.13281856132633899 -0.30621992917104685 0.18923679221506765
Ni 8.656147846188226 6.740136672572197 1.5837258934910419 1.7118116884287422 0.6772774236427691 -1.5369589328494886
Ni 1.443581101366454 0.022364193108120052 3.314640448297879 0.0783512835163941 0.9983182198767323 0.6440387161942973
Ni 5.725918408917816 1.5105949270831118 7.8589049291491095 0.4410416369703436 0.025968399039303664 0.031037071811462674
Ni 8.100779236152947 6.315984393323198 7.4495574124084625 -0.6785195235799862 -0.12894108064880375 0.48362758996167027
Ni 3.8294582762836216 0.44404031241262787 4.843695770470115 -1.7656439037578497 0.2933705840122044 -0.6862603438676698
P 6.247267291905078 1.0341081282972586 1.6333022052790775 1.5892346023247534 0.3821255793604258 0.45434709582999816
Ni 4.19577244085287 6.665311587859049 0.7601801872190801 -0.8531676193476017 0.9705364217777738 0.6596635672157478
P 2.13397551902569 3.9341639449423083 12.039994400863677 -0.5906219911360538 0.1556892952769254 -0.24200302817350577
Ni 8.343981365612228 2.0715403914312414 4.370872845921654 0.9854148815515028 -0.4395038601695786 -0.41099161166249865
P -0.014658244168441475 3.2796939927499276 6.057022384927274 -0.32069395441750576 0.28045310461958795 0.4733619463696041
P 2.1088293089385157 8.389502782343234 8.865399844810947 0.21016325795508967 0.6826651703172437 -0.2693608513611684
P 4.367125639378438 7.281851604807047 5.138356056645659 -0.5359359124470835 1.1653874748558253 -1.0606538446911604
Ni 1.1491708121083832 6.958970970625077 10.80289152279751 1.6038726639529024 -1.0372670903361039 1.2584439257928777
Ni 7.579109844297131 6.34667998553449 9.69923938020126 -0.11135833457003401 -1.4974642171889758 0.1778195515170615
Ni 5.440830349036564 6.656557117049385 8.444847338025628 0.701210794529915 -1.4922615899421139 0.5061633091703411
Ni 2.9786262764221645 6.562428241053002 7.90881640163969 -0.7938198735169039 -0.6576329099389642 1.5613602445119885
Ni 2.780872304523936 1.093081760111317 1.4593876830239454 -0.18622808729573087 -1.0073281366848263 0.5297441818140748
Ni 7.125571480499792 8.264156342549626 0.4516436985143689 0.30092885597543656 0.9131763958010659 0.20907850953134313
Ni 5.553704415145273 5.648245373972655 4.399568462793166 0.39647284922103326 1.1457959258771429 -2.607500983188638
Ni 0.16923142981573625 4.163446832110071 2.165433006604518 1.1632303193035063 -0.3352723664523129 -2.250392751808157
Ni 0.9796582502279434 6.120803649769652 3.2749678605481827 0.0008854879287468622 1.6507649576290668 0.24506495492828115
Ni 0.6937771598319248 0.22158151692620626 11.529750692302022 0.026639199854083157 0.21805474488802448 -0.39811475569983046
Ni 7.561976355923823 5.13828829191345 2.740827010747092 -2.17382478544443 -0.583710351617885 1.9663583575952133
Ni 1.8947019125552664 4.0974861069615205 6.419111326869348 1.0670967721030267 0.22120846002565772 1.6355751372625056
Ni 3.121472500438856 5.954148195517471 12.232712720567099 -0.5609835994443306 0.44796536067337045 -2.3435836714405447
Ni 1.7376708817559696 2.568924368446859 10.378010314807455 -0.7976518456684843 -0.6218503530227162 0.10665964354278405
Ni 9.105089197070868 2.3709597764350088 12.515028836605165 -0.9312409666122609 0.408642908924664 -0.8534432416064915
Ni 7.863437840290096 6.460103495417864 4.473671944682253 0.5956806366058838 1.9003118595881014 0.6661625446765302
Ni 6.384014690022987 4.397885333363441 7.518930183397683 -1.3373364265247227 0.23137717302854344 -0.8154209967264472
Ni 1.4249366426128167 2.8029691016617195 0.7342345364397678 -0.10020283217384678 0.38529009313133644 0.9217587381534385
Ni 4.886331691644505 4.84276080031356 13.16176628340876 1.3851579168833759 -0.9971586523509924 -0.5847981853654252
Ni 0.3986278686969296 5.090926238537315 13.074514611991937 -0.5973932484216163 -1.656179957997051 -0.1073517845138022
Ni 7.374652658347989 3.8054933703119773 0.6191654424512721 0.3394308687053767 -0.4124373429700897 -0.2558129374734046
Ni 2.500848284765848 5.098691710552582 9.961974235849885 1.6181142614735813 -0.6269509074740752 -0.9855904878974187
Ni 7.977090285079581 8.94393733796158 5.464016876327434 -1.3844356940053706 -0.47878543137802054 -0.480739726890914
Ni 3.973275184302222 3.1587431031536415 11.08132032412982 0.6799513709305065 0.2960725563243998 0.2813517051744574
Ni 1.9424852061586446 7.690317264289356 1.6829197253502128 -0.4632161161848538 -1.6288681575559754 -1.684179014313138
P 0.7458186426889578 5.7570718709413295 8.47058053721207 0.454384891046469 -0.6083474334402749 0.7976011949362071
Ni 4.62146316267093 8.705542841530622 8.689099820834143 -0.778470130533711 1.827852001855478 -1.0348944763388692
P 4.269736730319042 4.541226056777332 8.391624551053066 0.27081506730919164 -0.3235890165771137 0.5494766272459957
Ni 4.248271793522124 5.394081841208806 6.3246353855553 0.2137951982807221 -1.2726418145598146 1.5093542837583425
P 3.24355890716945 5.771705390139911 2.4627599265664357 -0.36021618088184415 0.3007195681781079 0.5547430178512575
P 4.710390637600484 8.821612838928633 11.984145272648215 -0.03540511897217128 -0.004949116475159218 -0.6335414162073993
P 0.7173171626178282 7.1050863851010275 13.009993429533008 0.23445298374038975 2.16702884556852 0.14845755341517658
Ni 5.15955176599299 5.305154366279253 10.537851750514164 -0.3236828618425006 -0.35799500486080926 -0.2551135974135348
Ni 5.3319031207092005 8.842326869233508 6.21421000720235 1.5419859537504346 -0.3815859048068719 2.485918914008067
Ni 8.082922313476331 7.458085695530889 11.677087703436976 0.8987972442612585 0.2956357258972973 1.0480639238412917
Ni 7.4296153506069915 4.987447660975381 11.630123996797476 0.3597186724201353 0.8339463092241445 0.5841338123085489
Ni 3.6890112900829677 8.053664432475411 2.9263888252855006 1.315189201003722 0.017781492353137116 1.5414910163918873
Ni 5.8878120171229 7.030398661331546 2.2939515684571923 0.6512881986678589 -0.8708244131974164 0.16287424306113885
Ni 5.2574351744495855 4.555594011484825 2.1630475048828472 -0.6031334933395032 0.8790128625454798 -1.362566918956737
Ni 6.155656699875911 3.305902460801455 12.156115679680658 -0.3460609724273847 -2.7983881665229355 -1.164379602416601
Ni 7.219059338759066 4.234352551230607 5.154117767061552 0.6719372423767782 -0.9469167254763046 0.553286230800073
Ni 2.589537667393046 8.28413778115495 12.760849065650724 0.9070664262485862 0.5313464933041883 -0.32613209471394156
Ni 5.997865605188327 1.5614093188433928 5.186471763732709 0.1738767648192296 1.6686981450687197 -0.9569460846878488
Ni 1.2816233913876596 2.2002109660615727 8.127723958862527 -0.7263770093828974 -0.3079744499683083 -0.9224369951673855
Ni 8.57034304337802 1.953135257990904 1.6849700663693383 -0.24059560630301793 -1.921805253575187 -0.6449524862578183
Ni 9.1091367662109 8.203772471713927 9.542400654723096 -0.9674230729597726 0.8525996626592736 -1.7936082501812596
Ni 4.583835421502614 1.5766563835903504 2.9272596936683453 0.24146438206121643 -0.329825998625761 0.49359267159418224
Ni 2.8695433723586454 5.6758366088570895 4.594189689436178 -0.23517726350092397 -0.1568195522266267 -0.6177751545120781
Ni 2.9383612051354544 3.4248387232239685 2.656671455000506 -0.48712274759912233 0.5307893352491374 -1.4775744202435843
Ni 5.616890449231764 1.1986482240169791 10.590913367312826 -2.1399155342914953 1.1325807127384493 -0.002107533261306048
Ni 6.225664994164494 3.3472389474487616 9.680007016608732 0.22130513350452208 -0.5191646065260156 0.016621410606764923
Ni 4.625611463169653 2.678181263039022 0.7286320414174323 0.22991447244008792 -0.8016113445368646 -0.38019005290060975
Ni 2.414393306822288 7.681040821893759 6.061431671218962 0.49297843504895095 1.407412100295886 -0.3897702403898771
Ni 0.6688260022847563 0.05789397479684129 0.5690003100847205 -1.2748743034347592 0.5706162374380882 -0.21808919767038568
Ni 5.886795546139769 6.895391168500077 12.234629363601057 -0.6985964968355194 0.16331107348824134 0.012388860582656083
Ni 8.333074906685125 3.808909079111145 8.473770058324002 1.59255543916787 0.06307507408361396 -0.5856245379214623
Ni 4.812120152479735 8.852592310423502 0.8570095793679422 -0.7934848587749883 1.0658125060739645 -0.7539315219623983
P 1.1344182467586243 2.280081776105395 2.980911046785147 -0.0023736424384991376 -1.363102222634917 -0.03177009332274529
Ni 2.553604044529946 1.7652254870554263 12.564069440712904 0.8203878538134194 -1.063592358494194 -0.7923090932993323
P 8.518237458747276 2.7400944190475385 10.392913977195247 -0.5909750036000984 -0.6081540864825461 0.5199503356521046
Ni 2.611112492944897 4.783356770876014 0.6567638799516077 -0.07217883615709506 -0.5246924783227803 1.257418569852157
P 7.158208440714901 8.241610832995867 7.739780940103584 -0.3770499646097313 1.280915881643149 0.42278603319426544
P 0.6505487551205205 7.959782806177628 4.942032470040808 -1.2751272999858299 -0.3617871249133898 -0.8386933369908265
P 6.903074223949144 5.821933708540549 0.8564711244687703 -1.6345335833718688 0.658072311469228 -2.337594286626329
Ni 7.830077445771678 1.8051425772848486 6.763053972413481 0.23831760890211862 0.052749523787889795 1.1201085484133675
