# total energy = -340896.6209840015 ev
CRYSTAL
PRIMVEC
9.02656017806681 0.00000000000000 0.00000000000000
0.00000000000000 9.02656017806681 0.00000000000000
0.00000000000000 0.00000000000000 13.21128323929254
PRIMCOORD
 96 1
Ni 6.403586340601793 1.8377535288582176 11.333973040079245 0.3423444428077459 0.06216541778515101 0.16749220144912447
Ni 4.5496933218293405 0.27939731734747897 6.024504203976997 0.2758634283663765 -0.06763672531236738 -1.1215517086177975
Ni 2.620943038035223 1.6117194310157534 4.657994895621269 0.3348180525237137 -0.7312394796815214 0.9009945090228935
Ni 3.121709526833848 4.149139706088782 4.543017277790993 0.6276633601600674 0.4632269148181313 1.5553448915558439
Ni 5.29199251259948 4.392766570062589 2.8466223920557465 -0.22348285788213124 -0.3539658290967581 -1.4430496469938374
Ni 7.281329069494457 6.093018505037405 2.586743206163272 -0.40696937787698295 -0.6273129187991842 -0.4699094690446294
Ni 4.996968413965915 4.562122895437787 11.551510436659813 0.17842993140755078 -0.1845059623983016 -0.4449168036550337
Ni 5.60275893249167 7.825847296332394 12.482311287317502 -0.21619043798577603 0.056214342408038666 0.08058171550880962
Ni 1.8697346321949793 6.532341197501473 0.34921505372310724 0.4877593527418567 0.3976622415434442 -0.8374044429760739
Ni 2.8273894999079516 1.7499521762878871 0.3939218018479487 0.0861646089132258 -0.8175472990408307 -0.2778794303551408
Ni 0.6495449645331746 8.915001095292881 4.735822801655672 -0.35472636141186653 0.5312927572481172 -0.20476754086081508
Ni 8.771578077816786 2.353820037458088 1.3617532137048287 -0.47004008108522277 0.31925542219876635 0.3022617158542472
Ni 6.848704084813588 0.7027312634552371 4.818670377903334 -0.31491848538630923 0.07471574364633583 -0.6688632314371449
Ni 0.9957018196081038 7.535300371634769 2.365902991148912 -0.5910472515989305 -0.3878653100576804 0.8236300148998008
Ni 7.667377002744986 4.179802931613755 4.014393921081675 0.30914404479637725 -1.3013967752053202 -0.4957475131536559
Ni 7.5238907993464075 3.804343153659308 12.512525892792846 0.4736851340369777 0.00445495044756007 0.2866152675662419
Ni 7.959972956643132 8.855516062555298 6.829242820688819 -0.4369335283392411 0.4280655364256499 0.5056660578189485
Ni 7.002570832620091 0.5248899713466061 0.4653913987684901 -0.07751130411360199 0.46479271664335436 -0.4031818858100927
Ni 1.7660555599607017 6.405635369802313 9.274624675761013 0.837322681895545 0.2997512907275677 -1.0455897512691863
Ni 0.2237530860408271 5.090158623068011 1.3448952095863596 -1.2698359696799033 -1.3471634399174737 -0.20324570489964996
Ni 6.2539801292827155 1.8668010000796962 6.896567421094474 0.5701315844921859 0.22997952135006844 1.030341052640232
Ni 3.675236260905794 4.264787997353413 0.36757327217253033 -1.668942656979358 0.21762099978471552 0.6133382017866469
Ni 5.795439889823456 5.48114408483257 4.760302833337665 -0.17007590301590061 1.4868023665997556 1.300110966514361
Ni 5.448449883227785 2.860787773220404 9.04488066161276 -0.9254521278446256 -0.37888753203910236 0.11396131941051985
P 0.12942553033403628 5.66443741939545 12.363145345482637 0.909345709201066 -1.0864170696981934 -0.2254260976514311
P 3.9092949709036007 6.29846301871076 12.570708392871245 -0.0817975901937817 -1.096453627998589 0.43538726689804375
P 2.611501255904189 8.621403193195363 1.28630831960407 0.1328653554038744 0.1252050106451392 0.8520080518218617
P 6.217585037932498 7.750313039284125 5.788629350035822 -0.37066514412931006 -0.167935202523814 0.4782537272442667
P 4.746237646992945 1.1060605465048716 12.56375884405415 0.4006238952749294 -1.0155474392708252 0.02921853054548516
P 3.8416950604071265 6.131074483492891 8.297597906870783 0.24312788580656838 -0.17276142026786373 -0.9163601928456863
P 4.686220047194433 1.1917857901936173 3.7384104488603502 0.4393408522291531 -0.9601409374760626 0.17244620302029012
P 0.1870510916385485 5.783849786327999 3.5977495588527977 0.6544318865031632 -0.8971242274342097 -0.42705714976579356
Ni 1.3880322388655157 0.9849872924670547 2.564177707932515 0.4380095350122392 0.4025694490370745 0.2534899457671828
Ni 1.9299327632005858 6.540076959725465 4.636816779717033 -0.23631780486327042 0.20810226166100287 0.7430778670773461
Ni 6.034526393938839 5.684467356822567 9.088042062604874 -0.7985558455399925 -0.12615888991797627 0.6045779390955137
Ni 8.597852897229906 2.489516319270546 10.393792690556968 0.2835001189760279 -0.630562021864101 -0.15826065554852745
Ni 2.2692321403740365 5.263937963017019 6.934734426242324 -0.14071570468622863 -0.3280097713526286 0.3977673996627408
Ni 0.5406963811837507 0.17753438905657057 9.239707232340862 -0.32786784645812567 -0.49614911946744866 0.19812201051983944
Ni 1.5357518990704568 0.9791290547968436 11.53202389816605 -0.6414043638952438 1.4607432076188585 -1.0539700049130816
Ni 4.006303415035743 6.792883835580019 1.593333230229231 0.9000072054089597 1.2711246065843398 0.06041166831883789
Ni 5.389714054999644 7.787899636601165 7.88462645205024 0.7499010606467665 0.4541570913063791 0.7365040705145703
Ni 5.3587529529829645 2.891243387857218 4.880882334524079 -0.8829751896273375 0.15704220976039407 -0.4559190683028084
Ni 0.7805997890112372 7.458484343016129 6.815872679491412 0.29725783488175256 -0.22147611186474758 0.05735436954975284
Ni 4.804296483194484 4.505589547936195 7.058682639753118 0.5058984855447287 -0.15377485186303194 0.05620637198823868
Ni 8.02836720445082 7.272329588820804 9.132141323217843 1.3029232391521754 -0.31941071682970795 -0.38251458726872833
Ni 4.651567081992675 0.2708419434432784 10.41493018693961 -0.034469751642095474 -1.1052146620206706 -0.9396782987463363
Ni 7.951731707039275 7.204684545522556 4.630858347226884 0.3444098099772068 0.46331716053909233 0.6607552576180297
Ni 7.1842845191208955 6.106459053405578 6.910188500669743 -0.10959275802917899 -0.4042836035147037 0.20883014096596292
Ni 2.265612489671795 5.305866335864679 2.45736461394308 0.03991509102738287 -0.6118083954056818 0.40796079525597484
Ni 2.2775094962193116 5.141131609391096 11.492680732203983 0.10454413986167803 -0.3343670810292242 0.008831739359017047
Ni 1.0542841963102159 3.247133582962639 3.7018285077107898 -0.6512596594227688 0.6880572878670924 0.010286469527672606
Ni 3.544278923279562 2.7237916667168665 2.6468149653239124 0.5032139967340302 0.06185611407484831 -0.5805715488785872
Ni 1.170726824886063 3.4817338865817287 8.269074878805913 -0.792262556332113 0.07837493766547793 0.3043695062258694
Ni 3.5213424334182264 2.4080786917502905 6.9317358028924865 0.5942269348784928 1.0026003921918538 -0.5604269556099123
Ni 3.9430091738284685 6.690441402114339 6.087600763512503 0.7884357263868551 1.26334701952145 -0.8151695428372735
Ni 0.9887062353331982 7.399992231917564 11.245457686584857 -0.8038440905221251 0.2030454159633858 0.9035473573517342
P 0.10293438100501333 5.7374442395444 7.978175015598418 0.23672815292781163 -1.1518624437861968 0.32607501622376106
P 8.438588266331282 1.7752265452810942 8.211037706349225 -0.07736346568182806 -0.35290473482209544 -0.8756539733755758
P 1.822020234159946 3.137957335472339 10.451935473769806 -0.02755734079297835 0.30417281683403097 0.5613612944987235
P 3.879949623190417 6.05350925036481 3.699661230569622 0.8644599044319693 0.3461910702473457 0.5914424301548201
P 6.736702523932262 3.9350658007163175 10.371029510654443 0.6250423775974526 0.46592760157874596 1.11980155869591
P 6.289427431795688 7.636063864874473 10.265497285579341 -1.0266636037886447 0.268406457867699 0.18411978270347645
P 2.49130357822078 8.634663210356441 5.853668425359663 -0.9955707390385821 -0.47923254621776823 -1.0159922401177275
P 7.080632526567682 3.9182312656547706 1.5666597443810426 -0.015166166217477108 0.752803321895226 0.2256762659890242
Ni 5.471413452770185 2.7913644975322764 0.5077304801122894 -0.06397084642500596 0.2725353924344081 -0.18515953682190048
Ni 1.3072716033718645 1.209586167213119 7.117182874756002 -0.10987557937692044 -0.23683768192248247 -0.8091112524583355
Ni 6.954296787843067 0.46128070318295206 9.172633570313067 -0.7543177016572234 0.6610961858972163 -0.08653381932718646
Ni 2.772508012951273 1.6393948650633154 9.141269883704567 -0.37775804642034944 -0.7146116413168532 0.05715639460633382
Ni 6.5739987735384915 1.9639538691775134 2.5402392698718064 0.18849682872524956 0.43135294892767 1.061696684133378
Ni 4.115560901569235 6.715345682133002 10.426199847542474 0.1897723530035635 0.9789354444747465 -0.2503783967213946
Ni 8.16814349154361 7.159642009352519 0.3263724400894608 -0.32056797036260276 0.4024601771527198 0.5757697566145697
Ni 7.541312060831011 3.865940401519896 8.369414123708944 1.1207888623098439 -0.02772343405719742 -1.4680549107889234
Ni 3.135899279711463 8.427277986206821 12.319997484331056 0.5235539938429629 -0.22407446871954312 0.33712587472128386
Ni 0.18053030443830106 4.793681248217337 10.184089445708258 -0.49347465795907913 0.6389664438777125 0.2384939865789828
Ni 8.394692103326294 2.4039806333492493 5.929448204849581 1.145680483345201 0.3820782710622581 -0.28959363346827544
Ni 3.9024618647150806 2.4079342667846158 11.086472879057228 -0.750587802301146 1.3124082958244754 0.8962955608853274
Ni 0.9715557706592363 3.246781547108805 12.699055249242893 0.3414011050578701 0.6417815447290044 -1.1168203645803991
Ni 2.9935504229175787 8.341056281698567 7.944328122236337 -0.014587153785555524 0.05256491858090948 0.7511529307759967
Ni 5.591340333642953 7.90919855464785 3.6053724890723564 0.2536771220773244 -0.12290464464673671 -0.05438911627384181
Ni 3.2619461685047293 8.332869191456838 3.595332245989805 -0.4813717040479581 0.5687210772979044 -0.05540238802970459
Ni 3.4867887603803704 4.305245040863254 9.419908969982252 -0.19496546716872873 -0.14111448278654404 -0.3321091382329828
Ni 7.24250583340882 5.996389176440162 11.414588347951184 -0.44589870795232883 -0.06020263763182536 -0.22056337024249112
Ni 0.6920997806694515 9.041544444905657 0.3710349580685642 -0.545924391118363 -0.12326742730279416 -0.1801785386675413
Ni 4.8319809438024 0.6159544254851668 1.5617321450834027 -1.189820668197525 -1.4780338763785061 0.301461588550455
Ni 5.766500737326234 5.486280197674405 0.5149399938676017 1.1848862070103852 0.5354327475584197 -0.1188998943627178
Ni 7.908629881345503 8.573138174978691 11.504940606477758 0.16229857306332693 0.6053914361357445 -0.41851594506400175
Ni 0.16057709277419951 5.053555920829634 5.77355589689948 -0.23188599434416193 -0.6242245096818475 0.04285514749231329
Ni 7.967672612625705 8.841831797057546 2.645744415265843 0.24451885261682402 -0.16458736909750363 0.04277595751494569
P 8.50018551419187 1.7484357141482947 3.6629601388233786 -0.18461883382708205 -0.6688652883196738 0.2616136033155817
P 1.8148350921175918 3.327867138775226 1.5520619909753945 -0.31633567744881 0.28861789981856745 -0.49563078507013353
P 4.672960030033353 1.05033056287485 8.12805743966435 0.5669130775548882 -1.394360152207934 1.0429983363929265
P 8.502830296375802 1.5142235526244572 12.42159232377943 -0.16373504839953734 0.17725699414537213 -0.1535118280096324
P 6.346737063487786 7.67458019790805 1.5041309554918483 -0.5610049396005693 0.37024425454180754 -0.6705473040077872
P 1.6911441355769068 3.2318877225235223 6.112412069959514 -0.4033081269753119 0.13955408027795965 -1.3738987990297888
P 6.780725058782216 3.934127038439427 6.113891523201652 0.33211505177025386 1.03840300371276 0.26654935005430225
P 2.4275219027543504 8.557450013082194 10.107517134219195 0.6085466939352746 -0.22092075358190985 0.1582395725026049
