# total energy = -340867.2437093569 ev
CRYSTAL
PRIMVEC
9.37635990920787 0.00000000000000 0.00000000000000

0.00000000000000 9.37635990920787 0.00000000000000

0.00000000000000 0.00000000000000 13.72325050411115

PRIMCOORD
 96 1
Ni 9.126714141353846 8.325729236009765 6.38103660014946 0.4140612517267579 0.4716549909808264 0.5039058805947322
Ni 2.7910422447962158 7.011454270575656 4.860748009516254 -1.1887096945215334 -0.7679244938073807 -0.31403865388451724
Ni 4.237711409460752 2.0302162881280506 10.224096091407056 0.17330700835868865 -1.1347797772722972 -0.9846193822334011
Ni 7.966173969870306 9.324996020328763 10.937128867316202 -0.8382503359161371 1.2209628981282843 -0.8217551664745912
Ni 0.9770823172241532 8.194872759773235 10.758849576529549 -0.07257170072013952 1.4316930843304374 -2.6665376255368205
Ni 5.028532340869578 6.047498856957919 5.5608526606450255 1.0710195041962005 2.622217463463206 1.6418195755103209
Ni 1.164600135241809 2.120698159415134 3.787933059562451 0.6480884607836387 1.5793160576594607 0.5957783385260127
Ni 3.1209025797060175 6.930873835151698 8.511063299848896 -1.5760772390071887 -0.07489674930889037 -0.825481980506875
Ni 2.835654964338593 0.478244040368815 0.6519889235954244 1.2363656058365997 -1.3104537432012657 -0.28847828891690963
Ni 4.123835520675092 0.7698413265378572 5.452906381745578 1.0470678784766094 1.128828959005501 0.053731428085184885
Ni 0.7329931704786751 0.8866492030076082 1.7092859982144994 1.253411505575293 -0.8710948932499836 1.6103050498418074
Ni 7.635704171578778 2.5075011268976253 2.947671520992002 1.423724464302664 2.728530265189533 -0.02635277896191591
Ni 1.3878793892272299 4.967014044754081 5.0843132424731 0.39162426287948043 -0.5621269690201545 0.3700264821040466
Ni 9.160440907262617 0.3800060443222836 4.263841448725295 -0.4401939442580676 -0.23189653586712322 0.07966537434212731
Ni 2.0763010961462904 -0.017874154532079453 6.491179760131039 -0.4225842015961045 -1.2892267155016894 -0.23685953629935333
Ni 0.3697989391323231 1.5475494188798453 6.572613444289415 -0.5502299604722524 1.0141698421970085 0.0729193138675454
Ni 3.7324006314914793 0.06303914166189822 8.125207344698012 -0.39060199226255315 -0.7735634372607129 1.9335194566883214
Ni 0.3007289228992485 0.8265082941348122 12.271097001067854 1.6604299915226564 -0.7167050335107721 1.1095351437728955
Ni 8.491737684832335 7.349434533001998 9.462153410296374 -0.9068591953337864 -0.806728611158772 -0.42001618375861216
Ni 3.252237250288212 7.066952943751639 2.4326655870734184 1.4623660879342624 0.05051574936136461 -0.628450117727421
Ni 8.848789462926858 3.953964011648347 6.071783628629788 -0.40863776671834146 -0.2905549689402802 0.7043161729281161
Ni 1.0166411788780603 0.7954669176495255 8.94294780485971 0.515776406780073 0.12492064663550098 1.0192616548976188
Ni 7.943614448386708 4.8225993523640645 8.539484921428732 -2.480031859099671 2.2050883714444027 -0.6652053229695833
Ni 5.808514200443392 9.343955019680315 7.313463066576529 1.7321326593742814 -0.10737698132478281 -1.0447328025855296
P 2.470314484252592 2.0341637355696944 5.701928431339152 -1.2531865340486803 0.3240374169684419 -1.0226722232410643
P 2.8089885972981308 5.503463713349717 11.234374472579892 -0.10178534616961826 0.015587570025611864 0.37522525269616663
P 9.066133481210235 4.167463722446988 3.826769941518005 0.4193335558692907 -0.7790152044039036 -0.008943582346532985
P 6.791175451700273 5.008579447387826 6.346303750842854 1.0934492939546268 -0.8878548863171419 0.2910213670537375
P 0.9328165229913741 8.109576015410685 8.44715496964106 -0.17327641223106932 -1.1939120646580792 -0.9321218265553173
P 8.48872787336258 8.045676123926594 12.50705496866513 1.4503376960148182 -1.3903841982793217 -0.7351809808277726
P 9.032144177229336 5.260409716717202 0.2476240343594917 -0.15136469975964256 0.29964998926301295 -0.6353085354101511
P 6.165040902393657 6.828362094345306 3.6361944925960263 0.38047390268961573 -1.020255643379772 -0.1240906945350379
Ni 5.287479267225576 5.506557912056945 1.7350850519809669 0.5512272913885152 0.5698793592720636 0.13501993985303196
Ni 4.52152444179119 6.615181179777106 13.255219089168934 0.12679009574407196 0.728403552894623 0.06393459387043182
Ni 3.8706738082656362 7.500722097065944 10.79223879348844 -1.145174747353376 -0.9578505987799891 0.4766732701310242
Ni 6.799679809965286 8.033843157961382 1.9987089065647363 -0.9666255167591417 2.1336741813674736 1.7728491632570373
Ni 0.5986289980713143 6.123231714407221 7.258131292603541 0.28338441933376995 0.36892964949544205 -0.4404950204382543
Ni 7.570763504165894 3.972472945733394 1.1454976775865577 -0.867240809611216 1.1345460639949363 -0.7483445147929241
Ni 1.3541713760378968 5.822438094625912 2.8914883735565406 -0.21253175818726622 0.8496578064221303 0.23107532551740848
Ni 8.162880620412455 5.741107550424444 2.6875891174740496 -0.348328942525955 0.9786670213047081 -1.0898795743254972
Ni 7.355847963049704 0.17582549744822634 13.42260117469032 0.31355811470367284 -1.2765748310656337 0.41671720129236617
Ni 4.049987311529281 4.170876717384656 13.063340326246033 -0.567800365255848 0.29070357870300256 0.8500504138748586
Ni 3.2711868732800458 4.318723157431778 9.14387006673146 1.2368685136149473 0.6551587373668588 -0.4634909671127953
Ni 9.064361349223368 2.9609418829021172 8.61854451130629 1.2964368600968834 -2.317405984603912 2.2769208800056724
Ni 8.546101818482338 6.183606094637017 5.124467502969155 0.056026137656632544 -0.030017115187380566 -0.3039280478130766
Ni 2.966933376762474 2.0952413427784053 12.179412142828841 -0.12216288138470574 -1.2075890479245397 0.8553062629571594
Ni 5.208670963788484 5.465086273020387 7.982937963411673 0.2716002822146483 -3.016446768065702 -0.9103435543379611
Ni 5.325594169482777 7.379138840591374 8.916379889596294 1.613011650139693 2.071318759058704 0.6482902923817997
Ni 8.01629998892738 0.34083630159670947 8.621563699135764 -0.12402358874252833 -0.31197302960474016 -1.5137207882571544
Ni 0.7927890293138166 3.915764722153676 1.7272904841466714 0.06129098559999767 -0.8927281552490431 -0.6092550328562087
Ni 7.2840625530420455 2.229342039477666 12.407108599877821 0.4050135397021928 1.248347460788824 -1.7928582593891123
Ni 6.345507697902724 4.723228692063494 4.034401926404578 0.7729651415550817 -0.9354588613483502 -0.6002322605323082
Ni 8.768555952812498 4.132152351745728 10.94239838147821 -2.2025231818203874 2.111252619139164 0.3091263041845644
Ni 0.5628403706603643 6.2268779947395965 11.829523903559535 -0.5764310443476525 -0.49526388864901805 0.6880380045933828
Ni 9.25614541091311 8.13399205611862 2.357777539634786 -0.3613608360092486 -0.915675765184152 0.22703946488513804
Ni 4.713120976286554 8.348119983018425 4.164361085016014 0.5231793841123634 -0.6975096915292439 -0.7863114809550007
P 1.277875937005462 3.786408463472163 7.622057817643937 1.01614084988045 2.2110229917612823 -0.8786714200456609
P 0.7772795927028358 7.592685433188609 4.321698276370575 -0.8125845557189167 0.48625371473060774 0.6997205831376336
P 3.204089643131821 4.8064720136476105 1.7945349231424823 0.1968760539278803 -0.6718184574107269 0.5327672849111147
P 4.637350613398375 8.447256234326023 1.3576725087569224 -0.12213562769119608 -0.06216464645420262 -0.8034424842083324
P 1.6924423056155238 7.928752918232302 1.1895187488306744 -0.006656328974253053 0.5764415858706137 -0.04890032524512869
P 1.7518696735137138 2.3242401761923364 0.2503806841168391 -0.5128988281219617 0.37504604680582504 0.32545460903094275
P 5.09506698943467 2.6917841008122716 3.8440749510151493 -1.1956233909222311 0.8099594593912438 -1.827076042921402
P 3.8517148089140836 8.044851004271335 6.269823597523958 1.6398909910290405 0.8196568891846657 1.8751237903582478
Ni 2.0827239025537154 5.770024243797437 0.23873618298197608 -0.3108360877868195 0.9538815868299122 0.05391474774058457
Ni 4.62878062061533 9.105064126762977 12.340646149282563 -0.10610377103931405 1.3383661533408178 0.7918822901745588
Ni 5.317455489246799 4.1240324242291875 11.11768567587857 -0.031192880663036597 -0.5628761884813532 -1.2831846230726673
Ni 6.523386618129382 1.8660831112492537 0.8781814125454978 -1.6137202461709435 0.9794733192560874 0.4561291274310854
Ni 6.550540555875226 1.236516814285532 4.318734409063441 0.4753329540530458 -1.9059508030414338 3.0896648441205885
Ni 5.40199274847212 3.3492919497382223 5.741286638895075 -0.5443033105751722 -0.06485993389817861 2.600188251577309
Ni 6.716061433992415 5.159191913552014 12.590834618025164 0.5921515404067027 -0.5170190209379225 0.15428495873023107
Ni 2.7349809900370996 2.184419900064566 7.8970167534918465 0.654679226627279 0.9681704926487585 -0.1401163805393329
Ni 1.861995018411827 8.055352527156467 12.725844821617155 1.2299751289292238 0.3546800815549634 1.8235706008713046
Ni 1.8209734446417762 3.542641863501014 10.682465999715758 0.2247128736344904 -1.7193049114819938 -3.7659608776866946
Ni 7.3072690433462455 8.282944906612569 4.826618060139572 -0.8990281293251419 -0.1010068161323809 -0.34422109100516846
Ni 5.199378991307086 0.8732110042585256 2.624914716205215 -1.5017643872262265 -0.7141449860930797 -1.5390209575848397
Ni 3.8176223649762773 4.958247148416938 4.20774081325536 -1.667473271522683 -2.3442714415361885 -2.687136789844411
Ni 6.761011702484672 2.0558137501605622 9.805962017923964 0.09799399744798608 0.3198771149431652 0.4780755497951895
Ni 6.409482600264565 7.501678485757268 11.368807092413203 -0.21262508923202092 -0.45624534129397554 -0.1668640809468223
Ni 7.0873559024998976 7.026540833363315 6.955423957803611 0.052301380506877666 0.13851355482858727 0.9581277637007757
Ni 3.2228142334904017 2.5385837593656753 1.941538428450878 0.026280530963083772 0.6180566903082388 0.656968793992404
Ni 7.171658752732247 7.0365735382625045 0.17634494777665166 0.9403372724865742 -1.4670619507480347 -1.579204471782261
Ni 2.3417177107083074 9.168504576620844 3.5114232738170403 -0.46288881475242216 0.2599673259614103 -0.11238009096632903
Ni 8.933748658339526 2.1772563612393503 0.4086330081799617 -0.8559400398864162 1.1261529548352347 -0.8568070158724017
Ni 1.167300526840843 4.056147579864579 12.528078642426777 -0.9068612522163155 -0.09466698995728212 4.833704539345102
Ni 3.137770650840262 5.050172979100727 6.756958302178205 -0.8369082200659457 -0.19938673616487598 -0.25562447561168233
Ni 7.226576091605661 2.600617755265711 7.438920634886937 -1.8810262718856121 -0.1768996108059534 -1.0047693748187148
Ni 0.6293243868829749 5.281534655163813 9.393249355630322 2.0811593992982096 0.39716576152299987 0.4759860142560125
P 5.177503944082964 2.2120145267171964 12.738840456187509 -0.45427896159622405 0.23515875155816274 -0.22146017102514765
P 6.39518365169329 5.699889073100298 9.895973195953161 0.532783997081663 -0.0419532045033342 0.9761267713813575
P 5.687071589364605 9.33760722415064 9.666808400972206 0.9381189246790167 1.2199118311559505 0.29466642000549254
P 5.117438983723892 2.9548941308834467 8.364375777863026 -0.7044647826908383 0.3549107095085307 0.1465042863435477
P 7.957003890065254 0.648511231775696 2.141623381399733 0.2511782669148706 -1.6889689795026137 -0.4814773763878869
P 2.8972107658929667 0.1412586097086449 10.837731015572448 -0.5546118915900319 0.23240767117558686 0.3738787659706012
P 9.142316403926044 2.209051597046034 10.830622797269575 -0.4368309413231058 -2.02621955272722 -1.290866050877325
P 7.676106905607384 0.8777060311077511 6.181432654454183 0.24508526664325533 -1.0547217954774415 0.01807845476826564
