# total energy = -381169.86207782914 ev
CRYSTAL
PRIMVEC
9.18532562700178 0.00000000000000 0.00000000000000
0.00000000000000 9.18532562700178 0.00000000000000
0.00000000000000 0.00000000000000 13.44365252205565
PRIMCOORD
 96 1
Ni 5.634150182642775 2.7101762709609676 9.633372097385358 0.35322072340061744 0.03434145359434731 0.10525762098893486
Ni 4.050655145934212 2.3493215659704654 3.2386567400349384 -0.40454791291968395 -1.2295539822314052 0.03170093064770669
Ni 2.5901516201919685 2.933710356911404 7.451950936736441 0.04987040246788186 0.7693393718770364 -0.7145589337020468
Ni 3.744076530435867 9.2689121520622 9.716185156725922 -0.531352149731143 -2.2001641946699078 2.2146703587058827
Ni 8.832425475354245 5.861395140171283 12.830219071952298 0.6651161056898868 0.8316032629132646 0.29123553994707263
Ni 2.129544278226543 9.275158173530242 7.8029516243285375 0.8385215872996526 -0.4054691391823727 1.2344617039456676
Ni 2.957977987379889 5.9335458734528705 10.542780882209039 -0.08167032058729805 2.175258432567164 -0.972700776418944
Ni 2.4603354122392433 2.0287077728204 9.647353081615517 -0.22941285021332106 0.696561982903994 0.041937777884366485
Ni 1.0043602520613308 6.851554878718505 7.557537174056004 1.3217416574102592 -2.327684997932417 3.905308241270487
Ni 4.405649613135579 5.13925401988293 7.08903963732433 1.1695783730087213 0.07176540276876028 0.8242172548618385
Ni 6.081016277378505 2.4657914956980926 6.808833928942228 -0.8537515168755296 1.4044085375828717 -0.26717669922565596
Ni 2.0095288127832323 7.0723241816367635 12.509170812897176 -0.8124639709806524 -0.05711242874227584 -0.07748327908914397
Ni 3.631335842937689 5.89921112603001 0.598121771377514 0.704497949921619 -0.33151032830671934 -0.49875030453572167
Ni 6.46000281527771 5.175829986773736 0.001231752174800853 -0.171176335168931 -0.9071461304465861 1.9522154904359281
Ni 0.1313951654385438 4.884342861381265 5.403649027157763 -0.2858701618701012 -0.3800067332452101 0.41680281902763705
Ni 0.47097114493953307 6.486300402723308 10.297071582981912 1.8962608294471794 0.3356588032574542 -0.176888812172676
Ni 8.461255649615785 2.9210805340899935 2.343860889848772 -0.25212468998854 -0.25504366340754786 -0.09127030557090732
Ni 8.09237296997371 3.4887887735809815 7.695119574878186 -0.1890367603891196 -0.22276320610728728 -1.4741643661207708
Ni 0.3177975722940331 4.937314634625684 2.990043040825171 1.5003417958470868 -1.8154245747254025 0.3784537869357934
Ni 4.893767005537459 0.927295369536505 0.15675860526164295 0.11972444714654219 -0.9657009480623433 0.6984789974210488
Ni 0.6033941483225975 1.7813285813831397 8.27284716762997 -1.249199267266158 0.8775774156505338 -0.7977315498664842
Ni 5.275812256890867 7.622506819714478 0.6731695563811896 0.5494599150754472 0.7430621833480622 -1.5509400776199291
Ni 5.43522358421129 6.187915097738926 2.3235741795335954 0.15391034899963169 -2.26244376943542 1.0727686256768234
Ni 7.137539994023685 1.3256078326838892 8.69202042394805 0.8419918052364403 0.19663462734103554 -0.5205085221484197
P 6.254756712772675 4.546038130955536 8.398626424942687 -0.8176768826401596 0.27299304879711694 0.10212550311785638
Ni 3.5353767454720324 4.198722596029587 11.792825633118138 -1.8018836028161742 -0.15673110627787845 0.6318920535294343
P 0.9052230319075233 8.47870776842355 0.6886064147329443 0.5172997854031349 0.8916850586965096 -1.3171326978833382
Ni 4.382346441864366 1.2987131990685503 8.143021774351556 0.5882874294656062 1.6749721510028894 -1.3279063914600744
P 4.782780715245747 6.329102738893765 12.036115517558969 -0.7982635111105543 -1.1080675580884336 0.03810400596057308
P 6.950039940748444 1.7620761387404658 11.49022242657769 0.4532021835922776 0.20789400230493876 -0.7006955454563932
P 4.402067336117143 2.8909526658323736 13.107157559987073 0.8395675120656637 0.9806385432087821 2.266075452650736
Ni 0.9452894225598822 2.7220345264245607 11.538095425532534 1.0511304785817575 1.2742037597302958 -0.9911062755093255
Ni 3.7625941470234774 4.047743397691021 9.3924345748533 0.3848023548616405 0.16453980368901985 -0.9058307540692722
Ni 3.98701002423999 8.353704671131496 12.012333790819394 -0.868824094937936 -0.3056296038852156 -0.02847496751124128
Ni 8.846332058446329 0.7234537033292119 10.131432604844822 0.727683901119779 1.1986750332643614 1.0667496731762531
Ni 5.771535098962658 8.70276541793822 8.558700014245238 0.2902382090308098 -1.8682985399062986 0.544508741717759
Ni 8.602480032073377 1.0740585033841412 3.884274912014076 -0.043718266823556964 -0.9797579403760416 0.514088734665005
Ni 0.17186387335605013 1.527905445642979 13.175653452177285 -1.075199346605503 -2.0482402799726853 0.4146356361729891
Ni 7.6440739644306035 5.562973093884148 10.775813513453745 -1.270001291613174 1.122204511710448 -1.4365740665718227
Ni 2.102980316335983 0.8372378438255805 2.047817842914905 0.10705533631930594 2.3882936127534093 0.3644603008701788
Ni 5.805043167073571 4.137630994876712 11.457500622345695 0.07248299766107516 0.03772631090618019 -0.07711998221245428
Ni 6.06042277718534 7.6165730993198375 4.505949695521525 -0.08380639309369438 -0.2863823256198294 2.443466144160495
Ni 5.058717084247927 3.823437744382767 1.635178108758913 -0.27978667468018265 0.3677963072219472 -1.127707186696232
Ni 8.208622451884818 3.525337184494722 9.967164077300424 -0.6012493889429129 -2.1958928209880635 -1.8768042633844644
Ni 3.4089223667212245 7.568689996506737 5.9990951131622765 1.3232928039474627 -0.32300871859361147 -0.9188559626843467
Ni 2.323079090478996 5.340329984525476 6.069782624061716 -0.16374276170902122 -0.22808127588609106 -0.18560048101406101
Ni 1.6931218987984076 2.8426011114091696 4.918911834609177 0.29167185615354285 0.37988100630062316 1.4158201218539228
Ni 6.36902216433511 4.171286028198638 3.5724762759270705 -0.8478582913195463 -1.863718890955416 -0.30829223831904323
Ni 6.761446833716295 7.033617219186273 12.299920826924614 0.7490582530304971 2.3143857097203497 -0.5599592719448743
Ni 2.5563771776360937 1.5417477314552452 13.279128901653676 0.20810174744037063 1.0586242158556411 1.6770935682212667
Ni 6.2346592201666775 6.801632633602601 6.712617642357299 -1.4397990012670234 1.181409047095062 1.6456826580101527
Ni 3.8621171508561933 7.549382441909932 3.418721272165502 -1.2148282459854562 -0.03941912522757082 0.020355937948532684
Ni 8.024217853366533 5.916167237250609 8.401369163193214 -0.4732727290899076 0.056213056856458034 0.07381174377482773
Ni 1.4176447960806418 6.362326061908341 1.4399899378825662 0.31850697406851597 0.000744591475508395 0.03512152629348145
Ni 5.298059115707925 6.616447282400812 9.841950636050106 0.6704341754686906 -0.3899952119164896 0.06017641237958024
Ni 0.47381859590290565 3.6850516275628595 0.3949359374243654 -0.1860941328210279 1.1108985997793255 0.2970194936187014
P 4.7755334932776785 5.913126894447783 4.800956637717753 -0.5765927667364974 -0.7202444141225983 0.4995195786015784
Ni -0.10354158382134687 8.297453736616353 11.934682884515654 1.156251316882512 0.6708825758600188 2.6878343301320675
P 0.899285637382607 4.3180859033490275 7.555695516255501 0.09445410261552764 1.0377733405485612 -0.5301488734516612
Ni 8.138630270139982 3.8880197692971956 12.048793104073958 -0.19506522597138665 -1.9398227731985302 2.242141310432642
P 1.6576573563158863 8.328665473305193 9.860663900074877 -0.22944910276789515 -0.7362616154864611 -0.4561111297089564
P 1.5158634836656197 2.878828035923819 2.8947002787131995 0.08231463903951632 0.2676860347619067 -2.4536785659171225
P 4.6563079658435615 0.03260974325859797 2.2835518784445403 -1.1105885247380745 1.2952279273904468 -0.4647808895688124
Ni 6.941874186211546 2.608650866128202 0.12234853816813843 -0.2791683243698934 0.15980331744529896 -0.15822954520027588
Ni 5.960725252164545 9.358193517752463 6.376969308120627 -0.32438374456426716 -0.3571041176154237 -0.9535301170277642
Ni 5.911069381493604 8.999019727362919 11.137124729130957 0.7570633827231606 1.1284836598509402 -1.3887759732519371
Ni 7.895283436679884 7.881964714431851 10.23551336728407 -3.034090449289394 -0.8421265310420916 -2.2569912309612805
Ni 6.867436306833574 4.8848939809225635 5.666727777261464 -0.24337471171005182 -0.15440091548280507 0.9762825802329316
Ni 8.3399634239018 7.375733859772646 1.074988976876366 -1.8284384704865673 0.7940132204746325 0.18807413936553416
Ni 1.3744370240428847 6.702284150957963 3.9616291322980834 0.23451494732657674 -0.09775025686829616 2.5320491327072268
Ni 0.7839445841820717 8.456883434588155 2.9191139558601287 -0.5461930713987174 0.23848344505602154 -1.2776001870063545
Ni 8.475364309873012 6.905812597559286 6.191043619668361 -1.7290532491180095 -0.23145430612338205 -0.9172657353790912
Ni 8.401036654403297 0.5028607586641684 1.5761871915909524 -0.2710824620379654 1.1128454390930511 0.7604104448185227
Ni 2.4488996817573114 9.396955592157083 4.328344993610289 0.4603130836054459 0.29423421756408036 -0.27346124668278715
Ni 3.0658320816118922 8.398097350183042 0.7526896764624977 0.2532405487605381 -0.25189869002066295 0.5993894529160386
Ni 2.6317152189315203 3.7823793385560722 1.0611044385659338 0.7773928383091321 -0.3561412394815221 0.7101556624280285
Ni 7.593325040002753 6.0494554983135105 3.521471080912517 0.43604212687322325 1.3325068663465633 -0.042177404698998326
Ni 7.073123304971646 0.1612355330021197 13.173824653832744 0.5331565499297334 -0.2073998362773396 -0.2558003390679143
Ni 6.513893121090957 8.253492767872157 2.571084721128198 2.032535467642919 1.5943976345829316 -2.0452621711809678
Ni 8.162943827236909 1.050369548434019 6.3713635038530585 1.197230587508351 -0.7517576542395311 0.353393758643372
Ni 2.767428405976133 5.1454633000482195 3.3781340735466165 1.7354696941673142 -1.606753327934807 -0.6685801529790872
Ni 8.327958203227194 8.580710810192109 7.974236822166224 0.33533947224482247 -0.7713096082295297 0.3948422555961458
Ni 8.025338463100505 2.890291322382816 5.217763754138526 -0.497617219372543 1.1312915616133807 -1.3781480612244459
Ni 3.9518394121794946 1.6659976320408616 11.42156579118793 1.8919771144701611 0.8823619815233708 -0.8871329205494528
Ni 1.1925583900888828 8.156054832970684 5.944998137521041 -0.8442752019539782 0.5808142610170126 -2.652470091700161
Ni 4.072975487356778 3.7808270185147497 5.083878446905883 0.73000097928873 0.4592581599783704 0.39498495182159715
Ni 6.234071359322627 1.7565465726761098 2.1468301426393523 -0.2171191204476325 -1.2007910511660997 1.7717965536228069
Ni 3.5881831828540616 7.472868678926405 8.257857634639237 0.2368176273178244 -1.4528769174969043 0.49422310608932957
P 8.141294014589588 5.320526422341505 1.4606927434514223 -0.7349454677781987 -1.7650420085077925 -0.24680122089309756
Ni 1.2370245517459364 4.239882040438853 9.755037247322287 0.6955813641582794 0.12299489036769784 -0.9208398258835948
P 5.930771905095004 1.7582642285798218 4.649756073030099 -0.04821846868675567 0.7195725848665542 0.07326332747052544
Ni 1.9686449281446148 0.5744254681668411 11.447552914625266 -1.6143337113852263 -2.0738009020506087 -1.0433428642165385
P 8.533792166576278 7.890387658088022 4.323545660938152 -1.1507337294983924 1.0040144989305613 0.18032843398184428
P 1.389115174492786 5.027294085068257 11.97615738559603 0.5233663033121889 -1.106244903057398 -0.6437373829037946
P 1.3875352984743987 1.0131230527679678 6.083817801713436 -0.9528965972088235 2.2123550803091443 -0.04416178211887878
Ni 3.731501819568586 1.4078256829198503 5.942793659355849 0.5341150571882608 -0.08256069361205137 -0.7741239377498733
