# total energy = -340875.37994020805 ev
CRYSTAL
PRIMVEC
9.17834372782307 0.00000000000000 0.00000000000000

0.00000000000000 9.17834372782307 0.00000000000000

0.00000000000000 0.00000000000000 13.43343380687163

PRIMCOORD
 96 1
Ni 4.915278414627072 4.5475572516602565 2.5027296565274715 -3.474039110305875 -0.4050986432168313 2.1038298443125316
Ni 0.5553310978615646 2.830087217298322 8.91073259191357 1.3690769521611132 1.4318450365272697 0.07274473596289407
Ni 0.7475017517528739 2.6826921954312066 2.227209545442223 -1.4954515576343215 0.16423949883978167 0.3522568168254514
Ni 5.068437436352992 5.140946351774264 7.560699191863001 -0.06859394701931414 -0.8631062186175522 0.9967210505929416
Ni 6.157145033887808 9.056813274959378 1.15018230813084 1.7817714054473313 0.8553299171062431 0.45320192648196145
Ni 3.9416397123626994 1.395677303391074 4.94797718197895 -0.15673342027072362 1.0781337466434786 0.10885125187746415
Ni 6.360564665847511 2.974517634142516 5.222166433224187 -0.5351630388368009 -0.15927906951071277 0.8366662792584688
Ni 4.985189858774394 1.5230910709705805 -0.378044046153437 1.3133945709971444 -0.03643561711921467 2.9828555623738175
Ni 5.072145487217575 0.7701300403705454 9.379478866418411 -0.40830198064547746 0.04828043227294265 0.2443797559357985
Ni 8.414677991326082 3.1992310235423904 13.230924830672029 1.2256541329563666 -1.1503724895042315 0.8508507982889668
Ni 0.45417106467079343 9.217259901602322 11.165252299107184 -0.5129960158214585 0.27727085023686443 1.2023805071404066
Ni 3.206628768584105 -0.592950375283991 7.919627501542021 1.135297083228348 0.7901902471841165 -0.3714670712053151
Ni 3.744323678979597 5.87781132098515 0.3212548800286222 0.28771210017484644 -0.09501717420784926 0.6814145857395942
Ni 4.162002566837297 8.37126442551056 0.4412213395103031 -1.7586461322837779 -0.33706622512794204 0.5149371987082293
Ni 0.8530426084032116 1.0409251401065691 13.581067629738232 -0.815022218626132 0.6916591462857378 -1.0122374010609858
Ni 6.5220943370499125 7.806374082660229 5.133183308652327 0.6478094960906392 1.122142548124261 -0.8357255126117542
Ni 4.317492887869167 0.031161394778071023 2.7771070638190545 -0.4031474330277315 0.8701433279699918 1.0836942714503917
Ni 2.0793996624387736 0.15400159367980268 1.9205647529538012 0.5373453912001004 1.7370511797218213 1.4073233972368213
Ni 6.392395161883077 3.3608891915569306 12.180040269790316 -0.6464468114151576 -0.7858219429130918 -0.08523335534820804
Ni 8.174462379376013 5.497295546866782 12.884879244244312 0.9793324228028489 0.30883525530670686 0.8490978201536022
Ni 6.214372007008268 5.228728031152626 1.0595085326449805 1.9103198786434068 0.3400775011504401 -1.9841483345887827
Ni 8.230688913030534 4.895590867338639 8.567937974832967 -1.0508165468857644 -0.4364445045179644 -0.20167887463316234
Ni 1.264885905321058 1.916199532678566 5.689770921769736 -0.33451723345384327 0.1701592067583263 1.4184570452561378
Ni 5.302641233163702 7.170452537728225 2.3661788477705117 0.14295642109128928 -1.7274031151090958 0.458771450149939
P 7.190874352514594 6.1650200528031815 10.350595359827372 1.3292541637372204 -0.22882792424412848 -0.24025699201667652
P 1.3508502726420244 6.134125747827484 4.883872875905937 1.009704864447119 1.2968065847314763 2.41967418394722
P 0.12642893129789842 4.5912828811624005 1.3287277107635571 -0.8912055479569296 0.12393539990409624 -1.5443164016558242
P 1.8724188331140763 1.2060068303302403 7.702623920870486 0.044504253059962064 0.11749710047792022 0.5342397556915832
P 2.035866778154838 4.72197331745145 8.186589724938814 -0.6719179591030685 -1.4421818996769034 -0.33132160933468097
P 6.9819477143203645 4.654007682173663 6.642605072314439 0.5054251454527361 -0.9861399326429855 1.4621141198244563
P 3.053506460233082 7.196766849185539 2.006793456574025 -0.36302948196092316 0.10642952980984897 -0.023678317453546316
P 8.721519200370201 9.103420904390925 1.592076420236128 0.32184683707502637 -1.275625579778487 -0.227103485353854
Ni 3.353436376452871 6.042296418866748 3.8869771684787846 -0.6687580733178483 -0.4604853475172521 -0.9105340730822123
Ni 7.718491441500903 1.7251706647465486 1.7108414345243095 -0.094916644074243 0.5798958629678013 0.8424389200761878
Ni 1.6904673471253044 7.877790775178321 0.1397925997603506 0.8595781508596357 -1.1824331174842022 -0.26217333247379365
Ni 0.8634251508240397 5.683395644218899 9.981713136379444 0.76459594365478 0.48858082020188753 -0.26686431019155976
Ni 3.2295195578322886 6.378526684515793 8.89215378854702 0.03494617705788175 -0.8100072819100437 0.15734380016121288
Ni 9.117326095133105 0.6284797438404144 8.942059196878677 0.24534263406970006 -0.9435807191245363 -0.6968710295039806
Ni 3.550321027680935 3.5302663466435327 13.332360214174527 0.24492097315124914 0.9907062118574291 -0.0547243881260735
Ni 0.8122925979364565 7.5470032673577325 2.44618830568321 0.18386190105639946 -1.283619653727557 0.4763385124994248
Ni 1.4686818493734537 4.953809101581314 12.639531102483662 -0.4246763082384428 1.6045794602119399 1.8940710208847125
Ni 3.0379858809954396 5.820042825584961 6.3985061031346575 -0.6607791688774297 -0.04350615081275088 -0.21930815767915132
Ni 7.175317059902056 8.514042740484397 10.36257768755933 0.04419932022503356 0.7939733683756326 0.9829340241111783
Ni 5.424970198319995 7.0260404775714775 9.437027999403591 -0.40994388712427465 1.0289989367900405 -0.05651053349221881
Ni 5.249370126188378 0.2891132381408053 6.5731130784753145 -0.6928955897960003 0.07826618000175552 0.07437198715367191
Ni 9.0358958296119 7.773019981566444 4.679187550346666 -0.9476615740621293 -2.3089547685127654 0.9900102142316692
Ni 1.6054299925204831 8.017402561567303 9.488652511514793 -1.9299703058844828 -0.12239942287554405 0.04186938654027628
Ni 8.022239548709964 5.600634518857682 5.096994017182133 0.27716749188978074 -0.3802733566430354 2.279909787430667
Ni 3.5731567468667738 3.1860876353293195 6.8084136873610674 -0.043410248664834915 0.05091195635851877 -0.8774164645926373
Ni 2.0861273883886207 4.893507383313243 1.977482415890755 1.5509308216485482 0.7508328284324165 -0.5946172283383759
Ni 0.7056898069172277 6.3080278263701235 7.316802146245151 0.6900007847467085 0.5332987319345525 -0.9923185506498716
Ni 9.19807716321872 0.5083122786311731 3.772134978298331 0.5870679552362082 2.6714988261968378 -1.6714808500201794
Ni 2.9923878693735566 2.7652513972304904 2.44359542358112 0.99928135512095 -1.0157323015881214 0.7409770186842594
Ni 9.438916902542033 5.329010614683362 3.3993170810614597 -1.7274193130590119 -0.7140760805283574 -2.3599353733256905
Ni 8.546644217392796 4.188408661731854 10.997347350353948 -0.6645689749371653 0.6483723105726447 -0.34992045538279093
Ni 5.3918730908504875 5.882281174378841 5.3012764134519115 -0.12196927731666092 -2.4032726026607447 -0.7218945481315117
P 4.076368619890403 4.700725451729901 11.212362901774819 -0.6069397544594709 -0.5766529305504714 0.7894297148690083
P 6.156741186763942 1.3719329281765387 11.243515118209165 -0.30017346586665083 -0.43546825664762423 -1.2253684833951477
P 5.887668862144953 0.6317591660530752 4.265302989784555 -0.2811712137325351 -0.6935864452154377 -0.26710496544745616
P 6.194840491563145 3.047210116438273 1.084370830125125 -0.6188699302381535 0.17357517441841075 -1.1803780347273867
P 3.105584382524259 1.5856598401385313 0.605293411924311 -1.2805016769238657 -0.8166697815318837 0.10650846267690045
P 0.207350716576783 2.2739621927046128 11.266069980077043 0.5185848227631455 -1.2449258367017848 0.0892357916393818
P 5.658320409164352 2.307490682329158 7.4592904255573025 -1.085296582940505 -0.5200526655579237 0.7005101689184646
P 4.032459423513774 3.982024424749231 4.532776446926786 1.3936412717640385 -0.7200952901392437 0.2891182364937537
Ni 3.9894129914472214 2.346076439345744 11.24612176782684 1.213460161993336 1.2474326622840388 -0.7941353478747936
Ni 1.5584368726525197 8.545313357552786 6.134927935068982 0.6011339464109713 0.42914102887801575 -0.1407432154900544
Ni 3.7182571828028363 3.609787516670102 9.172778894411676 -0.6153686019531144 -0.23374078816471355 -0.2872888965944988
Ni 5.99278843281835 5.595026550842189 12.154100434756948 -1.888909531288431 1.0042849789831285 -1.8532812405618597
Ni 7.561936432597024 0.7385299207624572 5.593131222863139 1.0445317423183174 0.5542169701444584 0.4402111706492483
Ni 7.496118529750703 2.3329055161014995 9.87740217778815 -0.4575373206325217 -0.18995387288675028 0.6119045546639139
Ni 7.821940553616493 2.256147027535918 7.617495700662795 -0.36244404177109835 1.0224122847114585 -1.7909155338404443
Ni 6.977716497863504 6.835672450387603 7.3963811398371835 -0.43268323770331935 -0.6199585353166419 -1.0398993857526284
Ni 1.9349325322196822 3.962777437959559 4.460329944242839 -0.3083243771085593 -0.3252208957535818 0.215702442605764
Ni 5.804476354628699 4.490449597008212 9.826166827450855 0.9141976379767287 0.20322102230930159 0.31276904314347426
Ni 5.129390817025482 8.681483265045191 11.877559691849571 1.3513119148682082 -1.139251697000722 -1.7665677011236993
Ni 1.92581843690154 3.693448119716292 10.923651675089134 0.6634160922796446 -1.1728454737957672 -1.0931579879664528
Ni 7.556429426362498 0.57287733755914 12.698786489567173 -0.08328908713764366 1.6692563315650348 -0.32744027200240383
Ni 4.010954564167946 7.823234700081605 5.095113374553042 -0.2622167841172194 1.9299836756209217 0.3317157594493061
Ni 2.8251400900309713 0.37393123033061776 12.115680805761771 -0.25457880795598736 -0.30467315350921725 0.45963765480497615
Ni 8.560448446354012 7.345850686297909 8.929714324569613 0.22076854427476172 0.4881144220884303 0.6859980913452185
Ni 2.439943360613256 1.3345128208129275 10.032289481637338 -1.4843181667253211 -0.7001985512153167 -2.346941532169184
Ni 3.42766164215057 6.942242199369426 11.71990511736753 -0.6623241447670465 -1.4451553804829305 -0.23799493545537725
Ni 8.551958478409116 7.795277465097657 13.094722798976589 0.0122163395605338 0.6121845477981779 -0.7576889321223016
Ni 5.293866736563356 2.267161040004972 2.9254125773836117 0.8653042547101356 -0.44305943873132086 -0.04172283366008298
Ni 6.934532390641087 0.05527565724469233 8.04260996477148 1.3137141591200923 -0.25686991798300923 0.32784830607409987
Ni 0.22875186063852732 3.9863474246433346 6.502036902509392 0.024542208115738377 0.20483361821206014 0.023110617875534395
Ni 7.826309445229217 6.918699747716823 1.645192413202513 -0.1625482271802878 -0.2699468057716254 1.171331865364718
Ni 7.080422164137432 4.029366321678714 3.100355480104575 2.0155854700521414 -0.28404827817001405 0.26239804689009
P 3.482153468841215 8.351273992879227 10.170977008813294 2.3687606849268046 1.855035247138489 -0.0048969230809851145
P 8.688339487807177 8.358800234733081 6.828254512989695 -0.7472939620412228 -0.09071751839123086 0.8051563815756455
P 8.625899215451366 2.7177993601763157 4.6778438408254415 -0.5978506476740091 0.07577529525910176 -0.540121925503973
P 6.243944630487677 7.170856384852089 13.512287875372108 -0.2910925866113051 1.3623108370818733 0.20880340149308557
P 6.919938824119591 6.2466889552612175 3.551396729565413 -0.9717836639213134 0.46555582006162405 -1.7907530401206515
P 4.834444741447941 7.257922153419961 7.073240110173236 -0.46088515405883207 0.4389155917662763 0.09578824804591891
P 2.1108813814128196 0.9475813844313364 4.0836029904138265 0.5947275286639951 -1.167706352796989 -2.1965055148713977
P 0.9340341490944 6.983820096440104 11.790215819466855 0.05020233188600386 -0.23823276249779612 -0.8672603499952419
