# total energy = -381164.78490245197 ev
CRYSTAL
PRIMVEC
9.33410282665864 0.00000000000000 0.00000000000000

0.00000000000000 9.33410282665864 0.00000000000000

0.00000000000000 0.00000000000000 13.66140299238749

PRIMCOORD
 96 1
Ni 4.681976631416947 9.101310278189167 13.141941639485967 -0.6126316626379256 0.22549397477488906 0.07859399565481949
Ni 6.001958779172081 7.330649644841549 0.6279125627776834 0.8225596646537575 1.2576648815350082 1.316526688868223
Ni 7.549301002980107 2.3883168839663838 11.105901262552056 -0.9111485667377598 0.2365538321334765 -1.215953617839151
Ni 2.551252982479368 5.497021153991148 11.95177445986094 -2.1606303982413433 -0.4482492104623764 1.9238392532860802
Ni 6.521672289088696 1.7423689677545355 8.845826550393632 -0.23682251241383087 -0.6701901777786845 0.22396236862171104
Ni 8.515875350443158 7.80517676309333 13.374104111430526 -0.5816853507680563 0.7404975079446795 -0.2784651276552817
Ni 5.731988523827728 8.29204356524945 7.067125520892307 -0.3503593426924224 0.005431198317900323 -0.9449056085835468
Ni 1.1039070019899493 8.537297116373914 8.4003424930105 -1.245369609107423 -2.3657486375733576 -0.03777619030750914
Ni 5.625327731108441 4.806250876123745 4.560735970120822 -0.7062532420498289 -0.09451606620171464 0.23462447632124753
Ni 4.025947884178859 1.395775062507966 8.001484145944284 0.6054225464839961 -0.4278961007273211 1.7569980551573936
Ni 0.9838984422636986 3.3258621717149888 11.371205399905653 0.1606504959369427 -0.5704105491851854 -0.23118228340891794
Ni 4.469980488576268 6.233481865074697 12.461740366221353 1.8989193501159491 0.8670058107822746 1.7322763840409974
Ni 5.595533274964224 3.446850812235457 6.814731381124257 -1.6693206091440669 -0.025082139779608416 -1.3634691190560326
Ni 5.310964482837429 6.229804228570679 2.618207435288917 -1.3207569248994868 0.12707548819497472 0.515402568380422
Ni 5.405910976540114 4.852501355508016 0.6643230309880092 1.6813325460032786 0.521584785931734 -1.8018766608376386
Ni 4.492643690179701 5.649195031973341 10.296094105060098 0.4244395096372884 0.4206661586377852 -0.2235437930270537
Ni 4.097717800623998 2.0285805619744957 5.925004702030672 -1.3604732696525021 -1.2428699826140208 -2.371317132800071
Ni 7.590697748907299 2.934856605336156 4.6211472168661185 -0.6920484113043566 0.2246923048092001 -0.31736617559585345
Ni 8.105230831768763 0.6209885253191056 4.1219052612150096 -1.4408487826877765 -0.35792327108260935 0.9387478165122671
Ni 0.4770361250849775 9.353704417957218 2.9074199435597436 1.6284860916262083 -0.5836974961020786 -0.4942297909575489
Ni 7.7041631025692965 3.06239778602368 7.249218931996266 2.240110138935226 -0.1925630283748232 0.6740661157943231
Ni 0.796949430882102 6.161478596059506 0.03366624198651641 0.6042958890787206 -0.6746057903478769 -0.9447492855113405
Ni 8.289980728530193 7.399245966333983 9.129546872575718 -1.1089890414614385 0.9233355957222549 0.3134406152892021
Ni 5.7608215673833305 7.772264716613221 11.19386678076907 0.4791289307603684 -0.12046132531256672 -0.7540626482236239
P 6.705740796345573 4.723849416587046 7.903859698147684 0.7878217469519401 1.7256750766743956 2.1074463580191964
Ni 9.00171540129105 2.534208910762783 2.120700689348713 -0.7013167239801599 -0.13173278446132797 1.2239019261519501
P 0.5021803312132014 9.110075000720313 0.6055788550031634 1.3035207635268584 0.5504934985462842 0.6448943793263733
Ni 6.693671801422493 4.288954898832866 2.4299675174897937 0.9916667759984856 -1.3326955853186018 0.8844324908991541
P 7.726452940060647 5.359819176903478 4.201810781662434 -0.5249076796573798 -0.39529425553189984 -0.8720444016474465
P 6.952161110320296 8.165837161262623 5.36203229267785 0.9600023550156693 1.6251292593388336 0.0731100897221128
P 4.0241930728520705 7.699057348336563 1.2838012984737392 -0.29592188967914845 0.4047762268804061 -0.48014194540591504
Ni 5.89996503785383 6.50093191266249 8.694526344433712 -0.06725157405880676 1.1141083649658747 -0.5415799981067383
Ni 3.609254866888723 3.7844839787920366 7.989229402375443 -0.29752651516210693 -0.28361401884607285 -0.1474818197654686
Ni 3.279238328218635 2.417439284708851 11.249864863709547 0.6286000130417239 0.6808129475998533 0.3299581533282511
Ni 5.96521041644032 3.899284109154731 11.881513867838898 -1.3401846946067952 0.666328380830433 0.7066718176444862
Ni 7.8170870782687745 0.38785624009341296 1.400279700520246 0.4974873786628981 -1.183126286896485 -0.2854942665879212
Ni 2.379346811173592 4.6322258634818985 10.011048340280116 0.396520157519201 -2.6622968479825952 -2.237495584130514
Ni 0.7596559565467 8.879513327406311 5.775877475203075 0.531746299845768 0.31389287233527235 -0.1156155671844912
Ni 5.285286366028926 0.7208139545564344 10.907920275068689 -0.8043806797518857 2.0925648129216734 0.5190977578438222
Ni 1.6446969160336449 1.1509508801123967 7.61695644691009 -0.07499162301554181 1.3701838120720469 -1.349038288342683
Ni 5.577882486565505 0.306320985296746 4.064991502789651 0.1855616573563256 0.1959993077498818 1.7017892711957339
Ni 1.940503967934136 6.586422960226676 3.8083484794260967 0.039842843028550734 -1.2113855388524946 -1.6483051832346645
Ni 6.54469952070141 1.2589091131211714 6.36557155405767 -0.5259564326368684 -0.6946213142378553 -0.7908566771235218
Ni 0.4844763384285098 5.877003144960732 9.732014671114952 -0.2225896566439005 -0.8242337099220707 0.09411497410855404
Ni 4.118542183975423 3.1052599860907986 1.4604043903095183 -0.6723848714371581 -0.290416386479887 -0.5298999906656486
Ni 0.24659859533824321 3.176824552274291 -0.05544737087515344 0.1867399939351429 -0.6636192094293861 -0.34226756682322346
Ni 9.106892071664808 7.031893016455603 4.548441089909932 -0.5703174752507469 0.2246614515712647 0.6511578437375818
Ni 3.109563007482554 8.420256801338724 7.087467331128864 1.2255546312640249 0.1261241800252989 0.952191857832315
Ni 2.2116596543343525 0.996256794373643 12.838440486645727 -0.6797631661791003 -0.013794996901563338 -1.7417452427633808
Ni 8.908626394045976 4.808360383357013 5.9552378610065855 0.2330882421823792 -0.5879269608023939 1.563949088285087
Ni 3.240865831599313 1.287172776405848 2.8684846005414566 0.5163317650629108 -0.33321985479865834 0.9184967795727149
Ni 8.286209750998156 4.398089228794703 12.034917047160125 0.6341165719845789 0.9631493852850832 0.8903601692374988
Ni 8.866025548857316 6.9570428460857805 6.860155792410545 0.2986148631302793 0.6680798163039011 1.1044443595135496
Ni 2.6297247847363945 8.033722270202084 13.01105231612334 -0.4811657586847391 -1.205189951564744 -1.050413655020391
Ni 1.7097929489753012 1.4723613759989735 1.2404182554702652 -0.5111841594237003 1.032666358339299 1.1344118524099172
Ni 9.283418623857608 6.919902451036333 2.3053619121335216 -1.7012436831049087 -0.9728864100671889 -0.5577800049053683
P 3.6587536140481154 8.034702350996302 10.669515155170107 -0.8282880824971025 -0.15294309999035596 0.7458117210687414
Ni 3.289188481805644 5.635259216489847 0.8300406921360107 -1.1513225121223267 0.15551086071753217 0.564509353209402
P 2.891378354484101 0.05134223246280179 5.253150916901951 0.02680066513261191 0.9537327199568736 -1.2113220326044105
Ni 6.934351642173942 6.40992441034228 12.64418847323179 -0.7590467317017766 -2.992961797569884 -1.8828399280555832
P 2.0089509437817363 2.5357023672111145 9.145516589059785 0.5772563684624252 1.1367597838168035 1.5008483031698605
P 9.198832984265225 1.4315993490623216 11.836007316447953 1.097100774664285 -0.7307738528990124 0.24723059512103226
P 5.021887319057233 2.01684759475229 12.863768574599153 0.0384809296840176 0.406937496197783 -0.16872787362843844
Ni -0.04491663609385483 3.5451389147412846 9.096649760660092 0.3292205038312782 -0.09858920782982376 0.06837951701566289
Ni 1.8478909999319693 4.958406085900334 7.301363897300045 -1.5293739214133788 1.516803026726904 1.8622916715905864
Ni 7.4868838575426455 9.348010615247953 10.518337225956893 -0.6421636106587714 -1.3465252921128423 0.520299234351091
Ni 8.016183491036989 5.380204857423205 0.8321651339337626 -0.21238983329276326 -0.4693556534236884 -0.09578233450864795
Ni 1.835177951915546 7.625075249527334 1.5649547423852563 1.7711211248223369 0.9299271328968436 -0.01670908522456477
Ni 7.039911010762584 7.633541280768814 3.333969773408869 0.06490235710033984 0.24402905746459908 -0.8423697574011493
Ni 3.3108809367176617 4.378254260340298 5.505859615934431 -0.013049891205422687 -0.26189333933952963 -1.135942687232147
Ni 7.0645343739544515 2.7247926217755065 0.32510586718591766 -0.250211275015911 1.0000565427240777 0.3862010349813801
Ni 9.011506875130426 1.590241760286352 6.193628979750966 1.1025764530668754 0.6758764295301843 -0.931917166743679
Ni 0.33351309357974473 4.177253690600461 3.9136231578792753 0.023502968217946618 0.9864435799263332 -1.312967767872371
Ni 7.332787154383224 5.397939652747144 10.109232834244843 -0.835742996113251 -1.2345200679874286 -0.13454145755471666
Ni 4.845370100967233 3.4531699998324603 9.83166088557848 1.2365831211640446 -1.2057121426168007 -0.1067149222607517
Ni 4.963390496796642 8.79431163702899 9.074368323861265 -0.5003428458338222 -0.25109573450339334 0.17291774334006996
Ni 9.057243978860582 1.0329118160773831 9.450521465861438 1.8343244969536991 1.0757498197923343 -0.34348112751535037
Ni 2.327346524463244 0.5334533092412663 10.041800475371826 0.3997849443134018 -0.6641185176633079 0.156618234849098
Ni 3.972314129478149 6.81060010722406 4.875358706449732 1.2246321194497554 -0.7100988410481641 0.7479287674117442
Ni 4.118355501919381 6.044830313342002 7.014037811205518 0.2599444431432749 -0.011316967674715994 1.2739497347379607
Ni 1.8336658272616102 2.531175327352109 4.339818291821922 0.4630441093833638 -0.5972109572074812 0.4975843092520785
Ni 1.2513671580570964 4.454019172784723 1.6555160745915276 -0.3079515671501729 0.6334313729920962 1.614301058375078
Ni 6.664698746324858 6.109945014489262 6.224968229908926 -0.1979425475191817 0.3501870787806162 -0.011565850460728468
Ni 8.17496591380305 9.147355407311792 7.573608873497264 -0.5345554871597892 0.3839240660217452 -0.5533556505854277
Ni 2.5568814464690175 6.7085970318030075 9.19984853465009 1.0955802242547004 1.67046603560242 -0.707457032549943
Ni 5.029830640541796 2.6930006676316465 3.611870282493864 0.38971033368621916 0.0059593029072284465 0.37590222415853325
Ni 5.373904338031807 0.0891462822214771 1.8572269695546024 -0.13061486880680087 0.41484286708778884 -0.7482954067225436
Ni 6.785360693247254 0.6775989254033974 12.878331641790949 1.1377910532947952 -0.7758686883551219 -0.6036346013456378
P 8.597138049438003 6.583202694759961 11.406793533659117 1.0682648242691988 0.5070760507925977 0.01945090963576005
Ni 0.7095719611416177 8.096652791293659 10.757139045224564 0.07381457198830513 0.4454065988072587 0.7274440171948311
P 6.794750800666139 1.8954855901197387 2.430062725338374 -0.46708871176638267 1.0046991837024115 1.402589996316894
Ni 3.5754840829508234 8.353200606808631 3.359338931414623 -0.30218098321498277 0.6978508769187466 -0.8179273080880688
P 1.3947016406857273 3.1733616001347222 6.494152553797345 -0.8850305294944694 -1.6166096519035964 -1.7769888964570233
P 2.9751239248242984 4.511741264512742 3.24818936865782 -0.14569618861995554 -0.22986510725939122 0.3271541082205527
P 2.4700182857929276 3.680875437689028 13.76782496831448 -0.31903739265068926 -0.5440775677176114 -1.677698805905433
Ni 1.8340205231680888 6.793388021657037 6.050785470929724 -0.29654281109259895 -0.0465127988495586 0.3289770203619044
