# total energy = -340866.0171424874 ev
CRYSTAL
PRIMVEC
9.31878422151140 0.00000000000000 0.00000000000000
0.00000000000000 9.31878422151140 0.00000000000000
0.00000000000000 0.00000000000000 13.63898266532826
PRIMCOORD
 96 1
Ni 4.473137550712157 1.2536933109051407 5.029674911403194 -0.8499776516553942 1.2883078032318456 1.8471239627112124
Ni 5.279911291116907 3.5316514661977796 6.872410434098485 -0.6662383922197881 -2.0486424005071107 -0.8777666488432044
Ni 7.491324008578413 6.927453696615941 9.256258865909672 0.11096264179351212 -0.21824706340448866 -1.0228136339149354
Ni 2.3259312562525425 9.103790510423003 8.721024245854675 -0.9009963087951064 0.928464432308388 1.8044436502338665
Ni 7.8289621969970655 2.5189232766254253 7.922694255795647 -0.5148258699413456 0.979132905197533 -0.39633683786380125
Ni 0.9377772084106399 7.01245032712396 10.041878034346846 0.2130369799584589 -0.6431820246209569 -0.9098545305166847
Ni 6.562436920275727 5.139430619599707 8.005714372179035 2.4938595090113824 0.26409754607970004 -0.8566473503660859
Ni 0.3101673445337074 8.572685043638275 0.9277921311615069 -0.6064615292714717 -1.196458485229017 0.37432716636192953
Ni 6.629112821085383 8.86787617011591 5.605471403359544 -0.6209427536067822 -1.5460120441906922 -0.054384231177835377
Ni 1.9265188475030424 1.5095405305737795 2.0139187924511464 -1.6633515360448257 -0.4978136516540652 -0.38094904255382134
Ni 4.136226227459564 8.157272282451293 6.0653375607215505 0.9604232446031719 0.06645556052007263 0.10567902479706962
Ni 0.0397017481215177 5.557685609961664 7.01008242406376 1.2140767125314125 -1.2489817519387134 0.4822296811728792
Ni 4.474889482138043 8.088322598301657 9.049832886262546 0.8486638179399771 -0.3647840027581847 0.12222304519867984
Ni 8.475275792602169 0.5390944604624531 3.311722568273479 -0.09347091276665193 -0.6845384760805566 0.24684647230873613
Ni 3.856010387159583 0.5269343789856509 12.772361940702712 -0.7852881818968088 0.02474018305915739 1.0261339565374201
Ni 2.483092551452382 4.5466627578942935 6.6385294524995215 -0.43341857320744703 -0.35885066799288523 0.7098720697493388
Ni 8.730545247651634 3.475571023001063 5.02461481159332 2.0625680094492673 -2.3175422530714602 -1.1337688195092797
Ni 5.255654495895728 8.43390039084188 11.549954583925908 0.5879683555632905 -1.0202111632950817 0.03523208372941675
Ni 1.489700839054037 6.287066847749474 1.050500017490143 0.5407135363413849 0.3808695954661376 0.13632297493517168
Ni 6.097662559285985 3.6571661703215055 3.8922930733653684 0.1996415324881594 0.12607070107954416 2.898390966870834
Ni 0.7871576997053329 3.78680909583708 1.2416357360543213 -0.01159438970581874 -0.15901604565731323 -2.076780296393907
Ni 5.8633044559369925 0.9158212210035637 0.37827181495819523 -0.007069762362587824 -0.20823801590791877 0.23133577826764676
Ni 3.806648787356823 4.064546139545116 11.345833139606558 -0.018714031469735513 -0.3333298980139614 -1.623618993341894
Ni 3.258489945522245 6.59746623000927 11.169030642990014 0.7556011963553374 -0.060888865065572555 -2.319040691993858
P 9.368826051293365 1.2746419377423326 0.8990418182086137 -1.1863949303454278 2.236207718557026 0.3292431295390975
P 0.19835125315494237 7.617332608263691 8.122218743878882 -0.05676970069087642 0.6918180404611053 -0.3563998924595475
P 5.675708011604471 6.295602854058579 10.73816174636168 0.21914026464271938 0.4665184410852094 0.594679191924563
P 5.563733500894643 1.4444301855064046 8.444958060150158 -0.06299151323087217 1.0698154565857705 -0.1977520287749304
P 3.8963886790125866 3.5389667117792727 1.032960201906085 -0.14965157372327775 -0.2207793429080391 -1.5439582469854571
P 1.8017682836820965 2.2001742637401303 8.647947272191608 0.823156417697492 -0.013431700024873641 -0.7814806352252606
P 9.224319665010299 0.8394453977406899 5.32430411519476 -0.16093100329183896 -0.06804193117058605 0.6036813954231732
P 2.7919729718907975 6.326047321975441 5.585395014721623 1.023348937593115 2.0300458684518454 0.23125298874585337
Ni 7.045410866769489 0.16729826863111047 9.39172137214581 -0.4422294866308577 -0.6257977677062384 0.9793311372512682
Ni 4.099761824962263 6.590141665643596 13.207199707513414 1.7308707619427224 -0.047109551893293064 1.0684491723658631
Ni 1.1691439820377738 5.4076997785806125 4.630120857134154 0.6814876050693748 -0.768443085315012 -0.7756298328714384
Ni 5.348096834963763 4.391710014545173 12.973536785464269 0.5196176349030341 -0.12938665282665457 0.808886023821407
Ni 4.764405469049909 8.12220569758103 1.5455697458498627 -0.13613682706629457 0.4432939233396301 -0.6159589272389456
Ni 1.1408148781298277 4.273408049376957 8.70551685710033 -0.4485572286210984 -0.09331176148096833 0.6241949419954927
Ni 7.335877369667738 7.550703301374936 3.4970489567796923 -0.6476552299009619 0.09426512653317314 0.10137242700191575
Ni 0.8134115103763383 7.75241770374053 4.995222434410408 -0.9089492450935959 -0.18599848778342806 -0.3768018531546672
Ni 8.568258621152658 6.37388064117264 0.7937516713912746 -0.875596380664763 0.8527130483086863 -0.6984124058491714
Ni 7.9615125831768765 7.216289412282649 6.668740018933459 -1.1408126137299386 1.154909715252953 -0.12753005923389005
Ni 2.4057466427563443 7.37274247988479 7.384773030261486 -1.5828868057298544 -1.9759043494124358 0.6197929562730551
Ni 3.835350642631979 3.6583776122649376 8.705503810802478 -1.489824441255531 -0.0409522740426456 0.7877739244331401
Ni 3.9034989113421137 5.000897573976178 4.266491647758379 1.1005388538115564 -0.12595628698886696 1.505178555114098
Ni 0.08135205401512473 0.8897081239736798 8.841088393111376 1.3916759205075517 -0.4220260150997893 0.9306722385929843
Ni 1.4646612659617175 4.095922485880002 11.219699668213265 -0.6018510270826538 1.6154400570755276 0.022247241433974586
Ni 3.7161540741824592 5.935823234427663 1.9885633125751165 0.8317870967892964 -1.0963150455381958 -1.1742037875958746
Ni 8.049118473255364 0.27592826769864964 7.274733099147476 0.18445402611444364 -0.8317295040784836 -1.9532598725400427
Ni 4.110142950539056 1.3543268612676114 2.378284185777161 2.2798485951754284 0.5497118831852532 -0.3235180541298622
Ni 2.6640260650960275 2.410210340378682 13.28064570503002 -0.3402543930479366 0.29059019305358985 -0.07954427538323075
Ni 7.063274976043019 1.746274923888735 5.446018619129782 0.8148306714406159 1.4069570150363382 1.183347915988988
Ni 3.4053260278503723 1.2951432629388726 7.349134272042556 1.6672565275261866 1.41378277970892 -0.49237268314415206
Ni 3.8062946735579732 1.6811925351739008 9.759564535727892 -0.7705776151595116 -0.6948115758717904 0.07986514905775924
Ni 2.609222295332004 4.813301129643657 13.308332744707945 -0.023809957935404157 -0.3362630125003564 -0.2423943500746535
Ni 5.615042726591073 1.5285415315173 11.011269218088968 0.13958339085399835 -1.2366769664294317 0.6751256674070889
P 5.892928870845993 7.573124296112607 7.419224575375854 0.30824775823435296 -0.5655609344023679 -0.21786602591598606
P 2.787444042779198 5.620186695458568 9.284082891715048 -0.009105304735377868 -0.16194144683422432 0.14954898670714245
P 0.5276659035438 3.9336824533019286 3.2102344854016795 -0.21015348776307674 -0.3139946880204592 0.7885977058860161
P 2.8199386432157136 8.136770957254754 0.1962461398086249 -0.495675779375456 0.28897296916514104 1.407032862579596
P 0.29762985229760525 5.299946677104434 12.840678879406507 0.40416173322485877 -0.6448516990138959 -0.21204890501357673
P 6.734871702746989 2.7791130497220586 12.156029669440713 0.3473925467546146 1.8324100535398056 0.9080092497778297
P 8.976011341743478 0.09345435903000948 10.864704312380486 -0.22013785266929828 -0.4137820299234422 -0.3537519133137391
P 2.821532155310536 9.57253467347353 3.8453198779480053 -0.3573648274759781 -0.43777787861740736 0.22759199495449833
Ni 1.7606631266630337 8.039193968103403 2.5856783871006135 -0.4660201612925523 1.121848671032926 -0.2649061580239244
Ni 5.844200948367489 3.465283085266072 1.739666042148105 0.27163704898985475 -0.21715023079588408 -1.8576590579145813
Ni 7.541710674641 7.663982441870001 11.37687587346779 0.35089593192218277 0.4459012790554901 1.5955021805010199
Ni 4.428584443546404 5.593497697566346 7.799384376008966 -1.3162801200750558 3.324957807263771 -0.9160102657054353
Ni 8.112775087990622 2.6525173666334245 2.416063468722294 0.14966391501845192 -0.7495629605810575 -0.6238203322648934
Ni 5.137846426289065 8.895059063569686 3.8705253253987335 0.1551827879541521 -2.596005323844213 -2.162372577743431
Ni 2.8426205639104314 3.7393951219279913 2.787058245114136 -1.3086197753163205 -0.34999733136731337 -0.04392575484867274
Ni 7.650563392650447 4.748106915518659 11.461546346529502 0.09031719762901864 0.5385723216286661 -1.432053810103966
Ni 8.273384333337152 5.632962748569685 4.868611841267086 -1.1789682988640535 1.8531421438808342 -0.09556044830582897
Ni 1.4537862448233712 7.456397205470854 12.249538077418967 -1.0188880736082842 -0.6224514769418248 1.7676889592123364
Ni 3.4163315119672424 7.296887576657592 3.782390128378808 1.1927265289904103 0.1907365166890457 1.079906265162869
Ni 0.8796457008158509 2.530636988339994 6.600763215852241 0.28955403847959166 -0.27044174313017294 1.4130106774295856
Ni 6.306067848692995 6.070256015011883 1.0684778159306725 -1.5782055982041014 0.5651996944082073 -0.7316004625653658
Ni 8.127871518362618 2.1649678971071626 10.418054986621321 0.27020725852186367 0.9295394105401216 0.7138680782826093
Ni 1.9154760882494515 9.540105304526275 6.002270825024903 0.272961167117917 0.21432535975257927 -0.7830762618471546
Ni 7.7635722884042835 4.106918651212691 -0.0034647239582152566 -0.019898024475507668 -0.24531203794208076 2.000000214019375
Ni 0.24857763612962927 2.6770164502432894 12.77132476002345 -0.2103874581507538 0.7003587309422648 -0.3665737476687557
Ni 0.8865145766351097 0.4137549494813158 12.628415613348878 1.3438839978352533 0.09613380431079574 -0.5607730260954213
Ni 1.6000259249639628 2.34901388466701 4.259154037094853 0.2631930319875596 -1.2008090488882288 1.0584013012115578
Ni 6.037882558769711 6.152839080417219 5.3339471930644775 -1.0628133142363245 0.24652842684768508 0.9136903593230071
Ni 1.5536090609621602 1.8574759755116037 10.737357535286923 -0.26306756215328886 -1.1096081631026762 0.5583099092669095
Ni 7.807333298914717 1.0058322892789726 12.589422092825059 0.15648196638154985 -1.639630795389118 0.6096427552129307
Ni 7.83254992890646 4.96604532114206 2.537764926359464 0.35181098753728446 -0.2176109724823865 0.13207859783652093
Ni 6.205853643618635 3.4140297722747217 9.60135301355094 -1.3375297734824512 -0.323415724224043 0.31237360747726844
P 7.189283575728298 4.01458813755482 6.169771311272725 -0.8518445296608038 1.1847442821158822 0.5846729726414704
P 6.126867628906875 1.3984047104401724 3.640176163004082 1.2561921536442235 0.7122287429069734 -2.7764782538237216
P 6.744842801819852 8.07326344306638 0.02420088251609742 -0.4941470014357554 0.3999425529371886 -0.49085598938930947
P 5.928470713709449 5.863267180800271 3.1896530186611898 -1.5316503761523816 -0.2810064060198967 0.10088983093854237
P 3.246571220555711 9.175852668488842 10.856221423141209 -0.40922680645259196 -1.0016529406769201 -0.7790707402321873
P 8.224246384354718 4.312807868891034 9.361892875863262 0.7084445932741928 0.5771272990837286 -0.5483473987375589
P -0.09652769405265443 6.696646050039622 3.033842015289068 1.6664772261580012 0.9947402727174868 -0.4523807161322467
P 3.5085967941358525 3.0251289520805384 5.565032539409368 -0.7063303751446673 0.590618391591628 -0.4257613137725055
