# total energy = -381169.2566229055 ev
CRYSTAL
PRIMVEC
9.26837613099215 0.00000000000000 0.00000000000000

0.00000000000000 9.26837613099215 0.00000000000000

0.00000000000000 0.00000000000000 13.56520532952041

PRIMCOORD
 96 1
Ni 5.456246813543777 4.149099892210116 6.611125433549335 -0.758967541724409 1.3532721239183727 -2.037798515814071
Ni 1.6621350037966345 1.9454414635926116 7.628515105149569 -0.460559138177981 1.2055439924700526 -1.3158533169502822
Ni 0.5531570908115109 2.8565784687518785 4.950486345695091 1.0392519819766166 0.028431515867815553 -1.003412089459872
Ni 3.141321526881626 5.152123580472642 7.360141853323733 -0.12263133638069201 1.0123867821546564 0.5090408878284524
Ni 3.5491949647800642 7.129068255268399 1.5706746660053335 -0.015447702013637911 -0.5011126341203112 -0.7993004370155008
Ni 2.3014212623247046 4.746131622972627 1.3055407117127416 2.0016999703193012 1.955554067890858 -0.08296281414647647
Ni 5.311409896370626 8.256000866912755 9.35854003884968 0.8569769657913628 0.03082238469749531 -0.21019025453828316
Ni 6.111947366582224 2.504565535096263 7.91578564950912 0.612376866314642 0.4250696870221196 4.379651320606438
Ni 4.656914232257278 5.465329822363748 3.0811197151579113 0.15368434903175468 -0.7840147145010239 0.47114951209931755
Ni 2.2130380254805773 9.03783475365629 12.759391859684557 0.8270107584465758 -0.05562478845315581 0.26291098197076657
Ni 9.310918194341626 1.2627977405137 3.20179582886994 -0.33187362518340907 -1.3690982923173518 0.278179735204379
Ni 4.748077982005477 2.9463890355534295 2.316028223447433 -0.2742096948130375 -0.12940670743131263 0.45360841789176076
Ni 8.008711317600868 7.757482708341543 3.4626811594451086 0.6955104017110281 -0.1087178116233934 -1.3651593622742617
Ni 4.839529051420432 1.4675269056405797 9.93138594153493 0.3732413894969185 1.0439563294308214 -1.3267349968597926
Ni 6.436646395143498 4.003577115187293 10.673551177513694 -0.3133994776386216 0.8385997488357558 -2.1030518284959263
Ni 6.219182480915965 0.5985739885866359 3.5897468918106967 -0.06097705390400466 0.512017453958273 -1.2238623311632664
Ni 2.3542417391257406 3.9171865792577516 3.5755171536052868 1.3924655062883824 1.7131818293033916 1.037129536316975
Ni 6.248452013419504 3.451932623395598 4.362177083912657 0.6345613728314813 0.7766356484281334 -0.48150437297108045
Ni 5.113613476751234 4.976914194010668 8.733903375975537 1.4556010012962866 -0.058797786864498734 0.20223320447473558
Ni 2.602977155147746 6.710656673463524 3.5074057095071196 -1.1766013412937737 -1.0422038655160888 2.7811106103894105
Ni 4.228539145879476 8.5248579279839 4.029693546057614 -0.3916995962021061 -0.23611803014763855 -0.43493860939639933
Ni 2.6789222309343206 3.4980706008505122 5.902451475500128 0.45571569404275064 -0.5434198795289544 -0.3522357337795288
Ni 4.115993251898956 6.0255012203946 5.425118971582683 0.8975183775488349 1.0352582874361913 -0.14675059802639887
Ni 4.908606260333946 6.0944950139209935 10.811496130035284 0.6601001405325341 1.08383851033774 -2.9672893325044445
P 4.567910014197907 4.746678457177094 0.8925539105837136 -0.9095058889280142 0.047575435786118066 -0.26328199215694015
Ni 7.779281929509474 0.9893250280217938 12.575162489361771 0.42350285675563193 0.6323242559708465 0.8103584946018754
P 3.3749031475764344 1.2466800340464246 11.573616180288942 0.14827911885578332 1.1374676085171056 1.534946787515466
Ni 5.82928969313053 2.691137950959547 12.26508895867592 0.0688903952138104 -1.585015164926767 1.6237650320014552
P 4.611082111221811 6.882297735031938 7.806721884522133 -1.384892836147447 0.009290167052674323 -0.8375209139492802
P 6.501321125292231 5.785663445665628 4.901393609860782 -0.9902608967898945 -0.057177477652256364 1.4198423556394386
P 7.837969288538104 1.7343263871627113 4.599554104721525 -0.18086039522591432 0.11377851397575243 1.0857118161010528
Ni 5.570766871686189 0.35405383012720504 11.771872311375141 0.43854226758725756 -0.629717928696251 0.6810497462010077
Ni 6.439612275574508 5.694546037799163 12.375537419089133 0.8741989860966042 -0.07244803065808168 1.281402334361264
Ni 3.0136403743266036 4.308710601280241 9.462802784888968 0.5791088482901317 -1.0458491755781603 0.16886259943408985
Ni 1.3593093434140666 8.851317948051086 3.9958352404247197 0.4044041882529681 -1.5907189001797637 0.3083521450227012
Ni 1.7029065913466888 6.563354368182095 13.298377603061644 -0.9806588549237562 0.34051947378386516 0.6478274938127682
Ni 0.4335904017482074 0.44298390117579994 6.172046299328488 0.0023510167306798222 -0.8393777646523608 -0.0902025264280253
Ni 2.4896897910594733 1.724427761224212 9.730416956691993 0.1023702721388108 1.2109607926102501 0.19897355988685733
Ni 6.176297703558815 1.6627559850118776 6.016874215690897 -0.6988060417431642 -1.447427464346559 -2.7701728804309838
Ni 0.667891248447536 1.433882699501299 10.992821718048583 -1.2094037325357752 -0.5468924114585872 1.1062122500472495
Ni 0.7402105354071999 6.150383323292856 9.058261328287243 -0.6575215811720805 0.8650448304011618 0.36547614372920284
Ni 8.935437731775636 5.996676569955713 12.118625441453885 -0.3416726135517019 1.051677609334479 -0.7738272324450608
Ni 4.161213660095527 4.15025843925348 11.715590096008533 0.5622454968758898 -0.9536087927844996 1.1057373672933601
Ni 6.674695373237516 6.840701261987009 7.5018432787787255 1.6012074584159135 0.14129600266973086 -0.4254252705893254
Ni 8.528416984501114 8.645476577762578 10.091523094381559 -0.6573194924636035 -1.2143029696096055 0.4732634731185268
Ni 3.1483654929052776 2.7210470014310237 0.5897022987473745 0.3384479359668171 -0.35944433571282614 -1.1917147998964444
Ni 7.265878758525126 8.681011532676628 5.308064939347026 0.512139324248118 0.6916583749547895 1.8713900343474286
Ni 8.934937239452902 1.3327091032984368 8.847512352723045 0.6856227102836708 0.8024397539754309 -1.6676902726294955
Ni 1.4688152099528002 6.895829564498426 6.933380391267929 0.6162227224232936 -0.2150650661320812 0.7246723679869649
Ni 0.4080272929457968 5.242860984908884 2.86697944068838 0.33994380378605327 0.623187840887217 0.7309502305758767
Ni 8.475281382904281 2.4458503709385924 6.715428033606913 -1.0670165536843945 -0.08132733542558251 0.7763140034226566
Ni 5.2071128573388545 8.554118192111092 6.404526836913283 -1.3530548657012438 -0.5960665591903929 -0.21665786454049785
Ni 3.5717078509267073 1.056641245429396 6.003675120935264 1.9260830550149346 4.4832166414946135 -2.731592191944309
Ni 5.936524807464271 1.2020342651833624 0.9613567755573602 0.40170632970583076 -0.5597643823252488 -0.4795991855285676
Ni 7.5975290693465825 4.616939725073058 7.669699135447061 -0.07227576674627552 -0.6442192076362195 0.9133252626741044
Ni 7.702650993873228 5.933280875742852 9.710055260695468 -0.5073082214080618 0.42229803781425335 0.6748736992972829
P 2.6023932474378904 5.494386182211309 11.228178232813823 -1.4599204546072468 1.1152831020002663 -0.10367664965506015
Ni 2.879610383973948 6.975009303630072 9.22888379529513 1.3889006717552597 -0.7834416156063733 -1.125555430460552
P 8.413637411820988 2.9186117116417423 0.5148740623106021 0.5102739889046051 -2.6202199734172034 -0.5776767438292955
Ni 1.4212313657877678 8.955318399039756 8.912000788507207 -1.6710111094726126 -1.030323054918103 0.002707628739150176
P 1.2370779961510268 5.52254350955322 5.080413225838971 0.8264389451035058 -1.2545260787957104 0.29976440335369015
P 8.172122060973225 3.411476160641339 9.474998114486231 0.0011037745871400344 0.46346062809549216 -0.6231593016421269
P 8.71015130791131 8.426752164351864 7.703883687927367 0.6466751253758798 -0.4999481814985648 0.046519997938410204
Ni 6.656075205156576 8.027702220735684 13.274598656706011 0.6265511009324951 0.07062383296514933 -0.3859835196539353
Ni 6.160865856941211 6.3212551096244765 1.4351311497952275 -1.7400226036453192 0.34781934987938806 -1.5718475171965574
Ni 0.7503371634038332 4.45025724485024 7.378196650447513 0.41405636663075146 -0.3671237066349548 -0.47125184200513676
Ni 7.2523561974349855 1.6237361205913894 10.278315170764266 -1.1194210354280398 -0.2722111763257699 1.0021661328679128
Ni 8.098280906617399 3.1223584288758497 2.7632598215030217 -0.5110090672984168 0.9412541278738887 -0.16174398611143756
Ni 4.336997685891009 8.605696706481643 13.646053863424541 1.927711848867609 2.0564346428580196 -0.5258152790733138
Ni 8.443407436647261 3.7085276225597825 11.915405167996283 0.19729205841937636 -1.0129835351983911 0.23254702496692853
Ni 1.523007406453179 7.66288039096864 10.9722848497391 -2.1289469510951338 -1.331886459153745 0.7116206770093293
Ni 1.113780785608092 2.980366903241199 1.9919418345626903 -1.063754080883039 -1.5721429369497892 -1.050737614018713
Ni 2.5791110860544544 1.606265231177465 3.5085457197977896 0.03286512615913695 -0.32677615605584365 0.8760190700244784
Ni 8.350019276575804 6.629558380428068 1.0616647054094208 1.6191923250291083 0.9538509907022927 -0.15395457197400583
Ni 6.8176044681305115 9.482753891813324 7.836090588652585 0.6820928427535414 0.018492402377232667 0.6491870931644561
Ni 2.761577611196058 8.490416641478784 5.940746552890288 -1.6197327709136105 -3.3943817063835473 -0.31677507897907375
Ni 0.9838288808480765 1.4929222568311111 13.498302041890286 -1.7792365548406197 2.2113994012640945 -0.8513359654555015
Ni 3.3385433071675092 0.3105258274515802 8.06412137875323 2.3691067554123135 -1.1255770277271067 0.8626033108392047
Ni 8.05845469345473 9.130564859007118 1.3984237452732933 -0.016127501689481905 0.4037225888049112 0.3396717810715892
Ni 6.51634516335057 3.7319766147174627 0.945787756969822 -0.14067970924197062 0.682390062278986 -0.3311408607824426
Ni 0.17570709827180267 4.701059508797607 0.44983137762089653 -0.07679628032444838 -0.03267640718709857 -0.7435787179731645
Ni 0.8911627272940426 4.062477646871902 10.013237753567392 -1.6787344462587992 -0.7686973674176633 0.211969457925893
Ni 3.6690628760746424 0.723096478482632 1.7087410342570681 0.291900170114265 -0.4708826315911762 0.7105073893404925
Ni 1.9330311076640998 3.3652084259175674 12.004230506392158 -0.23406988936935816 -0.33001291782558645 0.5394696366319547
Ni 1.338121835085032 0.23702482250768528 1.6820722081564712 0.6567060272493207 -1.8486419420176354 -0.2266010917961388
Ni 8.94118412511072 6.924413237152294 5.629858331923544 -1.5656069356034843 1.149863153967981 -0.43242818426971974
Ni 7.375412430192902 5.473004037978989 3.0590489305630166 0.2424167186721567 -1.2347532670441572 0.30264789554907234
Ni 9.257884544884611 8.387000098199971 13.00201941569395 -0.32259785630843796 -0.004723116507282188 -0.33502374077661656
P 1.1502425781568333 7.242670744152465 2.054653522601148 -0.705015770098302 0.42405821503846963 -0.8320596337243927
Ni 8.386990829823624 4.611462114652034 5.481631969520327 -0.7785140963977689 0.2025715616507608 -0.94348815941073
P 4.26013504084609 2.7611049240023653 4.4189746210041525 -1.159352838625971 -0.36985061864781466 0.6709177999733283
Ni 3.5745347057125145 8.523903285220168 10.800331443887796 0.5790941930021124 0.8347916879435753 0.38947404930569696
P 6.739527665784148 7.589688022957098 11.019246785851257 0.007946508540586315 -0.3045361137107207 0.46114175015432834
P 3.9541766692582665 2.5417595293764097 7.582949913352895 -0.37691421036281536 0.4253581647968159 1.170211892827662
P 5.470214256698569 8.22143909151513 2.131975879112874 0.02984253728272925 1.6431490929550217 -0.025108622142169662
Ni 3.822000354174993 6.843537385149163 12.556686907951843 -0.06676049335500116 -1.3085727241284688 0.7302040964384715
