# total energy = -381164.863884174 ev
CRYSTAL
PRIMVEC
9.22932159728805 0.00000000000000 0.00000000000000

0.00000000000000 9.22932159728805 0.00000000000000

0.00000000000000 0.00000000000000 13.50804507175997

PRIMCOORD
 96 1
Ni 0.6277378381503911 5.961569459053325 10.047445454798522 -0.28541996170656003 -0.8522507639602871 0.3483261143124775
Ni 5.552489013711698 6.3938247306347495 5.086265224417977 0.7700068302577061 -0.21257495272037585 0.16713636077160246
Ni 7.578158951092596 5.151594976524075 7.228532871802008 -0.052139401007716656 2.879875681675466 1.0287904203236604
Ni 1.6466586214256755 6.916471976805019 7.412607074087814 -0.4477951536440934 0.7231420473853676 0.7765271478747271
Ni 1.9979358263292866 0.0600994956225883 10.96479109464595 -1.57387226093607 0.9543104468372146 0.5516039580016436
Ni 2.8332078790390574 1.327914774744004 7.4705432167551615 -1.0568786939194446 -0.5239190904918655 1.6303462847633987
Ni 3.8635139532937988 8.250524250334154 4.421669167999461 -0.21444902981463712 -0.9596388010286633 1.9292239146367616
Ni 5.3882993845575715 5.7812285173067455 7.562235602740734 0.6909742044035712 -1.3926010034249823 -0.10530312951488961
Ni 7.450028280966302 3.1131978048203255 7.147768002450414 -1.220820459013149 -1.976966215018047 0.1684388816331099
Ni 0.6547723666337115 4.81221436700999 7.571407702428951 -1.2734918212649358 0.8085486950866463 -0.46083090378212893
Ni 6.31109309287547 1.295870570560579 0.25292217174061465 0.16159254813523785 -1.3434785348667186 1.9746113416326252
Ni 1.9604463224718347 8.756992495947525 0.36394998622972285 -0.9417621778585586 1.0060690674667447 -0.10158480012303797
Ni 4.081981222080047 8.881311456301999 10.851958024875078 3.201387761118893 -0.6171146381099436 0.9257143803670767
Ni 7.781628572471566 4.066355980812034 3.1037432878947784 -0.6939988501625081 -2.8552008046366057 -1.616232471069836
Ni 5.212766919302802 6.965332004727556 9.652876271622103 -0.6507492954452535 -0.23726577059883658 -0.21099398138650113
Ni 0.38127896024320174 2.6592997743650146 0.14237705076498366 0.7169233201691653 0.7691172285639012 0.6153146087867274
Ni 7.765301902770968 5.209665867285051 4.925938066303815 -1.8877944438473813 1.424619722423424 0.3441712116038395
Ni 3.7370814783200834 6.712134799206796 6.521116455438383 -1.237869701185952 1.1858370009594288 -1.5132855004919485
Ni 2.024940820983866 3.794349418112178 8.775812005380251 1.185841628945119 -0.2594309938419661 1.2314699683071952
Ni 0.557344880279596 7.446604202696703 12.171680853872191 -0.09963616103709937 -1.1450567337182729 0.3941449724188051
Ni 2.770328511786271 1.839902154603254 5.316522951396714 -1.253797428159802 -0.7166896068918044 -2.3603053550706
Ni 6.608627958792882 5.763794329028379 0.8522106264245866 -0.26345888405443657 0.22063690379290388 -0.9310049393420546
Ni 2.475691652814019 7.237624676393335 10.183241999347267 2.905834310522757 -1.0327146950787311 1.5532389009564347
Ni 3.2334743223659457 7.3528896723745545 12.814082237992233 0.665044371911687 -0.46307881927604116 -1.6646432582730557
P 1.1691519866209408 7.339627137405782 4.163422600696227 4.319308814962639 -1.2038699472017396 -0.6307643676828943
Ni 4.711079462216795 5.211880904440587 12.887187693446412 -0.10868747260609023 0.6349341827898678 0.6047324623955068
P 4.338002599974115 3.707686089401821 8.189549815035129 -0.04100369610587132 0.12488285141903008 0.8545189911691735
Ni 2.0427257234785263 5.408751560960356 12.01586498809814 -1.2946553427164285 0.909447267775937 -2.3076864433233033
P 5.859917712257173 0.6559989434585897 11.914676553240353 -1.7912263802126442 -0.5524830181724872 -1.9527024573746756
P 4.4686067282574236 9.019788195808943 6.443742438799056 0.4519631689788539 0.2870510695520798 -0.7363631740613318
P 1.0221288954222196 8.162753403046029 9.275623141409088 -1.3436721389347634 0.610875084958135 -0.8779083166273913
Ni 4.000237121719276 0.7401122106436357 0.32869951576365913 0.27288146291991716 0.2168491546156975 -0.1015752870413412
Ni 5.555220892870193 7.468588446465401 2.9216284705594733 -1.101090098329336 -1.2362902725139742 1.1043173470173822
Ni 1.559432304104953 0.3793749512215887 3.537933025258705 -0.13098227944854862 -0.7008356705786833 0.12986487801465377
Ni 0.6041283108688187 5.79950257383992 5.469798907899084 1.319679889785224 0.4894591090417829 0.541605452028035
Ni 2.785953753054283 3.687095473176815 6.515335208462434 0.09044523856645068 1.9891684135111938 0.5812379788179926
Ni 8.723388536433744 8.277363117202068 3.9518865523425113 -3.555602987222296 2.0672985821557166 0.814580760213339
Ni 5.709618211932554 7.251865519439138 11.875138140014032 -0.928554163808717 -0.515464531966609 1.0349579825869528
Ni 6.525351791066198 3.5425550694565904 13.545192168462911 1.7249502826932293 1.1181151721324227 -0.0064051321953954195
Ni 0.35137688157561003 -0.02447062297578713 7.58093051633346 0.24505415629500377 0.06518492133776516 -0.8479932742355138
Ni 7.730553507393492 6.291693059121564 2.674795805132287 0.9242642781841114 1.2629302436990055 0.6621626794885177
Ni 3.0879556105686934 5.546822210322118 4.193978115324701 -0.3000976183233929 2.503608103757714 0.395834444306086
Ni 7.582709006582927 7.819865651369011 13.331521378050546 0.6164016712033191 -0.3834494403781719 2.041839004432032
Ni 5.04340887011909 7.791660844921849 0.6472393944405919 0.7406728571802793 0.13299751010636449 0.45348140539559323
Ni 1.6389521379887055 1.8477378485409635 9.514229712599901 -0.3276457031449906 -1.910291596508633 0.4942503597828391
Ni 6.273308250730613 4.323198768317948 9.242217612307158 -0.4456778501907744 -0.3710369256464319 -2.3746505680486782
Ni 2.198941218872723 1.586215795043979 1.7426057246141744 1.1520300797123126 0.7204524163683463 -0.8631748670719586
Ni 6.654977611272478 8.795727958204967 5.283982209717589 -0.5139002728032827 -0.5150618972115517 0.017849369476595066
Ni 3.1331885151490404 7.467010232492081 2.412279753711756 -1.4268514399674201 -1.6374060198236575 -1.1910393710959746
Ni 6.23797840809981 1.9124538507685487 2.862192563151398 0.034676982556895115 -0.45174925319583487 -2.080645692886584
Ni 7.6845822570946325 2.1604641776167615 11.823226898409743 -1.5244489733079358 -0.19078845297290367 -0.7246944794741519
Ni 8.382051310765602 4.713322187336776 11.970019256571426 0.506279008812599 0.6310176213442811 0.8952815177985162
Ni 4.001021614045195 3.547280482055068 3.8788484709351465 0.7932449748500403 -2.5258532883091593 0.01648668480111354
Ni 0.6094065598240321 5.136246614900505 3.1008794294390993 -0.36598239394166004 1.1963566695438301 0.6056328627225892
Ni 7.139110898900859 8.59505482123486 2.0948547770697767 1.4404101524884614 1.648333979590071 -0.7619726470993199
Ni 0.13305266727232404 0.5193136152511861 12.242516819174094 -0.13262547147892645 0.24524750325273245 1.0790308045364514
P 0.10436793610812914 1.050619810835305 5.704163682937046 -0.33453266007281096 0.47239546869127674 -1.1630559985091713
Ni 2.463693534888198 3.8696975986863373 13.36090200005444 0.3685486120069395 -2.691060036158217 0.7499735657559149
P 2.3529601357543464 1.5668065319685924 12.457578468333704 -0.27242766321195017 0.986171042991237 0.8282340893307156
Ni 7.423964677102826 8.61658682825097 11.333587397585557 1.2963450717140255 0.2238538680683048 -0.9198831183972803
P 7.746464857627427 7.144307006894889 6.3212379630478255 -0.2763033441172725 0.01409350197858863 -0.6439235307726716
P 8.891168371644136 6.066940622406483 0.42654509038088206 -0.04553423698637319 0.5507711776877031 -0.28619257820652644
P 7.904507758674942 2.322835630439053 1.3037764073415472 -0.9729661142651888 0.7939047199212262 1.4819157279314155
Ni 4.813368032195165 1.135640320321973 4.531841424387244 0.6944901879766298 0.6460626886028615 -0.0007918997736760556
Ni 7.326355373115526 6.401512755428757 10.338463496817917 0.851902636592249 -0.9839871479660408 0.4429856480705919
Ni 7.265700272339758 0.8774638958619966 7.302205930527292 0.28192326140721125 -0.4952044961659922 0.19167959732860534
Ni 0.585818259981867 2.785584580195027 11.431156092558338 2.0046019744574446 0.9258809878519281 -1.2856816784629082
Ni 4.461038684642674 2.9584220835772275 12.616135442587733 -0.20897412274299493 -2.919024583960786 0.02408275198081659
Ni 5.7627329570580175 3.7269846006194305 5.4657869218511195 0.09270215292142744 1.2303412540193908 -0.4362740403783712
Ni 6.2563539871692795 7.9782961839187445 7.839461346738322 0.07799904238329793 -0.6182302397716256 -2.1354636691677285
Ni 0.3718050617425434 2.412286214236793 7.489305504394702 0.9441785006095351 -0.7158527128128059 1.3248182394530539
Ni 2.2556277114114893 4.068755604397198 2.1173724756200993 1.6644478544327979 -1.2217105749275863 0.3478833703481041
Ni 0.6002612251681116 7.702902460235214 1.961975621041303 -0.588768997087715 -1.2324066211888518 -0.010491129339310963
Ni 8.714417635953822 0.4279405637888699 9.73738178497011 0.447138751007017 0.6407039953941095 0.25471250532037426
Ni 8.56625933821289 7.073490423168097 8.500126635137908 -0.9922385893415556 0.4759016820723223 -1.543096413205794
Ni 1.9731274101872802 8.79943814544049 5.781740744648964 -0.3258006795164518 -0.4734113115503008 0.35241365411828984
Ni 5.602207368532007 4.930598873651924 3.0562224345191917 0.49174764796564346 0.7674023027553235 0.7120279397500769
Ni 4.837908798014211 2.1433253276257993 6.833828017599812 1.4190964786123497 -0.8157521548136208 0.03731853394480024
Ni 4.882135706553086 3.168001515776886 1.5380396598432131 -1.8764990734392197 0.3535053445205718 -0.27612645221977605
Ni 1.939514221352017 6.036649989304524 0.8119966268658253 -0.6880331194973763 0.04452842142967815 0.034106454765405775
Ni 8.60611154836958 4.092382667389585 9.567910215132175 0.7346292220893605 0.6155570638148367 -0.35985108423294154
Ni 3.771617599303487 8.447007275351705 8.337975763099022 -0.3960398754486728 -0.1228308539860078 0.6882025551957051
Ni 0.239599646182212 2.338119386812253 2.8725395554641966 0.2867001139705643 0.8281086194964449 1.030708977502612
Ni 4.062655022897992 1.6736451574372928 9.821672255127599 0.020446183669493818 -0.1050475618606578 -1.3912576020232106
Ni 3.8887930648313564 3.804658570206903 10.579203887135229 -1.0365428105755696 0.4691641062381726 -1.2112001623145658
Ni 9.21565285628724 0.6343257278238152 1.2551258850166371 -0.3986192061400748 -1.2906706470370675 -0.011442437508986745
Ni 6.31741517809023 0.18915032910057678 9.475582851828682 -1.0267695332388898 1.8095881705492836 0.8730427610049739
Ni 6.079704774015261 4.113739317297547 11.312285200674335 1.270075339384219 0.1260025668457701 1.710568302939944
P 3.912244770715597 5.843664877128425 11.058050619419065 0.6032836457641222 1.2856796215803794 -0.7641377730714388
Ni 7.193296245318166 2.017335860083192 4.759978253289556 1.8438267800171795 -0.7805367832547525 2.3447152139418264
P 7.6415643896698215 2.2996423455562915 9.481836640064481 -1.200478147911371 -1.127183710092594 -0.7745962494006016
Ni 3.327594942833275 5.660638202830758 8.670678958521314 0.1685574094888452 0.09882857753413947 0.08240565609142582
P 1.9452733179564112 3.7338881330875187 4.4317734291573 -1.5169925170298906 -0.023060224253573187 -0.46006034416469155
P 4.349797672827346 5.431686424841638 1.4266251367840341 -1.429850374694744 0.6698865304953366 1.00837123323736
P 4.1741544557148 0.054168733638639895 2.551345323929213 0.6152009660269986 1.8849281780431795 -0.7954931474542687
Ni 9.155477680228504 3.412209362174761 5.501826499303842 0.9662987295473421 -0.3410959151126255 -1.5961087037367674
