# total energy = -381169.5000310471 ev
CRYSTAL
PRIMVEC
9.19263070455042 0.00000000000000 0.00000000000000
0.00000000000000 9.19263070455042 0.00000000000000
0.00000000000000 0.00000000000000 13.45434424145857
PRIMCOORD
 96 1
Ni 2.5641739525967697 7.524278335285572 0.9413143269728975 1.7481125797423054 0.3043165415007469 0.7008912064069671
Ni 3.3586746171710966 1.7394111485794532 4.06372271409482 -0.18850197093157212 0.2050825009980726 0.3031209785307489
Ni 5.545196925601132 1.9552265336654377 1.1848638781279885 -1.4929527024718676 0.8134600163453346 -0.7151723989163296
Ni 6.445752967682679 8.020275903871822 6.170498034103872 -0.3331020982738715 0.5458619133115438 0.10659253775027448
Ni 6.697952784091674 7.836276212774958 1.685143373978073 -2.147088655001167 -0.8979917176408276 1.3271859683542822
Ni 0.8694435843218878 -0.2048072101215314 1.385959104073615 1.1564639471139502 1.7986650958788764 -1.0223827170251039
Ni 0.12329615591710048 4.034994824674016 12.4040032765784 0.7013295794959663 0.43101279197943193 0.4479956996906736
Ni 6.805092891992051 0.37825192293515064 10.651145148175978 0.117292697776598 1.8031367584969848 0.9699579235664844
Ni 2.0744549506081995 7.038466201238458 7.3822236976712166 0.9164440108087444 0.634434874555946 0.10030079120429176
Ni 3.429126936943596 3.1433832120207894 1.99249437677474 2.750975738677243 0.20977450715710322 2.1284692401277665
Ni 3.4768550742425033 0.7453265265055593 10.364083200046572 0.5337525316425195 -0.6852799822322715 -0.3047852536070493
Ni -0.21015915956980247 7.242836761413591 2.2896332864039657 -0.323899605838997 -1.9472949132058592 1.2326025392497417
Ni 6.441809329219422 2.981914658158059 5.490717720499391 2.3990315679962038 -1.7115319524047943 -1.6074884063286186
Ni 5.3860081440901215 0.1589442575410277 8.745323487603617 -1.0095796517231643 0.8719101900624275 0.5833249432540083
Ni 5.425058438243773 2.6747980674378793 3.4277094333281317 0.6085911740199648 0.14818373092849962 -0.43533198818007607
Ni 5.006986797986265 0.8589575507670222 5.730729947457136 0.30279136310547206 0.2935924702150234 -1.9454465471432107
Ni 3.3975778292375396 4.987029597278267 3.696217895419329 0.7102914166749444 -0.9817618581799481 -0.18858835999779133
Ni 3.3193669293648322 2.0367651657612202 7.236795364681534 -2.583040793263745 -0.9920280159926465 -0.05358384676372707
Ni 0.3938600901770254 5.1818765923067 10.336420736494981 -0.45734834455016726 2.558364116452671 1.434717472979058
Ni 5.013394061410252 0.8154368804253015 12.291996590117535 -1.2054118377675627 -0.32882095440001435 -0.5261472084914358
Ni 0.894104654031398 1.571673220749494 7.62181857920651 0.7133543718709844 -0.870421778442359 -1.2894627427718954
Ni 5.003980807828958 6.806067310819802 -0.38910658097108075 0.9064066811774002 -2.4211083452905853 2.183317555426214
Ni 5.777816439150598 4.866486634181086 1.7294748343255264 -3.917397054114221 -0.8542847636711804 -1.083824626380669
Ni 1.018782462305206 2.212041050560576 2.8412343187960505 2.1855107064227908 -1.2782146806619017 0.8394896076398768
P 8.296735072039642 7.771679598599416 10.361593835720582 0.9018476010518083 -0.8417627199447697 1.9205191877739118
Ni 2.600576769180681 8.920611322822557 12.49847961677019 1.3310971304832302 0.13995182993701058 1.3296681113461875
P 1.5880728734731548 1.265714901466075 5.189084533842924 0.17244311769649656 -1.6351449917036227 0.18406218999266366
Ni 8.843990748017783 2.061952973195543 5.288525813741022 1.4380768763695944 -0.4690687183108889 -0.9759622207790354
P 7.378988811015692 1.0398152007759107 6.394150136648893 -1.388783429451105 -1.4349725264126578 1.621321455556969
P 2.0983465971490043 4.001616383508313 10.923433619908415 0.20622124258820612 -1.268931198477447 1.4991169223010505
P 8.367720564378269 8.035590826202325 0.4776426433657706 1.2845758469932393 0.7332647376416662 -1.9691312923546604
Ni 2.0140134053962755 5.720417654617784 5.460755260809087 0.8776751175706626 -0.002363615136170123 0.969431618749369
Ni 4.004558025252468 3.134172196309406 9.738509989682498 -0.7367791785528278 -2.0660914492214935 -1.1707096583996872
Ni 4.234153163383726 7.724889109606459 4.685340335576052 0.8790843392133636 -0.19393342635978858 0.1481107115987191
Ni 0.5260979177333105 4.590799646971107 7.519807959097502 0.6699276681459172 2.30750800876391 -2.1898851813414026
Ni 7.531641632276409 8.673743232074841 8.655556531991607 1.0752744228178126 -0.1566200346213109 -2.834973936066769
Ni 2.474352760465102 5.30677686223741 9.200363291217739 -0.010215764190737246 0.26523345945635607 -0.930271660720456
Ni 8.941184429770738 1.7598279808099755 0.5364690434075451 2.1353957920442705 -2.125798378163823 0.14153948613910464
Ni 4.618524620409763 6.8307035604270965 2.640805558558084 -0.1661472573854558 0.19536784481347 -1.1816517592334874
Ni 4.2326915351420995 8.38810981871744 7.008448585765452 -1.2510908278619164 -0.22569683481431455 -1.1364368532597462
Ni 1.8141931972941308 1.738988287578731 11.953471538937192 -0.4125926376010314 2.912526892051584 0.08556091389095588
Ni 1.1211883655235844 0.8662197288229035 9.82623250428232 0.8029380337680881 -0.7153845149271357 -0.207616580273836
Ni 6.002980729404724 7.480503029080373 10.198083598634799 0.1713984784820661 -1.5557259290443464 0.5012319333069949
Ni 1.9759007595485736 6.746848385457792 3.2595707068105315 1.74208334282909 2.811405918938842 -1.2348715377895765
Ni 5.164971344908262 0.21224220962988188 3.1788042556725893 -0.14134202541631785 -0.04403374118144675 -0.1354192321739797
Ni 1.40194968474223 5.7080167961400825 0.962439911011152 -2.5026709366554254 -1.1006699800727817 -0.08451036113925445
Ni 7.176971564235881 0.7636446812042363 2.099725491716577 1.5836967032256597 0.745025220611704 0.36314980958887133
Ni 4.074137045132172 7.306477342022284 8.966123116919851 -1.884881126855328 -0.07296945037919045 1.2016888803900205
Ni 2.1696354462924985 8.285124779780682 5.31590514427474 -0.6925196945138202 0.9351858101926217 -0.335084675921539
Ni 6.335717181190399 4.549230572074023 6.937638672668427 0.08382361948487499 0.9778571238089029 1.6517581747802714
Ni 4.531093512195222 8.890716888597588 0.9025848556219684 -0.00506353056583644 0.33797896675019856 0.015123743015315888
Ni 5.401745927421347 2.117476461116459 7.563642098137584 2.8335459453709912 1.04585251801227 0.7193789807985095
Ni 8.199274804003622 2.836551592844575 7.265251152241004 -1.7184667318514146 1.344005611014782 1.8818030021506367
Ni 0.2817954901443248 6.610457327463979 12.449412113214649 -0.13659191232584217 0.5197826997259887 -0.07770876483638875
Ni 2.9512664282361496 9.063565918958014 2.8067242648218933 -1.2014507962372856 -0.8574904150926715 0.01862687107256792
Ni 7.859708227793239 6.274558610803337 6.506681722308478 0.8621083734806572 -0.37834297238954195 0.6668184330929742
P 7.166216186608817 6.787764783592891 4.1821614840818855 0.03692618360238802 0.07664484234824866 0.13129364004138033
Ni 7.633918838668481 5.153361052649303 2.6505460697834153 2.844402685579837 -0.30090314494382375 2.456516292476234
P 5.997244528003623 6.689946002969304 8.020685895189914 0.8045074351377371 0.42161361015271903 -0.9465110053974537
Ni 1.7868818922257463 7.541257123727614 10.425192130229203 0.2933600424892432 0.2615943200418721 -0.47711704253666226
P 2.679532272119878 9.043838534011279 8.40249352758331 -0.8006752058758404 0.576789970348968 0.45982740221827906
P 2.7058783509909614 1.3337403667996475 1.132509089923354 0.004567307655708263 -1.2539275259797629 -0.9724300392560608
P 4.26868987598619 7.963934271840813 11.61793317339021 -0.028866289412388994 0.7753786360925807 -2.481500473225397
Ni 7.39494721747773 3.396005889430507 14.055349025442228 -2.2557565872232312 -0.040832717745645807 -1.1910421993094518
Ni 0.8602886436562521 3.383099436278029 9.229841299283303 0.51111576807961 -3.3495995170718507 0.7890309367686927
Ni -0.10441449297180881 8.535384951164625 6.2509960604326595 -0.5257605145759785 0.4628474199915255 0.19300088724319017
Ni 7.0794469477867095 0.3707341897527458 4.414276322219621 0.5096391835340836 -0.39142423105353236 -0.24041202953730206
Ni 6.888938874330905 8.019586456588035 12.42040476782815 0.28139001461156055 -2.4443508607582936 -1.1080709005225433
Ni 8.272843425498838 2.0700149101006162 11.871292180499012 0.21918680160993864 0.19524905984741858 -2.2202208562104664
Ni 4.295045147487724 3.4685633215761675 5.425894967614766 -1.0769744362280549 0.3196300319293657 1.106294782458727
Ni 1.875223070854886 3.4473743083878046 5.2866826913357 -0.5039950978744288 -0.7878392304534367 0.23304633320085025
Ni 8.024973338032018 2.5658837818605593 3.2757966188186787 -2.0288878435880027 1.224733678024626 -0.5643005796327056
Ni 4.77115905640958 5.106046583720667 8.867717846473525 1.3049284425076624 -0.43144679419305704 -0.46910522797577925
Ni 9.40828956085112 6.618684731717161 4.600686321020601 -2.5891543623606506 1.918735870621244 0.47948939942358065
Ni 9.69335303112059 -0.14309064706612507 11.892039028162705 -3.4977480238870404 -0.6593205820540322 0.2973069429521331
Ni 7.049387046213631 0.7788051673431725 13.223198104331857 0.1640708344724013 1.239757405126968 1.0330859623752209
Ni 4.056744588319859 4.780958400469794 11.25863553518091 1.178441736936622 1.1502794155697933 1.1105155054082938
Ni 4.377319190019545 5.877014114341759 6.340588356066111 -0.40961375747836554 0.0957460819540738 0.37587985556103004
Ni 7.5133758755713 5.280669791758039 9.357604154336293 -0.9233448516936356 -0.2508581645712905 -2.4248575279203726
Ni 5.890766289495681 2.803182344309322 11.26521470079432 0.7029797135048798 0.2930139720037341 0.08373028844012032
Ni 2.714013828939639 6.492892776632755 12.303082902440817 -0.5229592976817574 -0.9017964360988986 -0.039400870395125694
Ni 7.519902643191142 5.615014953872549 11.600550828471391 -1.0907084979846957 -0.3572668684455331 0.34559534564487576
Ni 9.495343771217192 6.992760442638658 8.649945350364632 -1.7118538545205875 -0.4875333527739797 0.28699450528253156
Ni 9.31231849894808 -0.04035564767761946 3.610082948098305 0.6659059485810339 0.4641411991022846 1.2501251215145373
Ni 5.656271479334316 5.008338114662486 4.270018211086285 1.4300385794461499 0.9635653897765792 0.04785594314101436
Ni 1.7373795772498966 3.3637765270711144 0.7176006338038581 -0.010708644666755751 -0.31863810032974155 -2.7033617363437057
Ni 7.449275663440083 5.98060586688825 0.4948668750408402 0.5724592041840979 -0.4390315485188504 -1.2059106317808523
Ni 8.286816223783571 1.7338312218960101 9.37818921170406 -1.3832226475338758 0.7378302455251615 0.023306793046740507
P 3.37835603896558 5.254507565495965 1.3913947064589853 1.0445528253642398 0.7131815937385458 0.589778412188836
Ni 3.8766793430558018 2.9483707496442477 12.88604551287777 0.19263013416733274 -0.20442892657447373 0.14277952919379283
P 5.770140592724446 4.271475243012686 13.014131029259573 -0.8958985825572249 1.064869939655037 -1.3522200285047745
Ni 1.0539166958869512 4.781022748882948 3.266082766221653 -0.979130848315004 -2.081853082931124 -0.7661278069182741
P -0.07130723440439503 3.507972128317387 1.5669601591175313 0.3341590787834761 3.41148545594337 2.733240011960377
P 6.312000194628155 3.3317585952120825 9.07325954776805 0.46176087179556596 0.424930590341094 0.6024225833154077
P 3.01849213472053 4.1746216885864 7.196379045642941 -0.39533539318248045 1.2529764749204033 0.20567102651169095
Ni 8.71920998228293 4.495757040743566 5.082728557319973 -0.821073052805902 -1.1189456384535181 0.5453721181593187
