# total energy = -340857.74368095386 ev
CRYSTAL
PRIMVEC
9.36521496358402 0.00000000000000 0.00000000000000
0.00000000000000 9.36521496358402 0.00000000000000
0.00000000000000 0.00000000000000 13.70693874964111
PRIMCOORD
 96 1
Ni 4.033897665777289 6.117264601443746 9.560082359443266 1.831618925097078 -0.5151467436158742 -0.010039129403556904
Ni 6.723905749996418 8.344303296094187 6.994951921312674 -0.046984082059022304 -2.890996731289292 -1.1560206889289446
Ni 0.8103130286684398 7.74277555477737 6.713110466991344 -1.4378138525161948 1.0198424671017532 1.0906205662565798
Ni 4.111422913210274 3.1565175249511017 4.8879902636864845 -0.992395169524078 -0.7439268453412026 -2.82979239186583
Ni 6.9744158784797365 8.78169628426888 1.4537032797733025 -0.6430673534199635 0.303677108144535 -0.8669461611889326
Ni 8.051471762301656 0.7012579128454297 6.0474600370240195 -0.11770407428240375 0.6934483769756767 -1.152540443689828
Ni 0.6946563729909346 6.829517276367736 12.645322171699549 -0.6191599506747466 2.3474794069505247 1.4197263988868645
Ni 9.15058272678372 0.28452084225205815 13.182126914102454 -1.7685250819603864 1.674639450253819 -1.2632225781284439
Ni 0.7116870159550421 2.1417122233576253 6.935272090524235 -0.6837218937165321 0.8871282925637625 -1.6218403041749165
Ni 3.2542248101006948 8.487946959434018 13.089975074323393 -0.7348079137590701 -0.6767164089329765 1.0027369177697183
Ni 8.487029168391684 6.7661335031584535 0.603659264186562 -0.18580796903917676 0.44436478780630567 1.846625168697923
Ni 8.215981124032487 0.04217437143814452 3.6532279101046607 -1.4322304448911463 0.4418314798614907 -0.7687616449966954
Ni 2.943280951044164 3.7070610373448494 8.946669224128236 -0.878435649885771 1.2752982783460554 -2.207670530349282
Ni 2.8534123506132723 8.656586380855346 8.125706073282846 -1.1770893366737858 -0.4638663481743431 -1.481432103426778
Ni 3.2240500882803182 1.276853374608981 6.386076232528361 -1.5812071040345863 1.301800695511958 0.7782811544513564
Ni 8.012915173308953 4.194211411314597 10.351233222277854 -0.34829757506738723 0.103980296938408 0.790537089000574
Ni 2.3192766944049064 8.110997067047252 2.320393027999254 -1.6651950170114675 -3.9517976430812776 -0.7397516309175904
Ni 6.982919493443394 5.692093218475628 5.404001419851717 -1.8317161127965744 -1.902814314294981 1.134175053808763
Ni 7.910581472088824 1.7535989950273818 2.076711077566599 2.3211178862378605 -0.13526419465335415 -1.1521532355537383
Ni 1.016181988156976 9.154459925676841 3.816409284388523 0.8364101973836047 0.1441404140970614 1.7266677796049683
Ni 2.4585561676862966 1.9194194868186876 12.309899514413939 1.7751238182238267 -1.55742388557206 0.8459271357351045
Ni 8.937449170238676 5.448475888024525 4.26484573375831 1.2742934912306247 -1.0663154138523119 -0.3331365510562327
Ni 3.325203772446019 5.875707618230533 13.285354056806652 0.4410136119458856 0.27174426399168033 1.6533036648905204
Ni 6.394165905001496 5.896048864597342 7.80488191269916 -1.5110915781644234 0.5280886484885228 0.6294492484158966
P 0.4797097108765478 3.355528337701878 2.1043581279346726 -0.2789222697973583 -0.757237960627812 1.071948186658057
P 5.086388591394725 4.06696623894543 9.071553425867075 1.2043975375704354 0.2248314014902257 0.2793285040968415
P 9.230196417098748 2.8267589495267447 8.877956643744591 0.11394614990186827 -0.6683024738376684 0.6520294477092576
P 8.45591792509954 8.98538033916378 10.355523427140024 -1.0485426632499233 -0.05423973518017111 0.8052134600658263
P 2.2259429645284716 8.825759619515582 5.739602016216965 1.2849931370363161 -0.08465537135755097 -1.0368168901725627
P 1.8949575459760981 2.4501555700845343 5.1306167544204575 -0.4858477375414406 0.6782081629871546 -0.11432333073562892
P 2.0804730843186925 6.75587859304259 9.33637172939607 -1.6160653493643522 0.4866332095572135 -0.6975143195149341
P 8.919617801416207 7.325180630515858 3.2938864944300845 0.9449228349747275 0.5351748659113428 -2.367022362079459
Ni 7.347806989273781 3.854488247430625 8.134916761957689 -0.06574053673091904 -1.2138571403214384 -0.18480806701975266
Ni 7.4145809702108645 1.5346402749279398 9.960160586096821 -0.23686287873346304 -0.013733290425692476 -2.7538026666030766
Ni 4.998861294643254 8.876416065923532 8.4800989095006 -0.1690412911037992 -1.0018863968439646 0.7433102948031263
Ni 1.1465083161682608 5.203060436347626 1.0773611898217157 0.9401608948097099 0.16070037533827164 -0.38438557903919607
Ni 4.413198227058192 1.8748597951919492 8.477810051023596 0.19199789989997257 0.10770042610247257 1.033842380925271
Ni 2.1302211048990274 5.9749507985938255 11.382186963609032 1.380135781078436 -1.743146751096598 -2.9683563403163777
Ni 0.8199638824350127 2.5135299780790996 13.737504750333471 -1.8443985933602496 1.660597370338456 0.02839269221008013
Ni 4.887049996128829 4.922637812056027 11.783073408292722 1.188012925564825 1.5471461577951355 0.5136503615760057
Ni 5.065476066930136 0.13645492452253702 10.83781606423571 0.5163867866705623 1.1815322029364879 0.25369743379229853
Ni 1.8212158452890574 1.480640446865776 8.683304401923426 0.9600812878827207 0.10274128232498435 1.9855290169863933
Ni 0.8972081734264671 0.8301607282196267 1.5070644001917202 0.04690514919197083 0.47639379121739245 2.5191954166730097
Ni 6.2686626625698185 1.582196835264337 3.900980919375093 0.07032095701274986 0.8566756325008601 -0.6319948976558858
Ni 3.934757502775891 3.273629534995735 10.940713551381842 -0.6882570625827243 -2.0331358202310796 -0.6759990711509777
Ni 0.31982957478066887 4.985431576738096 8.782076511986418 0.7858371124217434 0.5769684049083611 0.3925763423801046
Ni 4.585714847372642 1.0890620890899896 13.395242676739535 1.2284777184480906 -1.0467662880757909 -2.007274636193601
Ni 1.4680535982852092 3.22493041846378 10.7572330741974 -1.5178044714082248 1.3392506128283 -1.2191911509398423
Ni 2.9831393048826254 1.9807429127900797 0.9379702704851849 -0.8163651058072716 0.8624963529476952 0.1788449074577823
Ni 8.851045699253328 0.5669560511864882 8.139851293592436 -1.0501115503989398 0.24640732788878855 0.6635415621139154
Ni 8.582854045383023 2.4085459210938667 11.676721093437235 0.16315552174698353 0.23965329699440663 2.1398193750332632
Ni 2.604672247711596 1.7506489523913118 3.223310236317621 -0.5360333572568962 0.385577028244136 1.1599611616339314
Ni 5.422787104053919 4.721941260656068 3.301809466081245 -0.9895751835767795 1.0752839358995094 0.34628131596830686
Ni 2.9208044357217235 8.371827662149459 10.7550669000332 -0.4361632258321198 -1.5198279295961568 -0.28846929005584515
Ni 4.804158480662611 9.050702711819625 3.5149111808962483 -0.692453360052259 -0.5003443884957189 -1.124633689977231
Ni 8.161644148240486 7.146136455543183 8.54679703219847 0.9448973810534307 0.8174771079245275 1.482518394512421
P 5.313813465598953 7.756907663786354 13.682827817247219 1.2353405070061951 1.4064859889371906 1.10609269375025
P 4.742947437267832 6.62059806644565 6.60065858779023 -0.17954758995176173 -0.08677421747276669 -0.23906682836331727
P 6.537266385887702 0.7579455575315686 7.92007499024814 1.2769239868749362 3.216835463132531 1.1935379691481123
P 6.050949516027829 5.057955799511837 1.1184857206900078 0.9836565040994996 0.7003826422016647 0.002826927925833841
P 3.4067092361340188 3.874061546190583 6.7229383233160815 -2.6769711621653185 0.8385568114129622 1.6548021038129177
P 4.046924679449587 3.3054899954652948 2.5549045601803537 -0.8059418535914186 -0.6102675332811232 -0.8857828342794616
P 6.645930972256985 3.5243176025586895 4.722726065649408 0.4435703169294683 0.14559565848634926 1.5450188270394876
P 3.1626985666647727 1.037103877836281 10.469619838045562 -0.28716419809117644 1.6909381874138427 -1.202183560638252
Ni 8.142923084019836 7.4978564594805075 5.200508415337057 0.5077363100844159 1.8999943283476826 1.1594965632926868
Ni 8.314063017770787 4.405724785713481 0.9696865066480922 -0.10441378493140083 0.12483374334864954 -2.7092631894298047
Ni 7.142568308735745 0.36086794567355834 12.07940378630378 -1.0102198564103249 -1.0622636123804414 -0.3723116785937975
Ni 7.031646705619501 5.2096067214352875 12.712486682090361 -0.295257259511956 -0.6821506925746703 0.320684441335809
Ni 0.8868277694333865 8.709649687445742 9.348391982486218 1.1411473713615379 -2.834703713124518 -0.7544195173424104
Ni 5.832796204394107 1.9266962586543277 1.3579149271193631 -1.0239503186225396 0.4311284916216897 1.0906606754658958
Ni 0.06827990746368753 4.591305880559099 12.489666683962819 0.001030755257359515 -0.29641965525117336 -0.8186423318772224
Ni 6.7781678040706765 6.806048048285221 2.826644693907189 0.8041695921823441 -0.8078809795956603 0.022487125358922562
Ni 7.462624521712582 3.9102581010744304 2.828728454181874 0.6114903499446308 -0.5602202389157448 1.8273562931659821
Ni 2.5486682636998483 6.158715041784213 7.181161422065848 1.1420498285711493 -0.3532947711716625 0.9867176595233265
Ni 7.625907040315396 7.38238336201147 12.221448807491303 -0.3317934067647769 0.6943819445335396 -0.848979292297867
Ni 4.568623330512869 7.074998284547658 1.7793111920347824 -0.06442824567739872 -0.7889183224502284 0.6971988451570444
Ni 1.7247728641263518 4.799606986309817 5.4468772458722166 -0.6217865896643162 -1.4582086141224628 -0.04683444385503547
Ni 5.1150742440749895 7.327418916833384 11.71355167335747 -1.935501520115357 -1.5032857089667593 2.2526337253235336
Ni 4.464725638434888 8.832230982885502 5.9185459833921605 0.34779980949536227 -1.5108537511220044 0.3238924067501454
Ni 3.0045200900830973 5.284687647826957 2.767184009143144 0.16521497537917354 -0.09875632953530734 -0.22994738256055236
Ni 6.035515642173086 2.3947509598147185 11.533347148281276 -0.34336131410803444 1.3359650000984928 1.0788315440414518
Ni 5.481497635119078 1.8093501182417524 6.340952754975619 1.786865789251103 -2.028676498908145 -0.6900648052154243
Ni 4.453019120037783 3.7156583044556832 0.37411410537025 0.02322606040747613 1.026453801770684 -0.755024497916261
Ni 9.192576349577813 2.5906244256350703 4.686827324593584 -0.7287059146263902 0.23841325393971843 -1.332630279298305
Ni 0.8096097010431418 0.912098864827584 10.932709102362638 0.32791078388091915 -0.17245931564641268 0.8407381353349973
Ni 2.459605071734677 6.797375859456646 4.475671701396916 -0.17256807331013505 1.3172172871773444 0.5076167537874161
Ni 5.446743323301754 3.984383775564896 6.501378883089538 2.113139294638916 2.4807548533086243 1.4931205955082993
Ni 4.892491185879803 6.751102333536571 4.4080005328898775 -0.34267405823302277 0.24055601131433413 0.557855081117678
P 7.234862499778518 2.020676188346283 13.394872750758186 0.04511386161950295 0.25581139481150783 1.0045546877047475
P 1.0882098545506804 8.517859455242299 0.3705056881395265 2.1710469655889773 -3.8285289302269034 0.1985308159224839
P 5.8395391589908385 7.520454722594278 9.948399749454355 2.1051917576570647 -0.2658808632323679 -4.243570543589059
P 3.4636684720469706 0.2192930582648637 1.9415054726874008 2.709123321417831 1.9914111867987834 -1.7399608971694485
P 8.836211199140516 6.1222843565324245 10.843558813900593 0.1021779536223466 -0.37900117479883116 0.19930240398118576
P 9.116839858155906 5.951771892167558 6.943825341125895 -1.1231187959946012 -1.2825073944999847 -1.6377145522030117
P 2.215247889320877 4.016328522966915 12.816617568014813 0.5403787787097855 0.7961567491801966 0.28941725579141125
P 6.396872452054907 9.044521670105953 4.859698886545834 1.1463276300108967 -0.6783308046079479 1.023191071859012
