# total energy = -340859.1688331014 ev
CRYSTAL
PRIMVEC
9.41775173104994 0.00000000000000 0.00000000000000
0.00000000000000 9.41775173104994 0.00000000000000
0.00000000000000 0.00000000000000 13.78383161932117
PRIMCOORD
 96 1
Ni 1.8403510603721156 1.5806094759070957 0.5507632885327273 -0.2101714854852058 -0.2281805204681167 -0.2657736482305423
Ni 8.405785786421326 7.735062947261998 3.12607661234968 -3.637463312333213 3.273259093337898 1.3369826427297298
Ni 4.111922123263605 7.688473330933193 3.6876298186968226 -1.8339915390943125 1.638885175472345 -1.156868895861853
Ni 2.388887992466571 5.792275004575669 4.651933164987641 -0.1437264664880944 -0.3111559330200835 -1.2254996096563733
Ni 6.73434209796292 1.706317622007135 5.890120733067305 0.09384063740124483 1.166163176679585 1.2079672571995648
Ni 0.1514157821810461 2.65530676269612 4.228369794381612 -1.6872363130822234 0.10051882075236883 -1.5892060630796632
Ni 8.15297566700947 2.0768778875598954 11.364671882943155 -1.2267252545333585 3.754896392342417 0.426172176057679
Ni 0.7313458468953603 3.992683972396614 10.856848832059747 -1.0053807831504684 -0.40848170075645135 1.8004471274799636
Ni 8.1751827248836 4.873262566691331 9.540713360711713 1.8944862540452596 1.4192378892862203 1.0654664355884553
Ni 6.586473982745906 5.42264709641457 7.936385277825822 -0.6967049362397615 -0.30456388162486253 0.08633738704566421
Ni 6.440414075803629 4.3145262097971795 1.2255451785587854 -1.0547405645305188 -0.03974539821873801 1.4966520057003256
Ni 2.1322260127194648 7.908001116788146 2.0311029067298656 -0.4403667223905061 0.8004682320713569 0.8607138071259758
Ni 6.750427617406947 8.360260376004215 8.734648015738506 0.25684420695139637 -0.03158368834355206 -0.06498077574675905
Ni 2.490853987209239 7.171824905183863 8.165018145764199 -0.01789796332634337 -1.400474235525472 -2.045450890153006
Ni 5.989529808296475 6.94836049923078 4.493529411244845 0.985395084057161 -0.13102418843007754 0.5348550206780789
Ni 3.8513046879155084 7.0620233412506614 6.078807266536252 0.5094144691177872 -0.4239877668118505 0.8250621193606372
Ni 8.3126630602723 6.195298259310841 0.9490522396235721 0.48994324776705306 -0.7903144314668067 3.846610213208647
Ni 9.140907209865345 4.849313224802479 5.2268567530412735 1.9520825644024897 0.5986060377827948 -0.8852429026155915
Ni 3.1296600667691483 3.1219469283472177 10.190014582466251 0.41209512913932256 0.6395423709858405 0.3364013378504336
Ni 3.5102408198444173 0.7820255926706181 2.1096846246695367 -0.32252920785403166 0.1715504306788981 0.2748478426176686
Ni 8.228694388514139 3.782536266966866 0.06278155636400154 2.248094442692283 -0.1789210121113564 -1.324782501119112
Ni 6.568015189941285 3.38678351633637 9.482558745625726 -0.9216481807175031 -3.302182204130152 0.4096322694211268
Ni 0.46192563928477465 7.351072968168733 5.293886657075766 -0.05143748984468561 -0.16755956435195013 0.6500450702893773
Ni 2.913277809892125 5.723318228598408 10.075953369560839 0.6973705948482183 0.11915289091378835 0.5288273264267602
P 5.404244810118535 2.283409176440167 1.7140053325002023 0.921372044237981 -1.1864844047354404 0.618187045238516
P 5.400769659840521 5.230826335269409 6.0221830360577915 -2.890318474275345 1.2745392886928437 -0.4079728794408328
P 5.587476581958689 1.2077324435023262 8.700547279582254 -0.11442540353113197 0.3012913815211779 -0.017124061274796314
P 7.586441411930509 4.444717205578341 11.72148034785647 0.05446573514804814 0.45016288254532155 -0.1731781960903082
P 4.867527156069896 8.926804048834606 5.532458078099202 -0.03504079365421707 -0.22318306725352527 -0.8580673706420643
P 0.804967235156361 6.055444650561547 10.360092580882826 -0.5153388050220221 1.8143449685079787 -0.32285110996982463
P 1.1513766189396477 2.253479562392675 5.931788632498307 -0.3012427876714296 0.8141300458291656 3.7584493998009982
P 4.9137494800928945 2.485627135165073 11.393522222676662 -0.9789583272928817 -0.38758814513689377 -1.1031408102107776
Ni 2.383086657585119 6.324020085868778 12.401699105783605 -0.5744890901299331 0.3451569725558766 -0.0974430100405225
Ni 3.585036601708855 4.4584765404189275 8.191344528114216 -1.0212694293562672 1.82946434064792 0.29517498421079486
Ni 7.151096434284388 6.890705024970634 10.820321141359745 0.022452672576561333 -0.3836610421683457 -0.4794611172888065
Ni 5.525517195294607 5.261999092505785 10.09602259786015 -0.9031712049592382 1.0095837654882225 0.7463933046038241
Ni 2.2278067719919625 9.313986645662958 6.3777097450013605 1.7976775351546268 -0.053707259715468796 -0.4871587430433803
Ni 1.0279946574430476 0.8219220130574624 2.787655365330107 -0.37040803381318144 -0.9003946706553654 -1.2049217855050218
Ni 3.3314542266796625 5.711461279546868 2.416856830666144 -1.9751317329124694 0.7499098023975149 -3.021027445457849
Ni 5.332123669660481 9.207349446210548 13.182952442836887 0.6028095343411812 -0.4338332921473625 -1.079742228781179
Ni 6.293939787798391 7.030181923662691 1.980749956929261 -0.7862415469490137 -0.9089420460047442 0.024260415209261442
Ni 6.388023124593372 6.602088614618387 13.112861769587342 -1.7325730893458096 -1.0605137195688703 -0.7396228186492101
Ni 4.189825763100249 1.4951433816714155 5.932643764328235 0.66343897509778 -0.4918605193944239 0.5111977862704551
Ni 3.640026852314049 3.3617605507843917 1.5776975071646524 -0.9916999432292662 1.0543052767653134 0.4172936426211265
Ni 2.4145231118615595 1.7547813708706952 4.472039986029752 1.3729066103198484 -0.7905897966153804 -1.7739771062138932
Ni 5.064301654467724 3.0996645284616395 7.462359711502591 2.3733033099921643 -0.8384331413509043 -0.5457228166305182
Ni 9.347080624191243 4.047664805250377 2.278467682264359 0.5601680455215706 -0.8195787276485628 -0.9347070707839903
Ni 9.178521709080476 8.171010660999698 9.702383190650755 0.26324214005794017 -0.6270856332797264 -0.6969664174312642
Ni 7.08187596126706 4.20038306245432 5.742702786368688 0.5471574921945158 -4.246917862794738 0.40342922593420844
Ni 9.313600517854288 2.734415874715923 9.113483659473625 -0.8781520572070812 -1.329223053388969 0.5590619569415856
Ni 9.280412361811695 1.1247055468872569 7.520224259844504 0.6762350984211838 -0.8426680053678585 -0.8202361587269035
Ni 2.4985671256311694 0.8277704366960693 11.001137259957865 -2.312214413100644 1.5176854293318573 1.3862750612069543
Ni 4.358959161048301 2.997547849696077 4.036402116314129 -0.1970670868927638 -0.9829047135351394 -0.5367111000502112
Ni 4.094715891399297 1.9549933485408133 13.476686459316701 0.045575888857586025 -0.2865383915817194 -0.5962354806680893
Ni 0.3909402796492909 6.358215941314482 2.9980799526519246 4.483117911133221 -3.3768429261688357 -0.27433773575046944
Ni 2.4450742975034934 8.213748416993255 10.14574079121431 -0.6620086704091567 -1.0896378906283364 1.1631444444579195
P 7.737643411154074 0.6572356773350944 4.343754201363067 2.117774222307766 0.3834682094312493 -2.17777502834143
P 7.857032246043959 5.336691279104482 3.1103904055663243 -1.4706026169114415 0.18573777792287366 0.3143513000289296
P 7.78131352453929 3.1166635697944662 7.675705685318282 -0.22380321733602748 0.0597462668206971 -0.8683546115006852
P 2.4152294432188794 3.7881963355768535 12.106201144460776 0.027383019998643163 -0.2106671941747017 0.8025343705717662
P 1.7678249566025317 9.28805957597361 8.365627552544701 0.013178446363486982 0.5672118397422296 2.0893954140547564
P 2.0387925007732193 4.057365089224234 3.1617077331134564 0.009215347950680903 -0.4630214836755446 0.24533260676737104
P 4.873874720534341 5.580789978442729 0.5997440719498456 -0.4300041482092594 -1.4645543538348327 0.2610729003207633
P 7.366744106549799 8.174127936723336 0.23067651999888708 -0.18473376213839154 0.6310626156496035 1.2255823991781667
Ni 7.7652845116038485 0.7058086721152533 13.379744834962436 -0.7172909879212293 0.6588814376340846 -0.7915796713324755
Ni 7.0541971898115605 8.699421858286259 5.8066182400049735 -0.3112883448328897 -0.45990659219564667 0.05467399450411229
Ni 4.350389007246156 8.851075909578508 8.815586996861338 -0.6687171927775839 -1.6414639919431149 -2.327540501934753
Ni 4.5082870277371105 7.431528818643159 11.318964709923428 0.5201197713504333 -0.7174943621812869 0.005266390605261898
Ni 4.5490470559301714 0.33488017248154334 10.733910446655544 2.5492279584793582 1.5810304692474062 1.696183494973182
Ni 0.14075488756123453 8.690277221646827 0.5909422414624994 0.42607524546849845 -0.5985980673629948 0.015979406147391836
Ni 3.105315179320197 3.723355116974908 5.984154155779701 -0.777598269451719 0.09998171730197619 0.30921012214762233
Ni 5.545953715899723 9.221268882825463 1.7977696390523135 0.8524058014809126 0.1433127759894435 -0.6841597525848991
Ni 5.778261390446447 1.0866201601005803 3.7297667221490847 -1.048326176363743 -0.5024994871655087 0.006213585009879622
Ni 1.8585744093909629 4.595476570484651 0.24575999069066287 -0.3048734424454814 -1.0135216670900482 0.9071114205539088
Ni 8.067763852062425 0.40517521093714 2.0384214413668404 -0.9596138613279991 0.8661547756358889 0.9066056845620837
Ni 6.306267624421476 2.855773019654873 12.839817611226133 0.3217247096748653 0.179682058647097 0.54867341461841
Ni 8.703339642881526 6.517065154699959 12.74371699207465 1.9167118982126796 0.11675662276746988 -4.191933536139057
Ni 0.39667192317015426 0.3103629401814061 5.093704816210227 -2.6010464858125464 0.6072248898000574 -0.3492306284046179
Ni 1.1102963871979357 4.49175887397583 8.652152280304142 1.714044691524319 1.60426398585405 -1.4973516028705116
Ni 1.0062490693890327 8.294289027230558 12.07703436827919 0.05042550364040348 0.8537949685189554 -0.07740100378798283
Ni 4.850612874499947 5.083071233069566 3.66873215867552 2.359052456500105 0.3668048898429554 1.6199410302696744
Ni 4.266815881048093 4.887888334663564 12.203763398634342 1.0291323770441116 -0.3895349844506195 0.5517890774292561
Ni 9.210928191754302 6.377512913996455 7.707753351662591 -0.06925343498018395 0.37198900514705613 0.44814225257086693
Ni 6.805945262092274 3.2775564352404563 3.561383918990077 0.6642740694045657 0.5768563048105291 -0.5278731900436071
Ni 3.286484463596977 1.6876893096767576 8.302304475473422 -0.5874407651945948 -0.6822275685591929 -0.29364774893299106
Ni 7.270099141365606 9.239586409358619 11.237654669394216 -1.5840227191065106 -1.016442183170953 -0.27598221333242795
Ni 7.507699592216512 6.2912839818948685 6.039909127801087 1.3055161966903324 2.7656374544544757 -0.0760527172902045
Ni 3.8755553978501505 7.359492437947983 0.5584519408009376 0.08698041994630182 1.2293521506332439 -0.38335945176752684
P 9.217972669824636 0.5007748057124995 10.987133063580075 2.7871889553730065 -1.8217055226381078 -0.3565024794756828
P 2.063024375204999 8.639750985219894 4.279866059205931 0.31997970195930053 -0.6557914858548513 -1.9116977328275397
P 1.4954635852200668 5.707317468917259 6.539407828194696 0.3149879051716639 -0.6116163339995339 1.3617138269278226
P 8.563740313420865 8.449832609863781 7.2704880944997035 0.27943726176056394 -0.7077943612847035 0.8835668004647492
P 9.133664959014961 1.846764549096578 0.6509333180775168 0.9504514781024406 0.7801958549755661 1.540948513624856
P 4.855444180984013 6.66012079893577 8.520709665357808 -0.8195396468805111 0.6336722853583087 0.5157414397770795
P 1.1533166757344189 6.5964002927541046 0.5229432508057632 -0.38364381577716505 0.896109155906134 0.019153947220631528
P 3.1601641636539273 9.245463086251519 13.471903183364933 -0.9072062942605601 0.9338195259727143 -0.38021910636633227
