# total energy = -340854.1629903262 ev
CRYSTAL
PRIMVEC
9.41216853151534 0.00000000000000 0.00000000000000

0.00000000000000 9.41216853151534 0.00000000000000

0.00000000000000 0.00000000000000 13.77566004244829

PRIMCOORD
 96 1
Ni 2.560175747475858 8.634318760830459 6.641410650695078 0.5891024691677339 -1.939260987157789 1.7786526573126917
Ni 2.3262645331458227 4.093342716920899 2.8309666620758676 -0.5274535860076852 2.3036878636868714 -0.39757251004311533
Ni 7.115034740087204 3.839110630558893 9.813008400901122 -2.0929293953499437 -1.6925854932092785 0.7532931170474509
Ni 7.610350113261119 9.15005853989107 3.3508741493975975 -0.1786001384368279 1.2703743586818768 -0.09850281876360456
Ni 3.119973887806343 0.9673826898777189 12.372305993045538 -1.6204264545465252 -0.31142975550676044 -1.765842907142533
Ni 7.295974269472389 6.150974545729303 9.98840039810676 -0.42810950228970784 -1.808951308296233 -1.7281209671117268
Ni 7.946995147984376 4.591999409951855 7.9343536643224315 1.1139818666903396 0.16617631085117834 -1.3887173520998601
Ni 6.915807367090107 9.534715046700981 7.048825781207307 -0.6437967753868202 0.2732915538741422 -1.3355924472504224
Ni 6.088986003254749 1.4242305299369205 4.996101457112878 0.0771302666250994 1.023446639513244 -0.2757698402113057
Ni 0.4903532778819948 7.034739529663515 10.68739133516351 -2.4076270229746988 0.08715602629221764 2.0459949355819345
Ni 3.231075126095082 1.8843914533473278 6.566333546549537 1.4487251001120596 0.8690416102653806 0.8885190022637021
Ni 1.8257818794042595 8.310361329395343 4.202954008918457 -0.49273649424147403 1.5208250034021031 0.21252250221588562
Ni 7.337331338350796 4.052042121054161 1.63562501329795 1.2619660800135235 0.0019663796977514524 -5.312041056111161
Ni 3.48504367173597 6.720975476834524 3.0716828743119313 -0.46447698517514846 -0.8182306982611006 -0.14729978566164956
Ni 2.1787099658252056 7.38752643355529 0.7769669891345963 0.5237866786790593 1.0169479191627777 1.623904642903113
Ni 4.3181053033606736 6.999622728574453 6.233114541200823 0.4801805119533343 -0.17934421569170403 -0.0846124339347575
Ni 1.5250066192589746 0.8151907470822748 5.749506023345744 -3.358299101728378 1.3072897436509872 -1.1644708765788268
Ni 8.701305164837656 2.0849365299500184 7.133670833937739 0.5610689600692853 1.1033981776372224 -0.01163475602545093
Ni 4.901640932929061 3.0180871625881456 9.22495304796555 -0.9664015736737939 0.16234922379560426 -0.21505349616785546
Ni 5.548633403275376 7.829023026609329 2.274279243471444 -0.6272465843376229 0.08612218571106459 1.6603374318088502
Ni 6.9440344607556375 4.013612236613893 3.5953646412468254 -1.2730794163178656 -0.42912534514873196 3.1576800358182973
Ni 1.6728341394693216 0.8649707656510067 0.5868430656184263 -0.5262886191653066 -1.4816557894018096 -1.1060016766983403
Ni 2.646682989183059 6.107631509273895 7.666333692161612 -1.0188009132111164 0.6526735090511598 -0.8599561030243448
Ni 5.265072999520308 3.190348672513637 0.01434038009629979 0.09889388355443614 0.5705247061655465 -0.4777986419847191
P 4.278997742780386 7.177682134364556 8.682523182373647 -0.49991295738525515 0.16895464492726384 -0.20223500424694849
P 6.9854291783084905 6.601149158243035 1.4138234951033166 0.6504847289299571 -0.8466210764783354 -0.030566045712315103
P 5.195705316854431 6.202374398516053 4.391267031193798 -0.41885995866698184 1.6500627893557196 1.671010338141664
P 1.5915977121844938 5.082844003035364 11.419085793277365 0.3123800352351717 1.0005818190999283 0.2116185023443775
P 2.0486432077845342 0.7811412859137437 8.452731674244811 0.14871723483446647 -1.32094332987868 -2.439196056030231
P 0.6960543404499999 0.05504612690679949 2.157475172221069 -0.3998235108608211 0.04630119705938478 3.087806193645295
P 7.046269436212456 1.956968685509685 2.967497697518835 -0.5325672530851666 -0.6605151165827657 -0.31860030511327064
P 3.0049007143636013 8.793102045304455 2.5186727899839743 1.7383930384616963 0.3423434143664814 -1.5205336974139296
Ni 1.94759416557275 4.307940161260382 0.4583688465068006 -1.2082081695657771 0.8877939511722194 -0.6523392656401926
Ni 7.867179958159867 3.309280835087045 5.332764374956497 1.5635515957363524 -1.2139049628402383 2.2884232242183167
Ni 6.917162719370146 3.2847527236857865 12.21133720301998 2.9681272550247075 -0.8447567695760871 -0.05887080619427926
Ni 0.34538705692950766 2.452161700491652 1.7025615328115067 -0.20328864232244342 0.5926102252106762 0.37083278005542586
Ni 5.693627860733698 5.6250413880625665 7.929366156175259 0.49218062173800403 0.5725144829020655 0.1712645240073631
Ni 1.1520117893585649 6.205254522111136 3.926517675585342 -0.8829376515211826 -1.7549889951471647 -0.5902514951705125
Ni 9.157522389599896 4.673301722416962 10.176534589178482 2.020041448940966 -0.5467581998735681 0.2702795065206958
Ni 2.7544899684578152 4.612404991501329 9.410277706706777 -0.16007893970418885 -1.4361140962162686 0.8543004474004642
Ni 8.159870165467975 1.8269207518062367 10.702765171373338 -2.3839664461329653 1.34361788865806 0.3233445046664754
Ni 4.882844832212133 2.581767262270366 11.631147599392941 -1.7093611700057207 -0.7069381839319954 -1.7394888426290367
Ni 0.28882274722569246 5.149830407042561 6.2331418364897955 0.3444972274846906 0.36925643670724145 0.2030346173301084
Ni 3.9917477689296557 4.245048050599136 7.108351159156263 1.1516318158326295 -1.1149581145606797 0.38815738737680244
Ni 3.8840349113410135 5.174151450734369 11.84381649038395 -0.6585937311903367 -1.2829521953468874 0.3462237232574941
Ni 6.756346406476093 1.8459239202326143 8.474786267734999 0.22787507341255592 0.5216102398530307 0.6388057499301322
Ni 4.103997291788983 3.107474527890429 4.306781523304321 2.230634338234307 -1.0041445967505223 0.7011496022746764
Ni 7.366471412371631 7.79829229609317 11.313715624456094 1.025008327573409 2.1620542751720637 1.096853434540169
Ni 4.25577792281611 0.23538704236830024 8.233257785347773 -0.6984923671574874 0.17740791790093965 2.5193486544214223
Ni 8.903977391546519 3.5319633322637034 13.567358688247086 -0.028109870862338685 0.5142484001713208 -0.27887573283013906
Ni 2.8400089324608206 4.717341259349613 5.240426294794546 -1.3288525574234278 1.4314292891460896 -0.15892348594350694
Ni 5.149811582705338 7.1276846947009 11.299994565054424 -0.4842220290125596 -0.1481402792850739 0.17547419121333652
Ni 0.5053478036967856 1.803672695336126 9.498497021884388 -0.42569472220062815 2.1552632203921593 -2.0169286143435974
Ni 6.1147471087440985 8.369695640321488 9.06226277230097 -0.3052498519482937 -0.9515585951236902 0.5801624863656267
Ni 8.532676751996158 0.441535182945346 0.8533900333915637 -0.1767098633926505 -0.8433508903674959 -0.2085565755896021
Ni 2.5643453381707 6.955376123932352 10.105989444219322 2.0391866544108495 -1.0938760970794001 -2.3188069787164967
P 8.806862635814293 4.943769799633601 4.154601816328072 0.09227355002444108 0.3092841699186673 0.7727671666116628
P 0.9830445384470565 3.8450779454585082 8.366013599960716 -1.1109392232092739 0.6504068245041702 -0.29912368444589776
P 0.7069941040270079 7.354339127031561 5.796894409870324 -0.3083948253351786 -0.5025069433646765 1.7522302014551048
P 8.2080228200838 7.949856447242237 9.159780368849766 1.5278132617944784 0.6237622253334484 0.21349437921085165
P 2.9378107765016788 2.7870466596845813 13.225915329965748 0.6465465702178156 0.7016311698967851 -0.629234047081297
P 5.964670080235631 4.859210876828955 11.338470569120888 -1.063794447202671 1.8145272597221138 -0.30955130753712495
P 4.424886356256788 8.89981721302029 12.709534582222702 1.8387331675443557 -2.723945474032328 1.1947137346237684
P 7.200506643247153 1.8474863402221036 0.028400277567980435 -0.5031363494185592 2.911685369986895 1.3592957044046334
Ni 7.047351835602765 5.771814745388439 5.3822883825389995 0.34774453077739464 -0.07520862412235434 0.8309687146530592
Ni 4.7940598457009775 3.119879766120229 2.1070974809455145 0.9627187255055678 -1.3942192557546955 2.4279546787884567
Ni 0.1507716465519868 0.15579303850615847 10.95680148462823 0.40993668803542305 -2.3464681920771913 0.22617351734041696
Ni 0.4712428107334472 6.154447635946902 13.552412164492214 0.6666459120708519 -0.832290004567644 -0.5030551025586627
Ni 3.7821858347972617 1.3671363151402844 0.8475657834548413 1.9453660716142624 -0.665794362703834 -1.1617537347579798
Ni 0.31964854064482573 6.4927115636713175 8.487404220975417 -0.09312947026683316 -0.6413282592416697 -1.3971644544259487
Ni 5.521714601046828 5.252714822133565 2.6447751426055324 -1.3331671256383815 1.9178159299101356 -2.436263969985101
Ni 4.699608733685771 6.386551713903553 0.43031681917744125 0.1949310143863675 1.349333965206231 -1.2156633402922419
Ni 0.1837142366918196 1.8163038256125992 4.060045288024418 -0.8230952254422536 -0.37213144426219136 -0.9463017176001252
Ni 3.7245363020525546 0.3757441243517942 4.508264051900706 -0.680588490293873 0.3289950180840334 0.14452248002682852
Ni 6.103273675206825 0.06563199294401949 0.8020052400745915 0.17539165880185922 -0.04557717440916667 -2.0639654040174262
Ni 4.97157334571162 0.8495272793934531 2.6403674240448227 1.2471362140895423 -0.6213695567315557 1.8765988322418776
Ni 7.422323220911564 0.43563940052717703 12.415561496332861 -0.09306673534969778 -1.1736692552486432 -1.4813526563390937
Ni 8.05172434812321 7.479389199202367 13.616041247955732 -0.09901446829270044 2.5417378207499 0.2282005750727747
Ni 9.253931232686268 9.478712643463265 7.913028513899626 1.2297334452320627 -1.5012182849147693 0.7228394285432841
Ni 2.6658649888130532 1.9344453660226508 10.01625476989528 2.190861429211743 0.9466375036729889 1.4368630585671511
Ni 9.083514507808609 7.630934526014209 2.291415978862185 -0.07930953366460534 -1.341166341793774 -0.6248500590809883
Ni 3.641031542132384 8.959433889004776 10.601486472247437 0.8038618311339382 0.635044483115487 -0.9049246973152351
Ni 5.883066578374959 8.36138469543764 4.848825489983159 0.22986767836255248 -0.9484146501780698 -0.0669191304200525
Ni 0.7810829304683531 1.8019408563116321 12.559779449880743 -0.4636845711808401 0.845746387182866 -1.0987264831931658
Ni 8.01593928306274 7.586885576912947 6.901467928210669 0.9630429416142059 -1.5956672453239744 -0.55367626714964
Ni 2.5475916780424424 1.8817089852930842 2.7331874072396767 0.07427377101291079 -2.808279971715351 -1.4517633727177515
Ni 7.816307186815354 5.489939119814807 12.639540049127307 -1.2534786113678025 -0.43990032427704884 -1.1850805824093784
Ni 2.602097546470948 7.233976314829223 12.290437068030025 1.2522722497645271 0.27185276454508667 0.8677138925928928
P 4.794041021363755 9.604459216111312 6.324501992333025 0.7987875019348244 -0.6907546321935975 -1.597010132505114
P 3.884787884829924 4.721708505585294 1.266966369476803 -1.1422277489099104 0.5743196544316044 -0.12267838756854356
P 0.8261898073215345 8.344103953867144 12.596614912958243 -0.7733402655063133 -0.016190493716933405 1.2425581078005568
P 5.723247955353713 0.7511776471394128 10.208356190036701 -0.05121380386965373 1.7294854515594213 0.3067390348993104
P 2.0762867469961597 2.699937039186252 4.484735512805976 -0.6174720214493624 0.5511995234743732 4.01538359536304
P 8.194469297283412 0.767143508754898 5.338316613220351 0.06299279878245281 -0.0762846307953525 0.7861412739257235
P 6.294124218139793 3.6734658751672025 6.754481855874179 -1.0905624593251348 0.008872619899281493 1.2214850891803417
P 0.22327169893173085 4.735676163804583 1.8665328046240939 -0.01765910784265991 0.1798296399685548 -0.6934175237377413
