# total energy = -340890.58589811507 ev
CRYSTAL
PRIMVEC
9.04379580695786 0.00000000000000 0.00000000000000
0.00000000000000 9.04379580695786 0.00000000000000
0.00000000000000 0.00000000000000 13.23650932437137
PRIMCOORD
 96 1
Ni 6.194186083020063 2.272968118525572 11.625731487825652 0.9805958628963046 -0.765114020941779 0.2652067199834788
Ni 4.641972303126379 -0.11598758367280461 6.097490724241475 0.056847348006347255 2.6849138140511632 -0.2884217246473613
Ni 2.2011061182398737 1.4762278087886698 4.85168345432508 1.2341233467696424 -0.24244602924819533 -0.6544383142610665
Ni 3.6785277080551873 4.421394127066957 5.087213737743218 -1.020855224636984 1.2208235443369426 -0.9302156106715399
Ni 4.923514705705547 4.3374857909669435 2.4003083788858466 0.3871955376841654 0.8364976148910884 1.4527596751927496
Ni 7.098303378585318 5.862079818926002 2.5929529833013683 -0.3089951779233388 0.28137741620607026 -1.0637509955592455
Ni 5.037719757254476 4.668380186443047 11.455284879848747 0.09431654859639886 -0.19234859837117194 -0.033199626680420244
Ni 5.734851701631867 7.910056389111832 12.515820951948276 -0.8452668764432861 -0.48895285882932565 -0.4583960690883912
Ni 1.9214538689528924 6.511361040485418 0.36061682990083876 0.3568968867006241 0.07743108569496988 -0.08880847429397608
Ni 2.7420426678357024 1.8289177517966801 0.23748645641861507 0.2635923243085073 -0.4561874914728466 0.09027837397128323
Ni 0.43203930171763605 8.981312072202883 4.972493189841875 -0.6214140368162459 -0.7924181080733708 -1.6536039697397587
Ni 8.770175618808734 2.325150819462959 1.1195558825531498 -0.5296410805773073 -0.37318765344084764 0.389931962778722
Ni 6.763004654624551 0.7241828415652273 4.722190770598585 -0.3086941017431522 -0.3574375896954425 0.7816122757071184
Ni 1.12406240592873 7.3262251167177315 2.7204469881878017 -1.0117586616523544 0.7157634955331091 -1.0476630888584473
Ni 7.428863153622135 3.6386626568018072 3.7171157753618846 0.6906013944451849 -0.17709732863905628 0.2720615381217831
Ni 7.477961920240691 4.094524220657948 12.792530350128668 1.7911338204988376 -0.5808068048178449 -2.200121257247114
Ni 7.921162170177881 -0.030560794282082897 6.832897820595852 0.6141558125919359 -0.3882196080733056 0.9603188578148236
Ni 6.697744625168019 0.5789367701848603 0.609703763007909 1.0146442107302653 1.4927012485826938 -0.1708526332809251
Ni 2.0300788985818277 6.406724324740952 9.28799260918856 -1.7433601526589848 0.05530905698494991 -0.709326481658514
Ni 0.0006321613163818639 4.836160683460449 1.4027921880587595 0.6269331668622622 -0.14320427543603725 0.03162199778065521
Ni 6.273509214722285 1.8534535694124743 6.987433678874465 0.2975383422366489 0.7477248789310542 0.2164498622947498
Ni 3.4828471014378137 4.553334061898073 0.4184446680869463 -0.422897104850833 -1.0317538738273586 -0.20237847180334823
Ni 6.1040917906910765 5.587871934624169 4.7860698124583845 -0.5118238498902281 -0.8501535151116262 0.5808726250587738
Ni 5.453544437739765 2.7681521058957084 9.474905255917061 -0.524314269047755 0.25733580187583427 -1.3705401669702009
P 0.2261581979794173 5.588342211998302 12.520215332257717 -0.43029879663154286 -0.111518257186666 0.015776546107966378
P 4.0638928847697455 6.318185565264866 12.442080555304745 -0.6153385200461273 0.31747544748020806 0.19119031639701264
P 2.6302251783400603 8.376336405564137 1.3543997418809668 -1.1689690215594963 0.4138679047690292 0.4269324512624712
P 6.5084670258753725 7.78509826452745 5.923364195811983 -1.109379849141954 -1.2323382298447616 -0.29315204024349517
P 4.757362091906296 0.8934320509972267 12.694884488426593 0.7322746058142551 1.4072961435433118 -0.2797046564893376
P 3.983520672771381 6.144002060922738 8.173928119357972 1.0662261965726154 0.3153954250227278 -0.4664356515634161
P 4.431722141706557 1.014677697464658 4.045659688346891 1.0856238843729367 1.052105183790201 0.483352996144045
P -0.011973985449064204 5.44666210924525 3.5571129426089816 1.0881469079051067 0.335698398246138 0.36709979537555487
Ni 1.4322387867159747 0.9141830401308201 2.3338744647531153 -0.01800363566627222 0.5269452789126989 0.8610966443866912
Ni 1.8212847882626846 6.449067376004184 4.722230563299473 0.9377368587492496 0.048564796282580876 0.5076152111255193
Ni 6.1215734476948835 5.624770620902252 9.336716058287378 -1.6289157229644593 1.154905601487895 -0.7099201493784548
Ni 8.552871296776926 2.633254849884952 10.337528712631219 0.10235304574763018 -0.6363405762190912 -0.3818332449309876
Ni 2.426341849062339 5.179815874607722 6.959835632049416 -0.841937297849421 0.19481454341316126 0.8237364585706781
Ni 0.4854628114190802 0.16000283275290322 9.086400073350603 -0.5395123169444321 -0.7924469044287771 0.6030249927860969
Ni 1.5214558308662907 1.3351445965489406 11.151176398347747 1.2281133931301365 -0.09211157052528007 -0.40997885412726814
Ni 4.164884950864685 6.793672165695379 1.406749753037997 0.34194180805268853 0.9935871329496501 1.2194516036900804
Ni 5.687615956918528 7.760661928663877 8.118572854904324 -0.39355464713297383 0.2276102497869435 -0.3513157930684208
Ni 5.317860371506903 3.0482113259872277 4.948178040840096 0.8422923671959944 -1.8511929905742632 -0.3506959000962347
Ni 0.5816833709257069 7.317425503544061 6.6679444141006385 0.4811724435529584 -0.11529315084806595 1.370004091961073
Ni 5.1165726115825665 4.4670743389273975 7.111592331922821 0.03200174971757714 0.4317442708288177 0.7610005129940378
Ni 8.158986864554047 7.066912363861978 9.324141564806729 0.8905781987855759 0.3988840297656872 -0.6398187645756787
Ni 4.513740324514385 0.5130400575141191 10.445525198462036 0.6987384217300223 -0.012653941318584659 -1.0501251772456948
Ni 7.902332987621272 7.09172853914312 4.449161292870779 1.558494235818103 0.6046563577419328 1.0647503833580374
Ni 7.43724675219561 5.994535250109533 6.982298611700766 -1.4372037297360218 1.0885228031872867 0.6026663238950976
Ni 2.340308220983073 5.2013762834525625 2.569723089778358 0.38046156139444154 -0.41011769369797757 0.28097401012006445
Ni 2.4651035572456386 5.098141356034838 11.303926106984225 0.3686761387237392 0.9001226479409014 0.7940556436767938
Ni 0.8699371742614835 3.3615245827073035 3.6379355356310334 -0.1327113463245134 -0.35408641383502243 -0.6347886583509389
Ni 3.411654342030689 2.758990740895783 3.174790098753234 -0.7350786509219533 -0.12921901690053877 -0.6685292451364938
Ni 1.0991919678736497 3.1553983921067963 7.877734767815449 -1.0097069213296481 1.222999468942339 0.22549474610583745
Ni 3.4990174080714445 2.6741328062518477 7.006123586977967 0.20193392806676191 -0.4185025753275631 -0.5209188702129609
Ni 4.212826111639224 6.716203012102717 5.917407951992684 -0.3083390323965786 -0.16734641989987953 1.539749608220748
Ni 0.8859474057119959 7.328350408696983 11.508270669840421 1.9641019574608694 -0.8131257729343673 -1.6426413000806679
P 0.3814220818083706 5.444102715074492 8.13961957615588 -0.18639880854564028 0.8553954802368559 -0.4838083385139087
P 8.302683733738473 1.6996819118668256 8.039061612252448 0.8041137992437442 1.1491352746630208 0.5715297503912932
P 1.9361771682815 3.3074336408864173 10.091514861288191 -1.2662017153614258 -0.4372088934878148 0.8383094712888465
P 4.124766673332926 6.196492250912443 3.880798528567374 -0.9237549426478606 -1.5371275972168688 -2.4074308478034925
P 6.943943874322003 4.131151593066339 10.553601269694628 0.3801427446024421 -0.35287105337068264 0.30507475982301
P 6.359262485136202 7.833509702676122 10.285455441621275 -0.2227950877864873 -0.14709306896748217 0.41023982109813867
P 2.429425783381169 8.45866207742428 5.754995852076917 -0.8967426757250749 -0.6778155555344262 -0.012627458956023414
P 6.940859940003174 3.7962688837057663 1.4902194650486753 -1.0126487775667914 -0.5525151569620033 2.292020197540956
Ni 5.1513369620857405 2.7651314781464733 0.590290351251896 0.1354631980380377 0.20933279163399432 -0.3299913205590317
Ni 1.2951167569737456 0.9300729890991024 7.009763714729665 0.23047677270146114 -0.755148682198951 -0.15835501503454663
Ni 6.955248618892495 0.7229094751368071 9.435327797365554 -0.6051469242251062 -0.20766825944737785 -0.1464736902159284
Ni 2.509960783701348 1.5744162982301275 8.893213745575263 1.996977625142967 -0.9786693352975533 1.203633405710901
Ni 5.962158461659646 1.9254240952460489 2.8539768222953117 1.0239757725438365 0.5275476883833883 -1.1621088041045533
Ni 4.042323432129248 6.983031159148934 10.235620510036286 1.767516181079898 0.47873940863143355 0.7703690986931314
Ni 8.405728741447414 7.398720182699377 0.2447929389294149 -0.8083298942076208 -0.3292719258945039 1.3455343889544826
Ni 7.589300088566545 4.0620660380471545 8.40309157063401 1.0110168983903232 -1.6775494248117626 -0.6346842715625908
Ni 3.196945589352265 8.586722223918805 12.114039477358235 -0.6342942352130237 -1.3581027125377967 1.2326704163731996
Ni 0.19536136063070256 4.973165143859144 10.309797722010021 -0.31657119049838384 -0.2438778765987155 0.15994035724379552
Ni 8.72310266241721 2.273429352104048 5.846910660471535 -0.4609764282210578 1.3009344908569207 -0.06989981031493123
Ni 3.705984671667996 2.708173653102511 11.426800541049372 -0.4356531189649207 -0.057707382013797395 -0.1626608414987521
Ni 1.1461563987172982 3.5887770799611443 12.515357909610668 -0.5261364098581585 -0.9869444308221519 0.22147611186474758
Ni 2.907390383821534 8.167171499623082 7.866126151710903 0.9103301846015225 0.36520334968379037 0.1250060072604557
Ni 5.597783934663576 7.7921343375481245 3.635261285255438 1.2637720228740106 0.34131625865354764 -0.4251707313763581
Ni 3.3482663782750315 8.298333668027748 3.6451488670465726 -2.008051880679258 -0.26538669720476876 0.02272418107039312
Ni 3.5689892550649565 4.375569214476013 9.285675588741393 1.147303877881237 -0.6510056344304337 -0.7015087853863079
Ni 7.230822116338442 6.244849426287176 11.524035814428647 0.5444524345585268 -0.8546562880779861 0.20704322426886923
Ni 1.0728383473309206 9.077076824408428 -0.05886968344572396 -0.7143190497770988 -0.15484160256464946 0.8887701990425596
Ni 4.4361174263955645 0.6244831338695863 1.6670853591824886 -0.8738616573618434 -1.3035881264296838 0.30965980809053123
Ni 5.8378786217494945 5.491772561979338 0.45730947554072915 0.5989035144185557 0.9390746037240665 -0.47728416424214576
Ni 8.297293631527262 8.72310266241721 11.433127580490584 -2.1557920963124357 1.8540343166778006 -0.4791690399696844
Ni 0.16647005102678977 5.054170421553455 5.9540461769558615 0.30205988425608626 -2.188793490939121 -1.494303817183123
Ni 8.058971528389998 8.731459129603717 2.673722217929048 -0.04289474248099709 0.35898153714379466 -0.46262476245775813
P 8.553875158094785 1.5156497140548864 3.7770779493229005 0.09886585852997812 0.44023199658485473 -1.5602166178258483
P 1.7845217589194473 3.248033991015229 1.4996304388087178 0.49336615740567286 0.5796387526516728 0.5889913975111664
P 4.813949121328347 0.900255594819975 8.253043243760098 -1.0370318343968463 0.5643926251258796 -0.14754635445481687
P 8.846152546118091 1.6400832984911964 12.276862165596802 -1.8846697821754703 -0.037180722815355324 1.181091001634011
P 6.450134543891639 7.716130278851798 1.4777372182837218 -0.17193841014593614 -1.0312080286262175 0.04528843952415426
P 1.839245766436281 3.466848626921655 5.574741247710653 -0.0985393284284948 0.07361968236867968 1.5930966563833207
P 6.936021509327003 3.887014329322013 6.141581036825522 0.9179555623572642 0.5463884752389752 -0.7559889187120592
P 2.3839174036382 8.536737165325922 10.065610717389585 -0.5354155211672391 0.1728130994414056 -0.1481256239970546
