# total energy = -340857.6727434612 ev
CRYSTAL
PRIMVEC
9.33282943776369 0.00000000000000 0.00000000000000

0.00000000000000 9.33282943776369 0.00000000000000

0.00000000000000 0.00000000000000 13.65953925902567

PRIMCOORD
 96 1
Ni 8.73873900058314 2.2974253317344364 13.029302087717875 -2.063357338119782 1.3350070070605975 -0.00997408049357637
Ni 5.601685653730903 6.6423521512991295 10.754346476532515 0.42056999937955303 -1.1429294029626251 -1.5333861278965655
Ni 7.241510478899282 4.295210836276386 11.967941907073778 -0.5835046633649822 -0.8552712959541657 0.6985895548569839
Ni 8.436784631649429 3.2257805578756904 3.207956719902345 -1.299311096320885 -0.3615989201619837 -2.06011389148182
Ni 5.630085454208905 2.8319164830243433 1.9388486856071536 1.0241218112033974 0.21619455175083413 0.7597681832488334
Ni 2.687518943426693 5.027828627180985 12.296358581060176 -0.5364071956565472 0.6534954907318229 -1.2103984923488769
Ni 1.625694921151391 6.672777175800703 0.5647929824407374 1.4559249602946087 3.2153550219322624 -0.19638548744470694
Ni 6.3994652609146385 6.273565389587576 6.350634029872573 1.7055374253842561 -1.3490159197451799 2.397733675120387
Ni 2.359852628940272 9.320808917182562 2.9315696376625175 -0.484580697903559 0.9235662236758223 -0.8472263141625022
Ni 5.868165937348516 5.100214053571844 0.8595937374847382 -0.463066477980867 -0.1288338656469781 -0.9768263685515434
Ni 0.3059721520772472 7.423192672755762 2.513820052011515 0.11750198557392666 1.6981982114103655 0.9960494784472136
Ni 4.739061546474489 0.43136338419101605 4.557355087261045 0.6303100537542952 -0.7955175729343009 0.0191482907936767
Ni 6.652319613313755 4.081050395405956 9.620153826959635 0.30765460473504436 -0.5292780408109337 0.2208878434614454
Ni 5.319834199759274 0.24773436207961935 0.6310122083137472 -4.302350589841746 2.174631597616442 -0.019138777711979943
Ni 2.1832194958983164 6.197633487948067 5.01224466831205 -2.4568885882139884 -1.7927065643025966 -1.0760156718592115
Ni 8.504848957934696 7.211598760025803 0.37927592890091477 0.851295084915237 1.2902507858908294 2.4643193334604203
Ni 4.489380356139954 4.830737931652083 6.261778959083577 2.09986443190688 -4.472544763603065 -0.4002228031817688
Ni 3.1580055493080756 3.262393248403197 8.014598218805775 0.575670512032544 0.5359477395216253 -0.020731833230712683
Ni 8.84180143787482 8.02926662709078 10.345721598383104 0.8359648823160699 -0.14084965916093162 1.2439974113502448
Ni 7.476417799974311 8.86713073741386 12.79387959444883 -0.15190565986477708 1.5107455076789145 -1.1014783349066901
Ni 3.294274194322637 5.907466482801315 7.575731239614983 -2.381699247365343 -0.08242931024050966 1.328619615477015
Ni 7.996069752197499 1.5621196859045452 9.134666564059426 0.7123017622367539 -0.10939452597544386 0.004883810454862557
Ni 8.617626870841756 0.39978482195067155 6.907191723472762 0.9271637112190935 0.8678239358081957 2.1501055874506196
Ni 8.812403024629434 6.3119793162282125 6.561988088881769 -1.2844920290301813 -2.6829955139825277 -0.9543433569576789
P 8.368981624593008 5.785869045920641 10.277423951357793 -0.816130364088646 -1.2629562118409345 -0.48770484535483755
P 2.0058770678066318 2.3019050899432574 10.900039412878881 2.162936677777017 2.4602289654411305 -1.2858688547730501
P 4.459197985208025 4.87379960743437 4.17207441579439 0.2003853526327194 1.945647350300107 -1.498280285332368
P 7.581710783540799 1.8424592214806972 11.203403972365411 0.9971308844368504 0.6561033606683152 1.1975458047559246
P 7.500963141826808 3.70465737756901 0.8246068258738495 0.40657702753457076 -0.7567167980170193 0.18551743438195148
P 8.275709325553525 2.6094498238083923 6.881607637685596 1.1420243746498524 -0.8074950570111513 -0.0782533244859491
P 0.9508940096293824 4.9091616987952476 13.708713417063127 0.33437248034586287 -3.546256770120706 -0.571407365880816
P 0.9212417434188307 9.221096965717898 8.891472623581038 -0.697469839430244 0.8208460243967606 1.3716339142550118
Ni 8.88662701845183 3.937754129701308 8.409919148357949 -0.12917222282300334 1.6113885127139733 -0.6587117448254397
Ni 6.1772599209275345 2.1444322560736118 6.29471171489913 0.2959188043553549 -2.414730209678383 -1.3252792382498724
Ni 0.36997016450505016 4.3766304417217 4.653272310209655 0.8740879144400365 1.3741841914806916 1.6496809805362687
Ni 0.507535139551289 6.275599946440749 8.742037222564385 0.2573306596695117 0.3177639252549043 -0.14979401283841298
Ni 6.218707017188727 2.09660150436485 13.46174901342565 1.1049200135983874 1.939979867601685 -2.0754633773546964
Ni 4.132054309179299 6.914124149300912 5.70867627900194 2.874444740467882 -0.47091091372595023 0.3994812970300539
Ni 2.793166574518045 8.288551299085476 5.1165493052237165 -0.7677897680017293 4.30145636016225 -0.3460010657237267
Ni 3.4939967477992218 8.125152118418745 7.7789713365684525 0.30668632728450407 0.9122788236874612 0.349560758050527
Ni 4.2534557566383375 8.234103571189102 2.4969910936737123 0.8313083573806651 -1.3798930689400106 -0.22283853942991302
Ni 3.985052910122772 3.6766122246158726 10.677484091781716 -0.11998387145551592 0.9890067126678193 -1.5027997704692764
Ni 7.641123576785282 8.627510337389966 5.307482199781411 -0.057220929295682094 -1.7031504132093185 -0.49970521224982317
Ni 5.64622191659026 1.7128822152905614 10.386673121392445 -0.7462693774314503 0.3056193194725704 -0.921454062428826
Ni 1.339858348939832 2.729712666056022 6.466890288372189 -1.5007724556266024 -1.0160966269060758 -0.9353881560114149
Ni 1.0295510975125906 2.238068535467564 8.784982237976651 0.17340728138197878 -1.3787275878769998 0.5196189204546148
Ni 8.69795453522367 1.5069626629584416 4.830436481255948 -0.9766325073731825 0.7716687913411614 0.20569262377824574
Ni 0.47612643480969563 1.1550216586779738 11.43584835970855 -1.4494303537092006 -2.698524205745746 -0.4854780129068478
Ni 1.5135516406572487 2.5480118065403383 3.9397662877634363 -1.7461215174542057 0.17796816127978382 -1.9537843775849444
Ni 6.755494044560654 4.120966907612468 7.006852344374618 0.6079373424860497 1.260873361169977 1.9556214307936834
Ni 4.077587915623722 6.782717908508841 0.23374725035553723 0.7324173020397063 -0.6624215895768593 1.5092218719455361
Ni 1.7766814384478482 4.452179697347539 9.614075355040043 0.07174997614979256 -0.3014320208641002 0.45189400630381527
Ni 3.3592586868393406 6.17778255938523 9.670038734463732 1.52215349240554 -0.3100519013226273 1.674481070299084
Ni 3.0776592192669576 1.1426836579445139 9.159404162201715 0.8906273068559565 -0.9616167506906407 0.8093521648245481
Ni 9.140545313425541 3.4952846782842575 10.649796386202324 -0.09596616838467989 -0.07042431535983357 1.065981684661977
Ni 3.5967418688844424 7.275444647331097 11.809710314157511 -0.10587982795396603 1.1525880090983118 -0.6762482110473064
P 0.5900438862111227 7.852801484981656 6.994776596152965 1.4391821936186313 1.8463947978546715 -0.6067091265059035
P 8.133999640881164 5.803946736859152 4.589264031669289 -1.3211598167648602 0.22950283882396605 -1.7871740645201415
P 0.6679450148965925 8.09580970215097 12.500623422703912 0.1280746188834504 0.9614691693691829 -0.67838711176718
P 4.426981057422924 8.596833326489147 9.697289663617765 -0.09547843011498396 -0.41457135859395705 0.4797161707224061
P 5.576057703644608 5.413881123655701 8.41386693527947 -1.1970840346281577 1.745886261514948 -0.4053315851632439
P 2.7158814125862882 1.9021426667836296 0.4953072662071291 0.020459553405932508 -0.9955622543981499 0.6291168047771424
P 2.387253816650891 6.828028796225141 2.7367300206335474 0.41788782456169965 0.18968802081987332 0.2226809308061262
P 6.587307122308246 1.9141166871626232 3.990565812568502 0.7121467247161284 -0.7198129830121345 -0.820855023257825
Ni 1.863084774900475 7.742879417932722 10.211065666323718 -0.11843915267621537 0.9628233694042321 0.6723180227549647
Ni 7.643998088302609 6.046768297436432 2.2518839231269747 -0.7142390884687828 -0.20171898384247838 1.2387274212005568
Ni 6.914366802870556 6.45313836395407 12.74877589554969 -1.9258449708621994 0.47674089014416604 -0.1710521508862409
Ni 6.49326953124142 4.155106398295522 4.68660171128328 1.7875491884713732 1.456651296937672 -0.7103587795777702
Ni 2.662805610641366 4.495987999497964 3.0124750041967774 0.7419041584842191 0.49690605223813133 -0.022205332452445627
Ni 3.184818768753787 3.9630647635811442 0.5941717967439589 0.3910858738775071 -0.16985761635750746 1.2586408722950322
Ni 7.665276939794507 1.05771757725055 1.2220257755204877 0.591824238974271 -0.35824748719124755 2.044709126890975
Ni 0.5458445385003864 5.154372463750565 2.1389333528722845 -0.46748466165322067 0.1960622997773333 1.1995481798979342
Ni 5.9716576848018725 6.884725736055527 4.28349533527736 -0.038269585004159896 -2.077002182596726 -2.1039283175636085
Ni 7.775338999287467 7.818550000343382 8.239584742014186 -0.033884054341954545 -0.45887763671049997 -0.5563203896407064
Ni 0.6505075560687583 3.09224643193443 1.1263381401800798 0.8502794991665292 -1.6644653379342946 0.8408173253123647
Ni 4.0996973889501716 1.0684036671445074 6.955396721648552 -0.21197768545600912 0.2926429618175605 -0.7934216096372207
Ni 1.8432058478488338 0.40135833702151985 7.032681883580309 -0.44383154101065503 -0.21279195382718838 -1.144632758806977
Ni 9.176822022087388 5.967000602830621 12.308351267098372 0.7086410255557151 -0.2972616915364945 -2.2310814530740544
Ni 2.981568405687756 9.013469505568665 0.47227197618418953 -0.6392238113041573 0.4638714903806656 -0.47716306528324914
Ni 6.298736031023386 0.3910054291443434 8.087117104659937 -1.5149610884221585 -0.47804881032231217 -1.0242701638558036
Ni 3.5994017253209294 2.1298450434061396 2.7377818305296597 -1.9448451661137864 -1.0611829777217532 -2.7294250090896606
Ni 0.41692549679717134 0.4017708480899154 0.34885090439934163 1.3412892405248835 -0.20708230503692082 0.3459884673182364
Ni 4.707451252613499 2.814361430543528 4.445619651420498 -1.005557417937649 -0.09010148207378676 1.5785339280777975
Ni 6.575575755498897 8.716890846485539 3.31574436882137 0.6622426407968337 2.239547838673853 -2.60244953680766
Ni 0.8129697206434777 8.99843431708031 4.489275828448414 -2.3866730464308508 -0.08512819722891145 1.0902030191031868
Ni 2.8637880961141815 0.3395796714730034 11.489953572758541 0.8089765266526842 -0.6025120577054204 0.5278847600078328
Ni 6.672357198468625 8.68742710343294 10.249339600520328 -1.3575733223968878 1.374547231247065 0.7890826159422345
Ni 4.185792742025943 2.3111165927601443 12.411330642206597 -1.395909241862609 -0.585925871211965 1.221304083517787
P 4.906707164609998 5.2046204183261695 12.271785240718875 0.11344041391004335 0.03167007740977127 0.7338270379030395
P 5.2450689018199785 2.6413681010462393 8.238000027547816 0.24956052880578958 -0.5534901192807629 0.7958687856261325
P 2.3505757963161726 4.4837619927197245 6.312250901569622 -0.9516925495983932 0.5618256357296517 -0.35777388998893866
P 5.738682259454397 8.151564026191583 6.1569414176016535 -0.5635850416229198 4.369392876103223 1.1120360558178786
P 2.8557991939751184 1.5419607739648524 4.967550680632423 1.9566215899234238 -2.16681698666803 2.0256971045648466
P 0.31292977654532167 1.0861827075357642 2.746769345436106 -0.5879364738840906 -0.5194227452834087 -0.8878003789301226
P 5.23454147002925 0.3851434788715096 12.119686250133894 -0.3214328894660593 -0.7637613635686267 -0.3239947366559646
P 6.606644745242988 8.31439390425261 1.092742753462806 4.082022989759145 -4.446028976700723 2.0789500503517164
