# total energy = -340895.8023813556 ev
CRYSTAL
PRIMVEC
8.99965494217748 0.00000000000000 0.00000000000000

0.00000000000000 8.99965494217748 0.00000000000000

0.00000000000000 0.00000000000000 13.17190470694489

PRIMCOORD
 96 1
Ni 6.311853944258289 1.9662265964115506 11.300479633511559 0.2077767600007841 0.5037726974509775 -0.38704872769365606
Ni 4.70832243871164 0.6262625832126306 5.999565020347687 -0.5369137029793205 -1.8573476973217498 0.27515586077639065
Ni 2.7271024172887763 1.4417987079006072 4.827503068207328 0.12486768191037852 1.2273752294125313 0.15985628217042147
Ni 3.749634203819612 4.416265638911442 4.804426153192917 -1.063000490546466 -0.38023170477182255 -0.018626099741619533
Ni 4.927905017853912 4.85947164223205 2.549277336771949 -0.6606621836835912 -0.49666411143065436 -0.3565076216820054
Ni 7.099935721803702 6.084675656406803 2.452911732333992 0.6179515321889422 0.30528173362749356 0.8638122435456413
Ni 4.9026339869825035 4.488100884073687 11.409582449485235 0.16924158004006337 -0.31602097442186866 -0.34071462051380674
Ni 5.662798835125099 7.6575093391961975 12.260988498583531 -0.36779502167036654 0.7940646425378582 0.5217943308393789
Ni 1.7501988809424285 6.525811739107603 0.23330705281709388 0.4305224826065747 0.2683694339821765 1.0379132085605351
Ni 2.69035682645973 1.7607644757583236 0.3668547313452307 0.12857392711737212 -0.19585635441411434 -0.10823033046401359
Ni 0.8904249527471835 -0.08195355713116424 4.635917515396204 -0.8159575859562076 0.40671355311243496 0.09502951550302344
Ni 8.36049038030285 2.3355364336049727 1.598581695368845 1.1170473929895408 0.00587471361322214 -0.38959900491933547
Ni 6.735359703071235 0.7973424224053411 4.754346673710352 0.8017874651034127 -0.7348837613023279 0.041132508374251746
Ni 0.4839339414290688 7.346004285224662 2.3702319030549206 1.282207603871379 -0.9007296853972809 0.025723887128665378
Ni 7.774342858702118 3.8070880005016186 3.8769523212476105 -0.5924850124867216 -0.17988363313494182 -0.7144159803662793
Ni 7.530488210378867 3.6563437814503024 12.61886877409366 0.06887394015357816 0.549507480483931 0.183155104797362
Ni 7.989920591427804 8.851367555463147 6.843239465948252 -0.23595656486910974 -0.16436239757089113 0.16349670713648617
Ni 6.711600614217774 0.8423235974047671 0.3763646666450233 -0.5485302041723263 -0.6987463921498224 0.26227951903435476
Ni 1.8834027726545794 6.689173474284885 9.256846105608528 -1.4053487900089539 -1.4355232567098053 -0.21183833166466742
Ni -0.08830731346849137 4.727050720493478 1.5675886839318942 0.7110007840371432 0.4077435370388462 -0.18883467168064252
Ni 6.388513004430177 2.073619477960169 6.941554395630777 0.6528046353123854 -0.38152754076511064 1.0350906515100755
Ni 3.3022793596045177 4.310375699725903 0.29181740898068953 -0.6566209237346821 0.5121827758915437 0.3292945516023232
Ni 6.029462773787112 5.509561711675143 4.741082082399323 0.6054960800344088 -0.6024943170936076 0.4844853099762753
Ni 4.946669298255226 2.9857704975259662 9.20565966857711 1.9554980178419419 -1.5028337090310053 -0.5247994362142897
P 0.168799326648973 5.413256404924807 12.342443474834969 -0.05157401542254989 -1.3913578750465005 0.0148990285990195
P 3.9941728259128877 6.208861893940482 12.408249851200646 -0.6237090034980097 -0.00886953457548795 0.7484530153463304
P 2.2016665674325346 8.46053954347858 1.4267539848565423 0.25213651706308193 0.3799727946834811 -0.38440949029859606
P 6.294322616573993 7.783882492862978 5.8910291826307395 -0.22718190400027327 0.3064811532522335 0.7558189687930984
P 4.7209579541473445 1.2457592258949461 12.532882471615816 -0.5535338280345048 -1.2305842232681323 0.9657361721756529
P 4.093664010486757 5.9139882021663706 8.13668066326873 0.16739347108773106 1.38840522017608 0.173905561174636
P 4.5681978124054305 1.0287775470097382 3.721589479317659 1.052720705887013 0.023523537043236904 -0.1138322500318233
P 0.12272649351396951 5.709093059769875 3.740162067070268 -0.24426482762448898 -0.30153383654928717 -1.1625731453354815
Ni 1.4493044200611322 1.3263511352444708 2.58282625019162 0.1734039389478691 -1.112017543875117 -0.24375009277159956
Ni 1.9472643236031253 6.395055753519747 4.793467273459258 0.34880202550763156 -0.12752645968946424 -0.7095383405590038
Ni 6.012336430571909 5.557313880408653 9.048690388253089 0.3164434066712679 -1.2293490653094505 0.8524201996586159
Ni 8.589396601889131 2.276075713887238 10.161254722090755 -0.1263434951249566 0.49218447839274587 -0.14999995820163198
Ni 2.4555018330052136 5.2503356528360925 6.951959796590009 -0.7430454711775138 -0.13265555338591348 -0.12699295578349742
Ni 0.3920366656334389 8.94770886083296 9.130671844314348 0.9739505896656453 0.533109755852198 0.18438692032193407
Ni 1.3151465649328955 1.0412510686578054 11.45012589466889 -0.05753871764641704 0.3778130680280009 0.20789194542240969
Ni 4.036291210698569 7.015374964657065 1.402755505183573 0.24974127735802798 -0.091623575145268 0.06816662967390841
Ni 5.623623337481495 7.669532878100828 8.143358407181333 -0.3285831273575954 1.223433471155964 -0.8644161956782274
Ni 5.581468954076339 2.8534665713006886 4.718294956271685 -0.7949213341111987 0.8091145948924452 0.08839246980248003
Ni 0.8805226324951141 7.398481272764258 6.770569952779676 -0.4533333098535031 -0.5939379428831643 0.7979848035278708
Ni 5.112532937486017 4.3303909321539695 6.970585482306343 0.3170275613095121 -0.08032589074426165 -0.31366095883012435
Ni 8.244403832151033 6.950523451672959 9.050942101901247 -0.7417650618031935 0.5365943719666888 0.9355555348272147
Ni 4.709231403853382 0.3012463473866635 10.43633727284303 -0.5641411712367058 -0.24869072460632655 -0.4592820712377703
Ni 8.124987411697784 7.491465706868031 4.780768760439472 -0.16409525995243351 -1.4578010942713988 -0.566567007069379
Ni 7.310644641245401 6.159912771109431 6.973285378766963 0.22844534409372916 -0.9748574177506307 -0.7848189555698742
Ni 2.3455260505092688 5.388714346097766 2.452477049003832 -0.5815467683076629 -0.4657761636025462 0.10910116310474113
Ni 2.3278417286922033 5.2962698912861175 11.381131840548704 -1.0350086333192303 -0.6819815139866577 -0.2729488258227428
Ni 1.1535847607293592 3.4347632789271705 3.7576150977572063 0.4674864614254336 0.3293027791324393 0.6121737491649005
Ni 3.727009071479612 2.7423928309107577 2.6478163578607052 -0.32729911843884923 0.29413831541616436 -0.07806331996233007
Ni 1.3839849250238516 3.24284563885139 7.942065826628791 -1.3851316916311307 0.2750643295038489 0.8484218771325001
Ni 3.555232659000061 2.3896333590209404 7.210643176240476 0.2237605370235501 0.8742653205581653 -0.46479014554019304
Ni 4.297425196369792 6.679588841849682 6.007758306140184 0.23573699265913595 0.6980953888293848 0.05162698014767238
Ni 0.6014973329448449 7.292096352560938 11.387467597576293 -0.022574542866406287 0.8978029986687893 -0.9395574568977562
P 9.377550376673494 5.54665828904407 7.9131661349143085 0.5640591530458609 -0.23637128380902514 -0.35337576092124307
P 8.519496282523663 1.6051514434230214 7.9123759652168335 0.1597261843504604 0.2716841001777063 1.5305525151025126
P 1.6907291615698257 3.1965694135163534 10.260821503765518 -0.22455320812817456 -0.2718388805880157 0.9235240575839772
P 3.921266621821263 6.349130514724591 3.7056654899929193 0.24844801246790113 -0.21614467234950516 0.2545073312881036
P 6.734576733097654 3.7993752962791123 10.239126935738947 0.8969375653447004 0.45479292511816516 0.00197229323502241
P 6.395028754555141 7.53160416758259 10.230815754467669 0.12056494076996656 0.10207588082684355 -0.6548118955504012
P 2.661260942269109 8.18414214314998 5.843741396088457 -0.3263195281343993 1.7069962693179699 0.7193239591908579
P 6.705174860641497 3.996071753090191 1.763638965523398 1.2783959434347725 -0.6764330733646027 -0.4010383571045287
Ni 5.226594563292369 3.0950713059067563 0.4016464971022745 0.421969450830241 -0.8588538710991015 0.3626376458391432
Ni 1.5387159911820176 0.8933651399927993 6.9605085687498205 -0.1686139737583935 -0.3577875168356935 0.20448600506465428
Ni 6.954897283939164 0.5102624317475539 9.273218277745732 -0.7476387469751511 0.48181856177738963 -1.4746006823272413
Ni 2.532799868672781 1.4402957655375284 9.254079611701881 0.42193114139313787 -0.8726226427484197 -0.38289331076438576
Ni 6.318882674710771 1.8931583985322886 2.5450888973960395 -1.2514109302054963 0.2836857526242727 0.6279479812800218
Ni 4.0522835974003115 6.9337390953427676 10.260347221953937 0.7441741854653183 -0.2545276430030778 0.19334747194933152
Ni 7.988201657347875 6.930085235466061 0.0938376013853292 -0.2077327941367261 0.9427193995655055 0.8631591833426747
Ni 7.85367481637002 3.848540410827013 8.206952668380277 -0.4368165431454026 -0.4439600961687193 -0.5689126244834202
Ni 3.144353415967951 8.5167513877887 12.509936951562487 0.36838200452208814 -0.42317915486762603 -0.18164946678611296
Ni 0.1733351527028156 4.803583785497203 9.999569622615516 0.2027091156698896 -0.10708670377787365 1.0634707453146652
Ni 8.858378286605891 2.387878426321537 5.929675500568063 -0.1986722265963546 -0.2825516390198295 -1.0128889186020555
Ni 3.6076556486104443 2.459650673899701 11.165705302024813 -0.820454959605929 0.7845903844988359 0.6349398392168226
Ni 0.9745816253902142 3.242602648169934 12.703209039696013 0.2172574457977097 1.2009666575120155 -0.7958068220399456
Ni 3.1533710701464237 8.1559552241011 8.104330503877575 0.9848685221297296 1.288110085398743 -0.995908324883659
Ni 5.76697883988558 7.6991687415835734 3.8363431785834163 -1.5676283369088873 0.7145129109554598 -1.4908914490674645
Ni 2.9322225510569915 8.41576626050662 3.5741301342934317 1.3457436767518114 -0.7541919747126365 -0.978542579911702
Ni 3.2932167071517013 4.405592048237122 9.380609359363376 -0.946399419520254 0.44309260596210137 -0.4275865399067023
Ni 7.109304362522055 5.755693272680185 11.299360076445888 0.6187159211587925 -0.2760387776019762 -0.261984099281123
Ni 0.2616856645146769 -0.008965456180234104 0.48788298998546986 0.5295590623864622 0.010121918925350309 -0.15489482440008806
Ni 4.355895954051966 0.47220739113510674 1.5362914841603805 0.4142653973177639 -0.3768702444987574 0.10840079460360687
Ni 5.924202810442385 5.499275106160179 0.27397919306536933 -0.3504693859077255 0.3843562684631574 0.5785768870460616
Ni 7.714765143471091 8.970909971084557 11.390457282923686 0.908939474901583 -1.1035221048095962 0.5228497686870867
Ni 9.23148597815392 4.79968693493904 5.688959031897539 -0.031212163936746244 0.43714153058498906 1.308010938087728
Ni 7.755002600389207 8.71999059368935 2.549988309506579 -0.742089792132464 1.253124056241861 0.315617825446179
P 8.549375136687866 1.5056242602296779 3.770128217886696 -0.08713905701135315 0.44209784614899994 -0.41706327177787533
P 1.724099881823096 3.310532043119148 1.6353182865430225 0.5618544320850581 0.39489110655621024 -0.35398485526015167
P 4.834353605493408 0.9316172730468719 8.23063616013284 0.20720957464340442 -0.07865390235847745 0.6824905924125924
P 8.477386897392853 1.6604273236267937 12.507131759139902 -0.5482712940839848 0.27011495591837353 -0.03215447324535753
P 6.207817933975709 7.755065597973288 1.3221428966278501 -0.10080601297548446 0.2859969172559526 -0.09176164338502905
P 2.0091999484097616 3.267738684218312 5.868439148944727 0.5414771539802868 0.10432996696834292 -0.7352701981074692
P 7.1545276282374495 3.9106740280407615 6.059392026018579 -1.2781722574597407 1.246133740966957 -0.6749914558220698
P 2.3325035499142084 8.497978107732518 10.379789741406306 0.3053758360031967 -0.3569125704299079 -0.4721411865886256
