# total energy = -381172.5267047022 ev
CRYSTAL
PRIMVEC
9.20273480027019 0.00000000000000 0.00000000000000

0.00000000000000 9.20273480027019 0.00000000000000

0.00000000000000 0.00000000000000 13.46913260688525

PRIMCOORD
 96 1
Ni 8.93012195422528 0.9802384744035153 5.962206008475449 0.10580552307260488 0.24761780325712196 1.6122611451269135
Ni 5.5571908996651205 0.8878862722725528 0.19005855522899057 -0.5123429556184917 0.25911577659439244 0.0950328579371331
Ni 0.01291051631436302 7.398078312863662 11.722252786048834 -0.9495839878958225 0.23938641648626516 -0.7818290197036148
Ni 4.363412172529065 1.8271109195620743 2.2041423531220543 -2.047731201546751 -0.6422335446647585 -0.7513905007080995
Ni 3.4506297424510763 4.100416424270553 11.878629332787863 -1.5871255264015502 0.46153332916579226 1.2096906676485748
Ni 3.648516143696887 4.63782851437666 2.196290579995378 -0.2347679438776473 -0.8828486913518022 1.2226302585283784
Ni 8.498412473276472 8.138281861736115 7.204679164989357 -1.0326776711932086 0.2895730646429851 -0.040012535837195606
Ni 1.897852340125556 9.060267026374202 11.387288892709979 -0.051703341911562575 -1.510097075461638 0.19554756492444386
Ni 1.644031718223463 9.03691048606067 4.821868481203346 0.3961447764576533 0.19561827026137923 0.5303098245095577
Ni 4.145473012676798 3.5960513539697625 6.010465148508609 -1.2359493442347875 0.22716133517498296 2.5175265136110188
Ni 7.357098535867542 2.4777534556956406 4.44971633750713 -1.7641457219457684 0.7604132730320001 1.9747054440083278
Ni 5.281716243343114 0.12554370486887187 6.615485128060484 3.429628959621616 1.1624106516156882 1.867577088359242
Ni 5.950138462646791 4.563663676556821 7.519816686991934 -0.5165114851738846 -0.3720345136730109 -1.5167546899874718
Ni 6.001535735164945 7.13970233735432 6.942368100182115 0.5427508784863879 -0.6051191563109642 0.471526178712446
Ni 4.002885843402623 5.836815989273731 7.602853881201164 -1.2041435125781004 -0.5031810866135656 -0.5703616982251211
Ni 4.295873303592498 8.947607149889468 11.506571977257616 -1.9829072630928302 0.2852250720869346 0.5619089394720775
Ni 2.21674549810211 3.181541783913779 8.340545083538707 1.8037234842383902 0.18674616458273 -0.6520705853598383
Ni 0.7644499936179436 3.8053767542737766 11.903009217184477 1.5052551739883044 -0.6649500124256678 0.5068775616285464
Ni 1.5168683320720138 1.173560319307517 1.8828500422456826 0.7405499584491698 0.4001695813463302 -0.37445366463746477
Ni 8.161031021568679 5.878375538547139 6.228961994075218 0.6922800676991884 0.47113871346604025 0.8694352461593736
Ni 4.839184346551629 5.839355944012318 5.180726354554043 -0.2919716467821488 -0.6404322297899615 1.0473399011910736
Ni 0.20277673439104751 6.8774244023914965 9.125687425815034 -0.1817281425428483 -1.8615383383643296 0.10110760337630327
Ni 3.571397228083257 1.3280282188987802 6.2235066130279915 -0.6971589930580445 0.3869957629685335 -1.2240775324978659
Ni 7.344592019600367 1.1130431368403053 8.078044442399529 -2.0749167608226067 -0.2868430673063318 -1.7882544420685138
P 8.188758860798258 0.7024695763556763 2.1836018495839133 -0.0912394523329719 -0.7794034409812577 -0.9730967263057823
Ni 1.287977918093229 8.867524953747486 8.574543935471803 -1.0332656824861945 -0.6385681799980293 0.6369866944435223
P 4.0698909537347046 2.828083154929493 10.209009411120043 -0.4611407217130639 -1.2697884042714196 -0.10310277942946115
Ni 5.469820137751539 8.087409145087886 4.697764084019674 -0.21597009444485385 -0.583318515496105 -0.5229500417103767
P 6.145392881808414 2.3687194566275864 6.317898141137472 0.10713735451015097 -0.18050249766586335 -0.07233181679519156
P 1.8902508813789143 1.1542897931386695 7.269276839960517 -1.5308067972051635 0.3706607732539358 0.34629468570474553
P 2.6846493340757887 4.666679087222572 4.708552449744478 -0.24966131604971195 0.15681132469651057 -0.8430873522934642
Ni 0.28355557753922933 3.0941158055928373 0.7858297865479659 -0.4462476066513153 1.2477136838595673 -0.034989628701307486
Ni 9.052131809023074 6.518821444788115 1.8876851589835588 -0.3150221008437091 -1.4553562322753322 -2.1187610117010673
Ni 4.988139808141392 3.3009564675656247 0.2014009255743127 -0.3220576675342518 -2.0578119828215207 0.9058734343817495
Ni 8.343548856099124 3.4814036868200477 6.97746825006779 -0.8900614070501573 -0.7868694103409997 0.5384854183418145
Ni 5.039279404091863 3.617972267691919 4.06774487603529 -0.2080791217325513 -0.6391255951633961 -1.7300441522763688
Ni 6.655960595202711 6.301241191583692 9.656007888669128 -1.3704900304585559 1.1722446069869745 -0.7694501864232878
Ni 3.363369413352217 1.8606180760953952 12.518117234361132 0.8022134968972378 -0.23849964300593765 -0.5729880801043745
Ni 5.7508072320750445 4.292468291805261 11.696392181661498 -0.13775199407221436 1.6913305377562546 1.7385935845082767
Ni 0.5332984677577426 4.100315194190393 9.683874689190564 0.32927706810082646 0.21181493462589976 -1.9359974859151692
Ni 3.1917844274791696 7.071197181288943 4.287252181856597 -2.004282643444813 0.3511589557755823 -0.8888121080240887
Ni 3.666314232336119 7.859613856521753 6.397271726718326 -1.1491612428049498 -0.3874382498225908 0.6283930392372403
Ni 4.122963123942796 5.009793842561305 9.94372126168261 0.2322994277324967 -0.21346172620070336 -1.7184898717798662
Ni 7.798811389283178 8.574095762298727 0.3616610262977024 0.3897478717923739 -0.6367005306616712 0.47292151639807584
Ni 5.977185299518923 8.60962752043527 2.3726149741668765 0.43526025440187616 2.2333715346598115 -0.7808088059692165
Ni 7.698777664614901 3.125552346850136 11.712905568556142 1.7648319493795155 -0.5034672503954168 0.05235511656294854
Ni 4.902158659146386 2.2808333415786404 8.154549535618001 -0.42505168929999054 0.17437735860473194 0.11266625474818016
Ni 0.19699649681384926 1.951439863469013 8.46801676129792 0.4794418340150968 -0.1753525780338077 0.6486237644618184
Ni 3.1889775934383393 0.05365470330574576 0.488483911270428 0.43850961457710935 -1.3932309236994973 0.2668116025767534
Ni 1.580146334907255 4.910588364003438 6.626368281951257 0.16072042994292965 -1.4255448053408546 -0.16654269305166156
Ni 3.420509192235872 0.32395742280497636 8.819628401455994 1.6854352553177425 0.7790074910944197 0.2694050743355425
Ni 6.761396325057768 6.329962926145761 1.1952990188853831 0.7362991535926158 -0.8658961226578636 -0.0616437409537261
Ni 7.245938705116104 6.926382950251224 3.3901806602196096 0.6550304393191106 0.21215354891224109 1.0086738520794434
Ni 1.1276202683835024 1.4910914725691762 12.880019372304309 -0.14710463893170794 -0.05872605308629886 0.11866078176871822
Ni 1.8887140247073777 1.8384026748673161 10.31257422503903 0.4674082998893305 0.9823372710674436 0.36254868566976267
Ni 1.1900240114355343 3.727190321451175 2.8375288416819786 2.1015539037941613 0.01121566621016133 0.29694004653101763
P 2.085910220861181 5.824852434345602 8.897372182746256 0.7584548637540486 -0.9494140379768617 -1.6943837227602818
Ni 1.0468294616803924 8.002173417592248 0.2621049235530944 -0.3655771880834414 0.8826363182306799 -0.7253557672072346
P 3.2559919065049807 9.008989389405329 2.9536995614013897 -0.26790175031713864 0.46365166106037564 -0.10021697324123387
Ni 6.58893707940151 2.2213008517093593 2.210352358403209 -0.17857288474331826 -0.6602464363024113 -0.010868567283387734
P 7.616532825851295 1.768379067599522 10.039594430056265 0.749626209718825 -0.3439390409883754 0.8222336487729066
P 5.9329569572230865 4.338104652488793 2.3314391789246254 -0.1936151237884214 1.6218701289715873 -1.5001510199925194
P 5.821502638965726 8.304409626015023 8.863941408909783 -0.330093907575167 0.31380005551114987 -0.5910516224743045
Ni 5.859555946371736 1.6171689360425336 11.43307065659956 -0.7185289740933883 0.8910350838173364 -0.28857779060925143
Ni 2.0160982764882696 6.16170933018347 10.970850429490199 -0.3526460818440701 -0.07353226486119595 1.4582453808976692
Ni 9.029345838252269 4.020637918369054 4.882978319776228 0.10479533664053567 -0.11156607970546593 -0.13356932344943448
Ni 4.792774956165049 6.728781833776776 2.7001835500132354 0.3981186123545724 -0.9527628998444365 -0.6041681052516046
Ni 1.3776309581777144 2.593017706060882 5.610742532343793 0.6473186724971497 0.42019410409737307 1.99678350685429
Ni 6.24071480638192 3.635080151239143 9.707203621300417 1.2001870990335137 -0.96499852267868 -1.5097368639087418
Ni 6.859037338740419 5.013309287163263 4.577915951570048 0.20886433663800805 -0.7102078558222027 -0.47842059183943403
Ni 8.305698008853437 5.317413650701738 10.858208038201129 -0.48254412708950445 0.005110838864004101 1.1680061434255948
Ni 7.591667037069907 0.05313566907655617 4.356348153480734 -0.8405422172741073 -0.7128440078934691 -0.8796504961294787
Ni 8.081905909820946 8.66349112581553 9.645393454627511 0.5818239332284496 0.5633222748798362 -0.7509924939387324
Ni 2.3055886975453066 6.973620586748213 1.8247310924048328 1.4506058620745403 0.3942755844593984 1.6943981209379853
Ni 0.5718652877522059 5.823527240568948 3.8603207606913923 1.152590580201473 1.2239862583356402 1.2136576227161227
Ni 2.190922624926472 5.20520470821045 0.39800998726318176 -0.7364323367363704 -0.06292929253436905 -1.3185527181593162
Ni 2.6949471940485394 2.0216475254280093 3.9737168559409333 1.3343752870138696 -0.5239188333815493 -1.2277714364096852
Ni 4.652175577555854 5.4717895229474 0.22200768880128657 -0.06025560235694784 2.0515474899690473 -0.24214238196484753
Ni 5.055991570053004 6.692311396715103 11.471080711153137 -1.5815850561992955 -1.6862343541802702 0.600931600592178
Ni 7.174562295867976 4.087265716584172 0.43592433337733405 0.26287421519556015 0.39749640538954123 -0.2825120440311457
Ni 5.526628618191031 7.844604196454231 0.08621949982011241 -1.720011193520399 -0.1746352402518089 -0.5937307119683646
Ni 8.575853484599705 0.5072896993439905 11.80197699581643 -0.36609346559822753 0.520515207016639 -1.0344594456839795
Ni 0.5052328881698084 8.359303937666013 2.795949046392539 -0.23780313115954527 1.2153473517137197 0.7694339884733716
Ni 9.1325268981401 5.4595406832479085 13.201459847207097 -1.2397607475610777 0.5472317970758769 0.2738695378647993
Ni 5.284431050038343 1.2361941307235513 4.3400777187784785 -0.14895094811182732 -0.2758387457760282 0.43378649806982705
Ni 3.7848270480010755 7.248901985644457 9.517006104779568 0.05055765834289357 1.4467906020935082 -0.2182959143645531
Ni 6.3895138214841625 8.473482265353164 11.101420667975797 1.3825122517304125 0.5358032435239611 0.42824782763978503
Ni 0.06805054097810878 1.7008954150703153 3.7137497276261495 1.7745028968103762 0.2622743768280322 -0.6202094749851835
P 2.4937017946882922 3.137313441617943 0.8021195469927973 0.6989399962178673 -1.4736514310400943 0.153249061266549
Ni 7.685360077626276 1.7517773344531031 0.1751215967644937 0.33570713999688634 -0.5236208425251563 0.014486366541633114
P 8.959138176293273 7.654484903177144 4.961974593240119 0.4254736073287576 -0.055099254966988975 0.6204228765475702
Ni 1.3210433433676652 7.070359732443974 6.719251481866338 0.2113318243418941 1.4914228960909024 -0.14666395184986353
P 3.0154508305731103 7.100940419387183 12.872233858866464 0.4028103614032869 0.6249598451859754 0.0385367226226175
P 7.08298588426043 6.604057172283753 12.251710952674648 0.5612805618594591 -0.09582167238701562 0.8320781456671541
P 7.770062046517428 5.03719038334672 8.370755820552601 2.050806755148281 0.41204550684830965 0.51073987279743
Ni 8.089148461919745 4.006382882535461 2.6894089883902716 0.43881197630887653 1.156980738849369 -0.27303547199927813
