# total energy = -340863.90572291234 ev
CRYSTAL
PRIMVEC
9.34106696270881 0.00000000000000 0.00000000000000

0.00000000000000 9.34106696270881 0.00000000000000

0.00000000000000 0.00000000000000 13.67159570944361

PRIMCOORD
 96 1
Ni 0.9971028317382448 2.5551740875303808 3.3321780334030744 -0.5578501960216715 -0.12479132014648832 -0.6969849293740255
Ni 3.716567601692108 6.279971169050502 10.498595888972064 0.7144010679679439 -1.6947045964348104 1.3644283976455083
Ni 8.774979445488679 1.2723840695719972 8.895122378124247 -0.5665852619018241 -1.0012197097942435 0.4149397976769693
Ni 0.15913161124412817 1.0201472434700354 11.336035602766733 0.5083924556111761 0.43430946045283264 0.6396061343442404
Ni 8.14355135475749 1.0259387048699988 3.6607743439568785 -0.08166286438813032 0.326180945674006 -1.549856614747763
Ni 3.3308936367216306 6.0802498203527255 13.045505000620691 0.5793790712323829 -0.6507539234309438 0.4543753779647723
Ni 6.3274424703966545 2.943332776262778 2.3394972626757045 -0.44047702271612527 -1.2868936964931386 -1.2416412524132423
Ni 9.073024863050998 3.703462085007997 1.2976096203955483 0.430055313162169 -0.7669598159012662 0.5732680732386385
Ni 6.836717430922484 5.07959738324031 11.753142257432174 -0.48743539374353473 -1.7661177580704746 -0.01812730572833007
Ni 5.54319452724062 2.3080468249538706 13.352295524896956 -0.9993744290553885 0.21704327290437458 0.5023961288184251
Ni 3.2176051788849236 3.3909847192796394 3.5510196116808266 0.5516227270547209 -0.983333573542442 -0.47871575448234976
Ni 5.64531106921546 5.173932816592297 7.743386592900298 -0.4471631764870492 -0.47133643129914304 -2.4435391634902754
Ni 2.414404211244169 6.684560794238601 8.621499179642903 -0.28392949320396266 0.2550151241624576 -1.736090615580765
Ni 7.141077409624118 7.122666167012299 7.019092418620691 -1.0224665349881616 -0.11886981245573076 0.67129292392456
Ni 4.497882449881065 5.03845932516702 2.4346238843834613 0.4793857839661808 0.7590030229480348 -0.401754923555579
Ni 7.690659073280338 1.7821634477036297 0.620797022635547 0.284200230366846 -0.7408728890062273 0.9336925134765468
Ni 0.5476854271010714 7.196189703591513 1.0124763594351158 -1.0638564107888582 -1.0160871138243792 -0.34957052824253987
Ni 3.8693781130501796 2.0355118607517135 5.776371840696636 -1.195258808493961 1.3800450211368427 1.7394248221603203
Ni 5.961207265383151 7.115529591996858 11.552320531068405 -0.3063230304078144 -0.16058313303411698 -0.15609321558356343
Ni -0.08136255981606891 -0.018061886714467044 13.511187070724988 -0.011536025664057552 -0.4024789462057972 -0.12233617373777642
Ni 6.62335812473447 2.485695232864366 9.805309385849199 0.28607302190952666 0.09827141947908881 -0.09573348354858352
Ni 1.133286244238356 5.048108647144701 13.52465315258658 0.3135853683971825 1.0807729840385387 0.7207866597793134
Ni 7.610727564894067 7.097594743790521 9.75019896009516 -0.41092476298030517 -0.7302706880103488 0.5088717092404398
Ni 0.056079094378518254 8.04541410722843 8.864074540380377 0.03887225158516531 -0.19834029717823262 -1.86132776501542
P 2.6770096214654204 4.35807470347259 11.609672812848238 -0.8446431268163582 0.04327089487349322 0.6703369877691939
P 3.4798649696355324 7.168231890736528 1.3959654488871232 0.05048361057184854 0.14953895940481343 0.35020687627495817
P 0.9201698057864706 7.041464273544745 4.126839397798915 -1.473728821245249 1.4347447266725677 -2.5200107134854535
P 1.6585344289479556 1.194068565737651 7.5098347026666366 -0.6013180373973193 -0.26697615317907575 0.2950474574939951
P 7.220364384402974 1.7759516382988298 5.4244789096081405 -0.3955534227305575 -0.22609638424557835 0.8599195933594544
P 0.07892827781472937 1.2288360162709808 1.662821044490606 0.17752258910193297 0.3499615930333715 1.1811578503162043
P 7.213078352319149 9.105550457558536 7.875658900742079 -0.35913888865726534 -0.1417752562989945 1.5155231315732156
P 8.913628899617162 2.9208114642703387 10.402566920213927 -0.6554724119525357 0.4887106609115326 -0.3664649900050334
Ni -0.2516249862282561 4.819691541316782 11.53326195252914 1.2528983133843004 -0.5820946703913331 -0.5154521906714349
Ni 6.747080554157886 0.07369914863456872 12.835071316546337 -0.7098165339210549 -1.2323379727344452 0.476562969805405
Ni 5.364929608923031 4.9078338473975185 0.2154946740525801 0.4959799408794361 -0.8170863002440121 -0.47746851233881005
Ni 7.625822728801069 2.1172648771589415 12.06168329762191 -0.33170521792634483 1.561982965697652 -1.0585619951591383
Ni 6.478132559596997 6.639247279317274 2.2538032501964698 -0.5069760348796236 -0.20955262095428426 0.6450062223138892
Ni 8.338770309270133 7.007836433157859 12.326392316080698 1.0412327598520714 3.524118286350453 -3.0755533444198706
Ni 1.497447732428001 4.743300297237908 7.131911020798659 -0.8858316852395259 1.3321574534269445 -1.625864080622329
Ni 4.111096897964465 2.228003223766309 9.3133368833091 0.32462748514395706 -0.7492451722303225 0.20699745863259833
Ni 2.1810176578924114 8.349998271532643 -0.08608353496371662 1.0616943701405326 -1.3400162873497308 1.6022217586130405
Ni 2.1195160742515076 1.1236929686613195 0.9882222795560749 0.4855078377035187 1.4149603449567887 0.7585381674964743
Ni 8.255541404312591 3.3253357019910204 4.259166817934664 -0.21249190608826632 1.1370153514710355 0.13879766172790936
Ni 1.578388076025879 8.744677024873386 2.5380089432262305 0.49246807107143575 -0.5111281093747843 -0.9127156541145637
Ni 4.718471741752259 3.6919352086087147 11.28964786516638 0.22275729257001636 0.05675710228538612 -0.03849969873709499
Ni 6.781184788950252 0.019031489445622236 1.8638482743234062 -0.9694537302365562 -0.12860040947993337 0.8562873959235059
Ni 1.5005863308641103 8.371389314445413 6.953058549380978 0.27781798098958604 0.5202508976116589 0.9149160041999921
Ni 8.853649909860444 0.44840296478550234 6.645270399173237 0.4764601256789535 0.593245801912146 -0.5980877033854797
Ni 6.373577999194106 9.064935499224598 10.484787924066538 -0.36518200952755175 1.9445857418048125 -1.1420066340380397
Ni 5.294030912107348 1.5444706625689955 4.2005562944603545 1.3470976196765445 -1.164944988001768 -1.4137187592402038
Ni 1.762098836272788 0.09493793215891902 9.648003953159414 0.8142912539973782 1.1623512591326628 -0.8211162473390117
Ni 3.0249643588019417 9.242808092737674 5.525676290612408 -0.0001540090793610251 -0.4062384132482294 -1.674705270494748
Ni 7.82731888018593 8.380394102815677 4.971306396127765 -1.681013214990647 2.0521383294755107 1.6089073981633324
Ni 0.5947223688422272 9.242070148462517 4.491379199192912 1.3829025451902957 0.3410146682527288 1.8983616778402663
Ni 3.1967185535779588 3.6611937578550373 0.663388550698892 0.7121796348365929 -0.33247526332314997 -0.4703761242684028
Ni 3.948141988089684 5.348087665529266 4.711901235383332 0.7485160073737818 0.01764008167926639 1.0471303562834289
P 2.5642255812345174 1.1242347505342194 3.7880846771282393 -0.3101884269004916 -0.583704180970298 0.6935357944831604
P 4.236724905009805 2.1371800315213965 1.9686279544355534 1.0731704891009326 -0.48613621531613693 -1.124314101854283
P 4.653308459935894 1.2118632979423778 11.641295126198715 0.4235586496942318 0.18101748962906888 -0.32303442962522433
P 7.601993667460251 7.784013694621042 0.7073952503785185 0.5398565876577283 0.9410880346096696 -0.64544382407194
P 1.8800671685633366 4.4478330141052504 2.12071079669192 -1.9204140296546153 0.5936121841126293 0.18566552992404153
P 0.475548104831138 5.781391729981056 8.793392556313854 -0.734553888766735 0.04332591648114474 0.24350609508159352
P 5.989230465705556 5.5590743407566485 9.779196433682106 -0.2628086520649474 -1.2942539935129518 2.0136800254993124
P 2.459306719227435 3.835115080122653 5.461132321523168 0.1933199611455058 0.5179204497062693 0.5493722404576474
Ni 4.632599314897637 0.15790512917668426 14.390584988255714 0.4056432028663917 0.7649088469095086 -4.8280743376425175
Ni 4.035499644561392 8.384662970331457 12.01792039978509 0.06315503539192995 0.21581042893853802 -0.9996626497197687
Ni 7.873846733787896 5.74055258604454 0.20409950669481305 0.29512690458167884 -2.1348270640249942 2.9305400407995528
Ni 2.0639927733460506 6.406869561177123 5.547113104752369 2.7925358215072165 -0.7803380369803851 2.4583109224828115
Ni 5.309079370680479 7.233806179490954 0.10949691883308549 0.8317541866688319 0.7526899362458134 0.9907206100351326
Ni 3.8713210549391994 -0.2720398876631277 7.681617854749654 -0.955795001802541 0.6216410652253874 1.8763126684600266
Ni 7.800369902542552 4.720508094309019 8.660982934790493 1.1939801988918533 0.031528152515268276 0.5491187296859446
Ni 1.3116072089565893 2.858357091818474 13.0389288896117 -0.41993416556776714 -0.9133406892930722 -1.2652912877320144
Ni 9.257651047841772 6.8606305618642685 6.241835329838419 0.4841456672486694 -0.30563500320185427 -0.11063971123645461
Ni 1.5158029286391759 6.889466434996023 11.947593376255984 -0.6541418660665702 -0.5399751155134636 -1.1761871365744905
Ni 5.355719317083734 8.595397436755938 5.997195593343861 0.6991981349752604 0.5036641968975714 0.3362794675605886
Ni 1.9285940104549668 2.3890151917520708 10.399421783031077 0.26074534177801545 1.2386675144968988 1.1835209512317424
Ni 7.594763681777071 6.278224389563738 4.442175129960157 -0.9462888620843186 -1.7603793129248007 0.821027287169631
Ni 5.797813325369986 1.537427498221298 7.527566849723978 0.8743211134967652 -1.572350682085221 -0.49646536515628686
Ni 4.004300481535782 -0.05149263059241807 2.6142273775697835 -0.3295655458755227 1.0211051358642609 2.9701376005865168
Ni 2.507646739783583 0.8070382778715691 12.448835019356055 0.3527504686324183 1.7258982484287952 -2.2796503631216933
Ni 8.200223606876166 2.8551998112488164 7.142342190065335 -1.2943918046423966 0.5187948818914226 -1.3370410067714908
Ni 9.228796492576471 5.513639391967256 2.959476941968515 0.9239297776628281 -0.6436311963432334 -1.1087977513862388
Ni 3.445966238312197 7.508059899979551 3.7199724205312803 0.016491569897119984 -1.6473353631222272 0.5323924180701992
Ni 5.826705244902385 3.7780411621326895 4.9910487407548985 -0.5565625875584996 -0.6448604407646442 2.057289277548831
Ni 5.285325037873854 7.205101081294038 8.713550722168614 -1.188268750329373 2.41562829601262 -0.13443681365605234
Ni 8.575398212792516 7.912500068099265 2.9239855587601897 0.33357389570396745 0.1960818401613591 -1.6687415967121455
Ni 2.953878840650776 4.263402991716734 8.764504373208165 1.504488728135925 -0.07985563597606248 1.052409088183865
Ni 0.702785433925483 3.2157743297971937 8.46829540937364 0.4142458569337382 -0.45808419427492725 1.048354458498517
P 3.462995003041445 8.236700472629163 9.753439376159106 1.5549342863809865 0.19401415899905294 0.46411574518098786
P 7.939645208144901 5.133859640131258 6.324316015347352 -0.5037685836859195 -1.6662882500756464 0.9242316251739632
P 5.824388660342399 7.8552019645067235 4.110501872010953 0.026672109974547612 -0.06770100289139953 -1.736216599635668
P 9.69051608215518 8.364570335700293 10.946682191593924 -0.9697100692217365 -1.5901362882034162 0.6490778212801015
P 4.731156910431533 3.3021978795914886 7.3911788678615125 -1.3843094528401514 0.4449700254904723 0.645781667027333
P 4.081756607226908 6.8879345000450645 6.50435760456538 0.10379183507668575 -0.14520587924709832 0.5287697337159474
P 7.254832920799531 3.7617129774115012 13.727102092782404 -0.7994876133256424 -0.4203069755261535 -0.6801781422293318
P 6.713527442305194 4.638913876036952 3.3825712204361764 0.18571618065631887 2.3590740537666592 -1.4766035716898829
