# total energy = -381172.914800806 ev
CRYSTAL
PRIMVEC
9.28470746507590 0.00000000000000 0.00000000000000
0.00000000000000 9.28470746507590 0.00000000000000
0.00000000000000 0.00000000000000 13.58910788775011
PRIMCOORD
 96 1
Ni 6.39599344606544 3.2537235361557078 5.056737556251764 0.24609802417848584 -0.5686305744666271 -0.7136413069837839
Ni 7.918917558444313 7.698164358042424 2.237038803769797 -1.4789026521367048 1.2649483025702988 1.8994266287696708
Ni 9.259248617361562 8.765116495667897 12.970735148305897 0.34881822345754765 0.22666356960295805 0.6814855481868457
Ni 4.717652618447366 8.367536045028203 1.2683587934581584 -0.08770881347189412 1.6133860027599765 -0.055742544977942704
Ni 4.7201873435361 5.276387733428228 10.407326813358148 -0.19163306036138608 0.34257969874700356 0.6002415165036888
Ni 1.088474089111492 6.685379202716102 9.091602085686908 -0.4544339991168496 0.25484028914749013 -0.6213929537703233
Ni 5.900719305375752 1.1387786331801932 12.55513958012163 -0.1371200169151703 -0.25795003842106545 -0.6770102860243115
Ni 7.824826334820797 1.6134128695759133 0.3195889094479085 0.03468855252112091 0.4933250197550923 -0.08753757800135246
Ni 2.6583509662292766 1.1598084951801209 6.870150448506726 1.9787109656232955 -0.5667714097707013 0.16657945982686795
Ni 7.952574622351483 8.831799263386873 8.547235983699904 1.5711468915851068 -1.0758835171567211 0.40690407185668637
Ni 0.8392019818138053 2.0061745571348286 12.998294016468451 0.9843442741951433 -2.832219513250084 0.9279430125872792
Ni 3.6667908785463417 0.9711246737397097 13.239011194473981 -0.9024998899238263 -1.4314668272522444 -0.35970453135274827
Ni 3.9448028687732006 6.142613784264986 6.007567716808498 0.3709407663881999 -0.7493809264772384 -0.17902797000286585
Ni 7.87505660123122 8.28952593442185 4.874412830830669 0.48123337869788096 -0.3780655503584392 -0.3935626175527738
Ni 2.4435121243677633 8.379058366768561 2.478054949349896 0.412106184882916 -0.5434882708730446 -0.804371166670189
Ni 0.5368241342596124 8.864462863614575 3.589590394415216 -0.4607599413348774 0.2776588297039025 0.9826041515755852
Ni 8.792190702110187 1.966092475786622 4.498103644580306 -0.47700237133566886 -0.8300225486897059 0.22366283510342125
Ni 1.5740178565667773 5.279897352781859 2.1003057049996707 1.3826870867453802 -0.8557873163586359 1.1606137076162657
Ni 6.394545031729023 0.15477328502436885 10.21130435927988 -2.0114390519839356 0.12969544231632502 -0.5079114022096994
Ni 5.681498081675843 5.975154803677483 12.903537079332617 -0.4283154476529269 0.505733163611458 0.7198962867545602
Ni 3.9062991876633992 0.7527316459295991 10.785349028102544 2.3062448257807704 -1.6844253259959894 -1.2744816959820309
Ni 5.52194038698765 4.780055136108079 3.497537164040698 0.4550214961892035 -0.42151282290879666 0.29437125736257685
Ni 3.670792587386063 6.339969522309342 1.0603172857998004 -0.9117417202370685 -1.3478077583696917 -0.5849732774907086
Ni 3.2398614681795963 2.810620165698952 11.430559121321254 -0.3588033596947176 0.0005545869518893674 -1.7904411653071877
P 6.269257191628791 6.7766293059104905 10.181937758608989 -0.13537552342023784 0.6042979459612495 -0.09284459203656267
Ni 7.480549388702774 1.7614575272310338 8.61776354870549 0.35378868008894554 0.6931478150161223 -0.06843890949868858
P 7.420616603179801 6.132354182715353 3.923813859485326 -0.03954948015784802 0.3677222594509022 0.16990543887630738
Ni 0.5167236714588869 6.660839721362544 4.011667616754957 -0.2087409236862663 -1.2700840811349674 0.07706598904606728
P 8.031856737855847 1.3312041916563533 6.423312768780049 0.0819405435295492 -1.57597953708706 0.8496058701382724
P 5.260390182776628 4.501560341102413 1.2075931696917448 -0.6916660882642733 -0.9838292822319379 -0.4268774296548196
P 2.5209280137078944 4.542840149690352 4.717689757276505 -0.0594215364914267 0.8944839615978852 -0.42364323898823814
Ni 7.285551966308742 4.131834012316929 0.12959408733889247 -1.3283103117667123 0.12016282023554142 1.2116773590613004
Ni 7.968776436563347 6.454217845448023 0.15660330083019042 0.2714892105580808 -0.3137954275254596 -0.9019244770363305
Ni 8.304177202517163 0.9335958868948054 11.139386058518282 1.400866071647252 -0.34049196298003936 0.8800099363514263
Ni 1.2195091630209753 3.1831040525480034 5.818475368247558 -0.37875383467471546 0.048464009038658475 -0.4812740021278292
Ni 5.29764042840299 3.7897389724108197 12.215738033798822 0.6103215264475101 -1.7483483499021955 0.14162330410216253
Ni 4.213000923400094 8.660700677543751 6.17364049059839 2.0821798701429235 0.43897549846993433 0.17598172697737435
Ni 0.7451191144268438 1.5999778981349 7.699126253717123 -3.0834944536438185 1.5592074598350436 0.6991431133676088
Ni 1.3903570617674081 5.746221776157739 6.457217734371721 1.626198324033296 -1.227530781153789 -1.011511835748871
Ni 2.37214986417728 1.4331688470573274 4.295666386239016 0.023387268575688756 -0.47325884513283656 0.22155144518737327
Ni 7.716938036172161 7.81148421045263 11.445847320336302 -2.883766017868808 -0.07773858963305966 0.40129006810401857
Ni 4.98602708251267 2.9259455148826623 9.720940900273089 0.061882853547725686 -0.17998570593044486 -0.9500552711052865
Ni 3.40716260874326 3.5725139607771292 2.6905893268633383 0.22340829589045394 1.1625428063181786 0.17038829204999686
Ni 3.1582860299759035 3.1829926360605865 13.51621541516707 -0.017026616464983577 0.9187621174189596 3.4815886405183587
Ni 2.348362444113785 4.702843510328212 9.933297939877393 1.9445520603533994 -1.010280277334615 1.584595560890845
Ni 0.2952044827060056 1.068075587206926 2.0645391555974095 0.34324407180387984 1.1217615106357586 -1.6799310376700614
Ni 5.165741876716025 8.093107951813252 12.046009870750929 0.6450926113801083 0.5197181650366404 -0.7150793249818911
Ni 3.341009069339514 5.722685043190934 8.2928340756274 0.3958071906125764 1.2904482466136162 -0.8095491113267025
Ni 2.891684945001985 7.376727791844853 10.351815405444166 0.7545616993472295 -0.03529404731560373 -0.8847834464806698
Ni 3.2449123489424934 5.162315819727958 12.337646240447409 0.32396516896960986 0.9908244826028485 -0.20959298727391645
Ni 2.6940599504463725 1.55385147234433 1.785187382109363 -0.02611469480918083 -0.6851717387891813 -0.15195039705978347
Ni 0.1347341012917225 3.668879937685407 0.8594212888677755 1.3606434766817792 -0.8577534389460713 -0.8773282757542052
Ni 3.5828199858631864 6.296572800460485 3.565224537087883 -0.3857894013652582 -0.5987716168263816 -0.3879437287040996
Ni 7.5411970966866715 5.2782261054706066 11.52443308279431 -0.3718756194976434 0.4159371285932321 -0.954185748333892
Ni 7.028495560423533 8.594407867530736 0.19493614332595274 -1.0372056409705492 0.3625180895421434 0.3233643021608173
Ni 0.9655724187834374 3.132093870725662 3.1154519613885006 0.4174309395299392 0.9556103965955606 0.1183105975181511
P 4.081000239932997 8.81765865419222 3.6889804004861326 0.2670365741033659 0.7764150477768951 0.1713527128457952
Ni 6.400255126709134 5.6897429017446886 5.965794890263741 0.5655809890070259 -0.14111731100002148 -0.40975311126970726
P 7.474022239481604 0.7113069959080196 2.314931927064364 -0.7607814550046962 -0.42348125948907717 -0.45087070724562345
Ni 1.9093721989841679 0.30853546542543 11.544259646730136 -1.0670980576546072 -0.4467129763235081 0.9141493012372967
P 6.691841358986278 2.3432280009853264 10.937628440750233 -0.5465527687309814 0.8687436194089877 -0.8439242463724627
P 0.2547203735323698 8.452138297806721 10.667816703997252 1.1824254041747184 0.25005135239927906 -1.5097620607197224
P 1.462935618612192 5.692026939736734 0.025005573659251833 0.21927679022058363 -0.26004857282130694 -0.7986440343784245
Ni 2.408025973125501 7.898704750685443 4.9855312791436655 -1.1217954491974875 0.11024016180519079 -0.36290066969254275
Ni 0.8607610721289629 4.198210384695509 8.217727292988982 -0.8671163682182099 -0.6200922326810289 -0.9308493876007968
Ni 0.2914636741409853 6.591102284946889 11.687230211854148 2.2998960007446065 -2.050561214796378 0.6594488801017804
Ni 8.442342931621324 3.1586574182672926 11.952925109397075 -1.196351013116875 0.11777452250902298 -0.5183482812723074
Ni 0.6173968240765542 9.227922014982862 5.898121444277483 -0.1977887955501368 1.324106815208326 0.1431443687323793
Ni 4.592643319565677 8.376310093412279 8.905010108797748 -0.13094808377650352 -1.0769754646693193 -0.0959617975093057
Ni 5.853005194639492 6.435908402682522 1.8968898385105686 1.290485527609455 0.5855972842279527 -0.13852178235870338
Ni 8.168722607940145 3.396717313047932 6.676424102539975 -0.22534150835742484 0.42963056691992463 2.0651018316147147
Ni 5.462193295610372 0.9661295012205214 7.7774947540246675 -0.4805216973428369 0.3178685691535687 -0.2680076797673836
Ni 5.268802127576598 2.0502026390790484 1.1029898004804486 0.18524361189527452 0.8596748243385001 0.5532525493486601
Ni 4.769609840412751 1.7296852589026661 3.566148365462714 0.18267148029272412 -0.1097537090870755 0.13210816552287571
Ni 0.6241217375628887 7.227049025707618 1.4677729511075397 1.0775030550380154 0.7847389942615581 -1.3364108293866597
Ni 7.6424932531631455 2.910133658376756 2.614258819804792 -0.6500034184181644 -0.10834577299595534 0.019388946049573058
Ni 5.728506554658463 5.803889093103237 8.360630079749816 0.003721928936277461 0.18452293167916609 -1.3135784048731765
Ni 6.634526860917601 8.188768290967891 6.848489226411435 -0.8488399385065252 -1.0297679537455813 0.15433149569745033
Ni 7.455824213203521 4.0016902703067805 9.231475272460731 -0.08953918181241353 -0.25564453021634037 0.5646276239548211
Ni 9.23052173302259 7.284094267265038 6.824354558295492 -1.3029234962624916 0.9868259029664165 0.3074463453789802
Ni 6.140970391075588 0.7907850187360909 5.397756498583573 0.1995191479776822 -0.012377033508114168 -0.2238505256341951
Ni 8.653848563567617 4.587518161144502 4.889673175723861 0.20749728108715232 0.5711571975432228 -1.5763487475010205
Ni 3.219973625175691 3.6078051331664116 6.982980068372298 -0.9350120036189187 0.7615491864086562 0.391829436911751
Ni 1.536563347380151 9.248116253327165 9.124188622844146 0.8586399553160826 -0.6666338278859938 -0.5890996409542565
Ni 3.0019872675446524 7.493631541266967 12.520501122654464 -1.001968672145126 1.0140104338010085 2.406489566936146
Ni 5.668889449183172 7.570211806951472 4.269126978936325 0.25252629630233286 -0.7315834932845013 0.5255674247285658
Ni 8.116932510705885 6.1043607902518735 8.569318731505922 -0.4328164208470739 0.6686570289636098 0.10691881074144167
Ni 1.269312332896301 3.9248964563547264 12.014782614740176 0.31068850646536167 2.6041228107450247 1.0651252501989528
P 2.831352917065768 1.9348865746026234 9.294799761554819 0.11449945130217701 0.059552148532020024 -0.9975510026934046
Ni 8.497178412844976 5.185917545645758 2.1499055397854607 -1.2766182827090595 1.3282866576176287 1.5491053384040354
P 0.34396497995325526 4.731236145204936 10.228860812284589 -3.470706960608848 0.42991493092956284 0.13232799484316565
Ni 5.4941883969135725 3.51086350440648 7.120338956413415 1.0573391784956307 0.24383468206560582 1.0902660111306384
P 2.6751098628782257 7.689789552071591 7.226755628957421 -0.9576793633094474 -0.6767038105274862 1.1013716341254967
P 1.8127648196864867 9.037734070962324 0.46368106721191676 0.8828967709809181 0.9816631278185545 -0.23901849162388514
P 4.194125113490225 2.192890020630876 5.691172746666538 1.3982013803308952 -0.7173156705115775 -0.1673212230888989
Ni 0.9109365587664066 2.2686439473670394 10.279779075504813 0.059403281658981566 0.41593224349722563 -0.7757509318303349
