# total energy = -381169.2960803645 ev
CRYSTAL
PRIMVEC
9.23836632241036 0.00000000000000 0.00000000000000
0.00000000000000 9.23836632241036 0.00000000000000
0.00000000000000 0.00000000000000 13.52128294123012
PRIMCOORD
 96 1
Ni 4.926866874689684 5.903232842603829 4.20714733839031 1.317344042563196 1.8892468600231915 2.2949401994012284
Ni 8.228289412147808 6.023793521229944 7.411934717950742 0.975917997804661 1.6532177900449336 0.4887852229032098
Ni 5.292770843911487 4.89854204398718 12.776530163551623 -0.35919776691965877 1.854213265457826 0.2860938478451331
Ni 4.050173639472637 5.81325115602771 6.72649968237546 -0.26646167543650234 1.2744840099748762 0.11333602712169515
Ni 4.649863703201144 1.3318028682559975 3.8814191760044636 0.5492789094128927 1.2931785010605856 -0.46767595172842036
Ni 0.080228743401745 0.29598893782145347 4.506697666373477 1.1655779936000765 1.3435991196049828 -0.5377117734005836
Ni 3.094372274671267 2.486811122958894 2.623440091878833 -0.22653090067983567 1.5912788864482916 0.3875498356997906
Ni 8.49263602197215 8.39838621022168 6.350459377782883 -0.18777640561945727 -0.7549077698327386 -0.18883132924653287
Ni 7.337923394986957 6.506479677310962 4.706068999192977 -0.6429303136214669 0.6002276325466178 0.5237488834625884
Ni 1.4361871677040035 2.7111925606961416 0.9488374843762079 0.22695333292923492 -0.6191964603396368 -0.7526801660538006
Ni 8.749656607417142 7.605836014156102 3.3086580258489273 -1.199394170818573 -0.00471925985254026 -0.8366601086108816
Ni 8.3582455091772 4.132524435585525 6.026922555854517 -0.3900957420500959 -1.2203445478179953 -1.0922444750132478
Ni 4.5315479475563425 8.553138082073485 2.531440746129384 1.4339551408917368 -1.5440268954398635 0.4525938605843173
Ni 5.4846794245321995 6.683089523540497 9.015775135874472 2.2119527026644037 0.24542645203275795 0.6910487663952485
Ni 7.637163313866536 5.475810593001082 10.035739725293617 0.35597334644509016 1.3653863906834034 -1.2641108942706683
Ni 3.2884056795129757 6.700780994771839 9.27243634887513 -2.812219158868757 -2.5634849826190047 1.16201007374316
Ni 6.271363258074591 7.1969644038392735 13.069225623830533 1.7914390104440825 -0.3440141172006849 -0.1196491138239165
Ni 3.4587426751074823 1.0100490510000326 7.966848268486524 -0.8098005652158763 -0.3078826615854504 1.2316602299411306
Ni 4.491656682398674 6.955630564164943 11.461193759171733 0.27366410672221253 0.474863213505479 -0.41667914896557917
Ni 2.9861355765269324 4.7598649292855235 0.30437367896482986 -0.8701626112437015 0.05026429547219085 -0.42935134511660894
Ni 7.620210911929453 0.4367123506315913 12.155254657247644 1.2946080344182607 -0.3056311465471123 1.5482669016631398
Ni 2.728237346295007 8.98041251781738 9.915454349979612 -1.6772920573853176 -2.0733615005203454 -0.9688641762816734
Ni 7.2661043363172695 0.30112454557994056 3.3326038709829415 -0.27400914876645716 -0.35789781716131264 -1.1193325894792916
Ni 0.5088547521175173 1.7477233519668274 6.521273996908805 -0.39357547306858026 -1.5184675589135201 -2.73117104524649
P 0.5735574973201014 9.32548397130724 2.085630452485456 0.6826962806654951 0.222642621369023 0.9006728640174166
Ni 0.8589481814618706 2.9038679257096485 3.7258164506276423 -0.8817590578320491 -0.9659359468912848 -0.8383490662775304
P 6.650404184001861 7.532474148334647 2.362532925782652 0.03932939372724194 -0.6315842924810285 0.07943243239571482
Ni 4.821549500257674 2.287659663254437 9.593363332358143 0.12167180068090012 0.41793281886702216 -1.362276384299512
P 1.7388268053371763 7.224827316232865 6.006357028905122 -0.36866996807615215 1.0857997478291688 -0.46493387020690896
P 7.931285177883365 2.279779336904393 3.9572199704969755 1.1140718553009845 -0.10208745079106933 -0.19785358734980119
P 7.457698812487921 4.2305065472720065 8.209352609155639 -0.6120174260926943 -1.2047659766534478 0.24390384474064442
Ni 3.0445312891396275 3.4626874574655933 7.6053565429514505 0.3978597022662309 -0.4978619883934974 -0.07229119336524324
Ni 3.6265668351015057 1.2495352174387133 11.103974777994097 -0.773911307518435 1.7881377139849914 2.416197538252529
Ni 6.290163333247322 2.2832529625874134 2.347226800698534 -0.8737089338340629 -0.11233689643321944 0.5887931654574311
Ni 8.537026371458623 8.427754976302325 0.5784787749832533 0.6445627070185674 0.0013919952515201834 0.04218948888385637
Ni 8.111987620329863 4.863205293355388 3.2649300672174335 -0.2870451560148089 -0.645651826317688 0.027681782185984584
Ni 1.8194500269747325 5.369125940374694 6.992341983684059 -1.5890235147552116 -0.004254661511295899 0.8520386479494809
Ni 5.167036680225554 4.374551152723224 8.264546304050953 0.1677128021003628 0.1221615958331251 1.024122839644662
Ni 4.720186146549955 3.288710545596858 1.0257330252608414 0.06748348756395474 0.8316341161512 -0.4860169161294533
Ni 7.628645540250192 3.791453194650847 1.0484483200199137 0.7682291695319932 0.19654643850260342 -1.4718750558659617
Ni 5.835912868262948 7.417290198824271 6.6420868829315864 0.33456994106864957 1.8476073301055342 0.1106620798339578
Ni 1.5006524868958064 6.938447203073405 2.810885617798834 1.6705097443561616 -0.5560239414462101 0.05987687886129042
Ni 6.722934596867274 3.346976921083057 10.439984761828379 0.18088430648531428 -0.13079484602809086 -1.300743200781721
Ni 5.462719828126507 0.29789943194711477 12.238126497212985 -2.6259113673750263 -0.6004790864357916 -0.35938314345758754
Ni 6.380690083427958 3.4936914143597884 4.633757535605989 2.121135168360199 -0.15823982961292102 -1.8336413548437454
Ni 7.670292094981727 8.183908301027513 8.648685884271998 -0.2063351424582511 -1.3067878643139044 0.9483100062794055
Ni 8.035244512487171 1.1060264372258342 7.9041770400065365 0.34749410532948544 0.8199458811799943 1.1067061589645326
Ni 2.712125635680145 2.191515986437427 5.233506724878037 0.027896726410268084 0.657558605057603 -0.42841700622779766
Ni 4.328100647579001 4.596918626633614 10.540502805030789 0.28944502370555314 -0.19127850523544476 -0.40136308743379906
Ni 2.0369673586415433 2.132843122839384 9.43247349001751 -0.02473555507346708 0.8534118741479236 0.6156449955429526
Ni 6.716892705386701 0.7931737857826099 10.012672448783151 -1.0956362743036163 -0.6275558880479256 0.5695505151777353
Ni 4.278601481595957 7.504204747829213 0.32238294999270334 -0.8592151110932622 0.190031263091905 -0.5241556319827038
Ni 2.6034547343254326 0.2840926936937256 3.426117384949005 -1.6953118910015061 0.6194232316384621 0.4495882409887741
Ni 5.185254738329056 2.792758095683879 12.13616264970368 0.1799849345994965 -1.3231331384411469 0.16364403134762784
Ni 2.492880729538002 4.969889945981777 3.848400331446794 1.3521354392107683 -1.0000681126883033 0.5027619967982762
Ni 6.390039310000344 9.279569291401353 0.852929385896743 -0.8298184030986999 -0.35945950522147774 1.5878240951304718
P 1.8517843085985948 2.835005144217 12.243670440756551 -0.25988916442530724 0.04725661899411862 0.17713949473090138
Ni 6.117756943628889 2.655614549767812 7.020411835480043 0.2260968984662106 0.2561250693971847 0.5517975620696884
P 1.3391473693677034 6.500788843745162 0.6663652001101468 1.0498588109581855 0.4522089664410728 1.2117838027321777
Ni 4.433676696264 0.8586830403525549 6.073625268395405 1.1614488019230513 -0.34523924785703763 -0.8340370691657378
P 3.0827226949204984 8.755624591968289 12.336345111073628 1.2564654619102684 0.20999767891150287 0.23710276265841101
P 4.709746792768537 4.2798486610300195 3.0362989810381924 -0.30386634133720575 -2.79606208949292 -0.5342608387375057
P 1.9054499777280278 4.720361675507341 9.150555507722144 1.455425137840055 0.7793178232459869 -0.4168915220867014
Ni 1.1481811020971726 0.5947734052484442 13.065074825906645 0.30006547953387674 0.5125023640144916 -0.27832140298856584
Ni 0.43521296380086194 3.3212850247413543 7.84031590996279 -0.23350296112229466 2.703358908130228 3.418421263831255
Ni 3.374581159223658 7.701859592212795 4.685340876998845 -0.15363986894706444 -0.5019243313883291 0.39125865200994553
Ni 6.204320434719057 5.387602672731186 1.5550147288350795 -2.502820317749096 0.8590834706114044 1.3172872211833313
Ni 8.615386193382509 1.8596831116809953 10.433549315948612 1.244611647895476 1.4174789976135846 -1.1884698105965856
Ni 0.7067802806301211 6.627566942809237 9.922133688726484 0.03571056602773205 -1.711243474630098 1.6971782547862837
Ni 1.360432565042383 7.501285424116888 12.313629816314558 -0.36506708121624226 0.6548957135134592 -0.19007214363216943
Ni 6.351413701009096 5.289759136537379 6.35635530307784 -1.0375198297768584 -1.538318017980544 0.1799751644074836
Ni 5.645029746288022 8.726902511520121 4.640693700932617 0.40157623188586966 -2.0933659686667303 0.68197405778749
Ni 8.459802868574663 1.819921183649823 1.7169457350439996 1.9582529548792598 -1.4679302122856008 0.014749390395032664
Ni 4.0555318918560195 1.0025936894941878 1.096945123272618 0.31533937497381176 0.36748828906322517 -1.1854366801972165
Ni 7.596108014570409 4.625428224659682 12.089743555004462 0.04284717707251331 -0.2256793513128178 1.9524746576345855
Ni 7.178570816778385 1.0751333407257784 5.727358370322082 -0.1403657775459776 -0.03759287065210945 -0.865686834860535
Ni 0.8776761973784117 4.593204803429959 2.1039926291013384 0.20676323113460518 1.1581935282105473 0.22544358115292784
Ni 2.5028581650105077 8.52645768055071 1.3188525265473316 -1.7078195365502136 -0.254822034315045 -1.1511960138467914
Ni 5.748545639315272 0.37686251918244007 8.01152223581467 -0.32699212872139166 -0.48927167562132506 -0.6973981056520441
Ni 1.9761142406254344 9.398374680453601 6.18723038112592 0.7261093575438076 -1.9550262204118458 -0.34364207857324686
Ni 0.5540802499065046 5.788815677486248 4.886861977628023 -0.7229854672028452 0.7913811821684242 -0.21516148250062944
Ni 3.9672500646566973 6.084554255584272 2.138107143887749 -1.6652202138224486 0.69634241069402 -0.8803526644028259
Ni 4.575430186903013 3.8861464479778722 5.48762646334306 -3.9686941617263 -0.22205769539983047 1.282669888219778
Ni 8.764909149977427 2.4517884767771623 12.701946985721406 0.8277648630037807 1.0853274361784406 0.24566350774422854
Ni 0.4031373564299905 4.871612206577591 13.3936955207429 0.7263847226923813 -2.425835061342293 -3.048617696371292
Ni -0.1785203403551973 8.88062892472614 10.743619371498948 1.3326973850908144 -2.062817406455912 -0.6543236430600731
Ni 8.157440381926836 6.106458421792894 0.9228453411337116 0.7272488704648895 1.5052248349710011 0.43395696220942037
Ni 2.4616735285878852 5.672791036653652 11.550068689479698 -0.31700622115327337 -1.1514626372446168 -0.4355752145391337
P 1.2079902847351396 3.7209736990770055 5.5911589854294315 1.0211820118487833 0.4771710357030491 1.3528268088508377
Ni 8.340637183241462 6.930031051485023 12.018067691010538 0.8509117334338893 -0.9227822943219463 0.0564151455649351
P 4.056391059910597 8.020038161757778 7.983087468554646 1.1824768262379444 1.8941622950469377 -1.4255332353766288
Ni 0.7960044211796246 7.634271705252744 8.030749123504837 0.8704130366916105 1.6071261378931931 -1.4755198517074009
P 6.757245888853281 7.702783428830619 10.920072165503454 -1.260647618312416 0.6094365527393955 -1.408155920440446
P 0.7010718941685826 0.5354224455729182 9.055108403714973 -0.013470266572292932 -0.24972790762158925 -1.0398834449130285
P 6.775362324928822 1.9559746023568572 -0.017284983119498967 -1.009164932783249 1.2271242897439898 0.2863113631725779
Ni 0.6959732398748085 3.9156353128188353 10.575724999921968 -1.2027705434899738 -0.11742151004497842 1.750730991201759
