# total energy = -340865.5613368414 ev
CRYSTAL
PRIMVEC
9.27375581458783 0.00000000000000 0.00000000000000

0.00000000000000 9.27375581458783 0.00000000000000

0.00000000000000 0.00000000000000 13.57307904025559

PRIMCOORD
 96 1
Ni 1.385582604587631 4.717930608316175 4.356985825127642 -1.358941149278692 -2.9240181805206347 0.3319183623784155
Ni 1.2612215371317206 5.49747326076035 9.061251554033205 -2.6801156213315718 1.584169271986704 -0.01258992084986864
Ni -0.22219733810813755 2.789490150956983 0.9586791594920563 -0.18702744326857465 0.05465034035502846 -0.36611480575446625
Ni 3.7038175725588163 8.549883667007602 10.409696475493773 -0.9021738740429753 -0.13635151418026195 -0.026423227188535143
Ni 3.7863447268682977 8.62481561518387 1.624209328758773 -2.2504308041349437 1.1970863486210028 -0.8633090786569776
Ni 4.710697078665495 7.936257782486895 3.6789694708331364 0.032293569926383096 0.37008433192517554 0.22447633214365212
Ni 2.616664434841521 4.8331106573693 10.841483480479154 -0.26466653120929257 1.056870466389328 0.34797361606906524
Ni 2.2243289150958274 2.714140883762407 8.791188651900688 0.18280414921584648 -1.1866101316800273 1.3777533968891886
Ni -0.12161881781782603 5.237622618693638 0.19552879808703674 -1.2415798030476877 -0.07363228077416997 1.9917675416969378
Ni 0.44748747382973864 8.591300261135723 0.8961601336714732 0.18512019894353277 -0.011469948312812504 0.31138681808396695
Ni 0.16943615831120154 6.510881491064565 3.205174206089235 -0.18754809165873507 0.7866074149288647 -0.657222561874423
Ni 3.519548041585741 3.544299696249412 12.657276551538553 2.156259008646525 -0.8349238426460653 -0.349452771717753
Ni 1.4244303683141644 4.5491575235562856 1.8888572847848397 0.5493912666210409 -0.21470074081412702 0.5548335206825348
Ni 6.916673230711715 6.029378807740305 13.097750283733921 1.0686222076086176 1.087044161759231 0.6366573361285616
Ni 4.826887967118523 0.6199459492090895 11.913200451397016 0.7871638016529668 -1.4316866565725341 0.8094025584465093
Ni 1.4557663897111457 3.7126183669671433 13.144685690035272 -0.8768636774129608 -0.41544116279341997 -0.41899622713453
Ni 6.654411412094777 7.409100398559693 10.131041438462082 -0.322144056600471 0.11318947424150184 0.5513226793157989
Ni 6.617622422191898 0.6168049280646213 4.469628574549451 -0.5682683060312019 -1.4410634698017442 1.628439811769305
Ni 4.952185683926638 7.835489150199355 8.474948936704545 0.5478349778775146 1.4522436547882795 -1.3326493054616984
Ni 1.7620414541256797 0.17823138846595066 8.110634070599273 -0.3756821377279272 1.0748162522344715 0.9713943989026949
Ni 1.3376187387500496 7.0261313723360335 10.878117598657457 2.022174436123569 0.6996665899712466 -1.4499448314517738
Ni 5.2574591826972314 5.252803757204102 11.764058980633951 -0.2227727191889841 -0.8028704137549463 -2.521894046551095
Ni 3.44437497575445 1.328929229413272 3.060104841569264 1.956962003981978 -0.7298382284586205 0.9631509279469799
Ni 7.865332096886388 7.590773277863294 4.8148051904751 -0.49594368832486196 -0.3717437219054695 1.3765840591714358
P 3.8223083524905217 0.6184788410158362 8.430009242686305 0.21001053442730927 0.23525388237513034 0.7038724005224781
P 4.6412273727510875 2.2471423547633544 4.793984680963895 -0.21371497986209 -1.034013616395813 1.1479427970168163
P 1.6815637998838904 2.28730699183655 3.6468692919448524 -1.1198267555068908 1.621646700106872 -0.0662511578187504
P 3.8647728810423945 5.150959369224921 1.84109280470045 0.28388475600895624 1.2236167908113635 -0.2062328125524319
P 0.5513405573503769 7.374972976618026 8.006678048387451 -0.9445309988529474 0.3207695448504475 -0.07791779552340129
P 0.32123177803070785 3.585456625210585 8.85551142325596 -2.283550469507048 -0.5373585038262229 -0.5491480402619833
P 4.146787799859266 3.4763416125568756 10.540853351318937 0.19422781767175581 -0.7632348016411952 -0.7794787743038833
P 7.806972350614945 5.386011987848151 4.335390956993575 -0.09508093756624916 -0.718170305202389 0.49122854223737983
Ni 0.35700621903129853 8.94038298307274 6.351128988729312 -0.3276181923411648 -0.8491700681524343 -0.3308606105378624
Ni 8.847348663257847 1.2563806365193426 9.03637284891285 -0.3983813790976558 1.0364618208259893 -0.5671645314440619
Ni 9.176121859637187 1.009429788996342 3.9046351936712154 0.14774150118475846 0.26192599234967795 0.9765335199014731
Ni 1.602913075566696 1.3831621542814423 1.5573483303965898 -0.46898155791372137 0.0325301114172214 2.610673467379349
Ni 7.406281176747121 2.6754693213991594 4.684721288214787 1.8368593475604107 0.1720955045490907 0.4168462706710627
Ni 7.602606590471329 9.491040064608686 0.43168221154300424 -0.18230098432718284 0.6293813712924387 0.1456015720236202
Ni 5.882185753104943 4.058149240370557 5.2719058397354726 -1.3586822391903504 1.5605099806965512 1.1739492483829073
Ni 4.588756461515774 9.577471470178343 6.412384001612218 -1.003094558219453 -1.9867603182903328 -0.7710776947243817
Ni 7.199977201607361 9.32874933526652 11.601684787488125 0.09057045129040532 0.42184115278249285 -0.037449660206025824
Ni 8.927214249606118 3.3688216859287 3.260307612661355 1.1474270337226624 0.1523067519579377 -0.27162316503278383
Ni 7.700389073338974 3.35246278041101 7.3411488064963315 0.17648283498350897 0.06392019569272864 1.274334114660573
Ni 3.0294949552641395 2.226128023752535 6.751317525023974 1.5946832841441503 1.6368982269493033 0.11055100817739025
Ni 5.462010417960096 4.316061667441125 0.41088024954372365 0.9150209052089725 -1.6693064680766798 1.383482843173798
Ni 6.034303172156345 1.928366267311493 6.569967372427865 0.6490477393731144 0.3460303762997654 0.05078751496551254
Ni 5.711557917152572 2.741424273803815 11.73812121258269 -0.10760812349898242 -0.6239391172309449 0.47177557571909073
Ni 4.143718186635708 6.07489440200381 5.326185133383455 -0.5118570171210088 -0.00032832987369620873 2.2051403077282603
Ni 6.232168029370312 6.305245226354098 7.204033542465319 0.7823823211039236 0.8860093484679709 -2.2355749700690337
Ni 5.357328260656418 5.486724977599918 9.154335952130294 0.08071464154224808 -1.273094585826517 1.5376299907745843
Ni 7.302600585087384 8.82954305181002 7.6783045508900925 -0.12024021044069615 0.43883254513416675 0.3117426587614889
Ni 9.235826300523179 5.013670685957413 11.41058884475112 -0.3169172609838929 -0.08122706240229237 -1.6453242462294697
Ni 3.549307524469113 4.084041567017603 3.6219488549226657 -0.23604475370754185 -0.804027667287841 1.459308789165177
Ni 2.9511224436258168 1.4198584066246962 10.987326276246387 -0.6606027912005655 1.693132366851684 -0.7581206203430815
Ni 2.72554760359617 7.434937082670967 7.495230407060571 -0.013195672754667598 -1.1614912251252125 -0.6172827882566917
Ni 2.646433191480855 6.354646524365854 3.5496321059277975 1.4314745405617284 0.5390536321404588 -0.8701191596002756
P 2.8373983742587905 8.142125891096422 4.774873324676562 -0.042512419440913884 -0.3472429085506278 1.6081615211362434
P 8.018812758064264 7.248655146654047 1.3602123904012675 -0.6566592331717852 -1.1398404796246562 -1.6750400281263473
P 8.131655820614862 8.699524993217041 3.0244759985372833 -0.2077461638731648 0.4142800526057833 -0.7347757749695538
P 2.294308677588169 4.531277722060761 6.3206303874957355 0.5647965454325177 0.5255422279175852 -1.017856547019976
P 1.307729423283204 0.0587909759236946 11.160505322464017 -0.21316502089589093 -1.735772570119714 -1.703487227723447
P 5.448572745570565 7.601224800832929 12.274148944087935 0.0465343961161134 0.7503710583046496 -0.14722008146364968
P 5.202948045150189 4.442314581113367 7.262384942356395 -0.04919085990235399 -1.29870174487166 0.1125227871917804
P 8.313838756496395 1.301506733032427 6.154481775673209 -0.8978690760200344 0.6092977131686861 0.6531003121759333
Ni 8.668569195814518 5.314390770550463 6.330837083307964 -0.2741814126782633 0.6123120745149777 -0.9010629003669836
Ni 8.112885738546945 5.778839016659852 8.591202886698118 0.5695487154055223 0.3128335778328225 0.5023573051606897
Ni 7.701112426304042 3.5712399573202114 12.496693120669066 0.07830166122538128 0.20564582970071035 0.7234294967187992
Ni 7.8179061088946264 5.142538798811053 2.237033033388732 -1.5202493334042915 -0.4135020367891782 -1.7786685981522916
Ni 0.8067416513063251 2.7887204292121033 10.884075986863307 -0.4742019257723963 -0.6991068608130346 0.02680709289051512
Ni 1.4727559106342798 1.0307594277098837 13.001815133053988 -0.07103366680905832 0.8239334050728325 -1.2865291140648683
Ni 1.0983743824318108 6.65908538509983 5.37659541604392 0.751783365271144 2.119920579226807 1.8386403507202334
Ni 2.515988540113604 8.221231029455774 12.800404918935591 0.5442719431166045 -0.69268707332962 0.30957393324494425
Ni 5.58038063906429 7.47709557727608 1.2839969543998018 2.3756972641456375 -1.4506853091622243 -0.8018784821553223
Ni 3.4127885629464836 3.0481630260164696 1.4267339692952266 0.03232159495084111 0.6515023715611942 -0.20691724021396624
Ni 4.126255704158491 6.165480450244625 13.472312650177658 -2.167001848985326 1.2246447178552458 0.42731940228824467
Ni 2.2288823292733704 0.9055488842078164 5.281366925568323 -0.8491518133199891 -1.35323510003285 -1.2343128370726293
Ni 1.9712388411257116 6.926939278562102 1.4764793236531872 0.5334128889149137 -0.8559840057504742 -2.201256399292822
Ni 8.860053708926348 8.393861996696026 10.009127715204652 0.6544825372354406 -0.17458176130605418 -0.3170211335516088
Ni 3.0617490785013994 4.784414164810688 8.246663377807087 3.953786905597165 0.058780560473318116 -1.0220176203762013
Ni 5.204227823473 2.578614214127755 8.711785825974943 -0.6481221422350516 0.12248889726555678 0.5542087426143424
Ni 7.314044399944997 3.1327953229294176 10.0325281836246 1.083708926738411 -0.007550301543432158 -0.7781788245455372
Ni 5.644165532573742 5.669705456494218 3.6696039046866993 0.8197389073755107 0.10672726355592586 -2.2294166637771218
Ni 1.5457125487905548 8.612676268629077 3.1732502285642368 -0.19622556482807496 0.6402705074011167 -0.39224852672704064
Ni 5.3972888750984405 1.290183477002325 0.49389613079242417 1.3667940696642074 1.1407221108986614 0.2143461856881857
Ni 0.6086236205545837 3.301605502713157 6.364023219019446 -0.2584776287897613 -1.6230955167382564 0.14732395403136564
Ni 6.055790464721247 0.1764267155556658 2.371597087154486 0.4059386226196235 0.15402322042841216 -0.4142319729766672
Ni 5.5644576000768335 2.97926829297173 3.024910010316324 1.302282520244383 -0.24999838767415652 -1.729864175055079
Ni 9.075937473975278 7.146319249608859 12.484015896268454 -1.7235631725377156 2.269252821937453 0.7669898978082532
P 6.607180172978225 0.8726715645698826 9.593588330665414 0.9880186377229372 -0.05377359417702997 -0.3958670973162344
P 7.143917346814596 5.307073777096122 10.494718270157142 0.6051284122823449 -0.2966230295112311 1.3825798717435542
P 8.856279290249649 1.6856628000192757 12.521450339586316 -2.448368466558119 0.19465230680368412 -0.23191299092735546
P 7.004727543574792 2.5369565023446117 1.2485294747215672 -0.817705678995566 0.656548932846166 0.3988740024633582
P 5.703721593364335 7.78624550603896 5.592339147377817 0.8726105585635617 0.15696559088618772 0.8571836824855302
P 1.604498887836268 5.929166600810508 12.725019484092762 1.9092541563830538 0.310863084370013 0.5965455557093403
P 3.558618375455372 6.650219674399767 9.548987128739801 -1.7425623393480378 -1.1875861224400515 -0.00014783843177393894
P 3.4069924654699775 1.2530142631049883 0.29270663206593267 -0.9331924339116767 -1.1537840862889421 -0.6862904257746567
