# total energy = -340858.9584017556 ev
CRYSTAL
PRIMVEC
9.32233351950904 0.00000000000000 0.00000000000000

0.00000000000000 9.32233351950904 0.00000000000000

0.00000000000000 0.00000000000000 13.64417742171308

PRIMCOORD
 96 1
Ni 5.431825341069399 2.7099277325100157 6.644973210906175 0.28778254840146567 -0.3245336398785701 -1.2546590048291488
Ni 7.156475659515789 4.474114066786132 6.488911756862524 -1.0377651130184449 0.9251173702130261 0.23931931069375562
Ni 2.4479981317630606 2.8181973122898905 8.70769981354691 1.8224650265119517 2.419801967774336 -0.20212238992848416
Ni 6.928908179577222 2.87328298018375 8.448856837379351 0.7982923074659607 -0.02904575241304675 -0.3074057219490319
Ni 2.674959660032462 8.347608839095102 1.6543431446230854 1.0632450024571043 -1.516389336228253 1.6105428768842265
Ni 6.354587187541856 7.9559030354795715 5.494550661161433 -0.8300708854291382 -0.4195089051048904 -1.3232956321609404
Ni 6.934790571934817 1.2391991304442205 0.49465699220680376 -1.3566199573446829 0.7305812772722321 0.17339442586617235
Ni 6.260953671155679 8.536162353872763 13.043683002296676 -0.48058520359092066 -0.9832561833372874 0.12934140141101594
Ni 8.167864929353776 2.440875869067019 6.356876752617966 0.8197121679026333 -1.1739374213083653 -0.6712618135763085
Ni 8.708140759915395 9.060720730369557 7.713707882247342 -0.7052934492397208 0.07206390784578558 0.5107450150037526
Ni 5.57292817898469 5.916558709401942 9.005443022408238 -0.7802516479141659 -1.3548880622552408 -0.3082099630178821
Ni 5.899433582997978 0.7497067109253841 3.2005145939666995 -1.1317546172927284 -0.7485095796158786 0.5511851252966701
Ni 1.9537746280580446 2.7435347443152893 5.167049631944039 0.238362346097125 0.29463171011281514 1.5602384722027194
Ni 2.637344044877322 5.501127567355226 13.036042417865163 -1.5512717499277349 -0.8634936838639581 0.7238413874452373
Ni 4.731596914514747 0.7743764017271303 7.8850514373873555 2.648747391432935 0.07394955490427264 -0.29228480714719335
Ni 7.762706998682765 0.37054597132826017 5.098487598927933 -0.08898202375736287 0.7495256795852189 -0.741044381587085
Ni 4.1479256221074845 0.4530514183685413 13.635295058270021 0.6870998090498296 -1.9834482231979647 -2.6244283550715966
Ni 4.401782082154477 3.44176819152838 3.884579026688019 -0.7641125762604581 -4.699493725656925 1.499641684456269
Ni 0.8619289600548942 7.2737785803329205 4.466271187720452 -0.38250455996639926 0.3981939456771981 -0.22455037991469715
Ni 4.062868652423347 7.31688504984404 12.657293725403072 0.42370545968474127 0.6999764079021815 0.5173946591097863
Ni 6.522715469901942 4.339816532232243 10.667959056698365 0.29083650473644107 -0.22002138169609203 0.8356056992044383
Ni 0.886334828822219 6.5680686217556605 1.0648230202583664 2.1141016585521846 3.18750971758522 -2.480373815820122
Ni 9.047949133650215 3.8706421382972045 8.099838930506547 1.0445749368514268 0.7174493678759644 0.19301888496531922
Ni 6.7276017127469645 0.9115629273929352 9.667663363572798 -0.8778185851270625 -0.08502689576435678 0.102482629346959
P 8.876725836610698 1.2856057059689507 13.589273495113547 1.7064013160464482 0.4606041324833035 -0.6568651785350043
P 8.195328523467046 4.900927777879794 3.6814854685503904 0.05531291363969183 -0.254966016092077 -0.7973967922348848
P 6.084183585759951 4.284796120671986 0.6048190056611502 0.28944682347776607 -1.1878136650698252 0.7018589696368751
P 5.196333877764817 5.748132112373958 6.5141808737000755 1.0950323221710303 1.576265700868911 0.3850926324085497
P 5.16202769095666 3.4313178558186124 9.298684476484334 -1.5166819277680075 0.5321965000093092 0.165301878666025
P 5.33095769398672 8.740526546048965 1.3971362379622747 1.1785322397678992 2.7331525944528927 0.766085640826429
P 2.1640585019253282 4.246882190848949 11.206344318052185 0.734154339335471 -0.2514603169316637 0.3274826952045651
P 7.73014408821513 5.735602896322283 9.643281732872241 1.481432103426778 0.676671414627654 -0.9708202715667795
Ni 2.1307591271213235 8.362021166487878 7.402879846265379 -0.07587531117207579 -0.13106789718381945 0.9282569442832723
Ni -0.09325969081796866 8.17745761039334 13.071926875713164 2.974064189334433 0.8604518117138408 -0.8556132526746166
Ni 0.6982353116797647 3.173424825421639 3.2753803888088053 0.9048233958506804 2.9644487777318558 -2.722343676762847
Ni 2.828125597330838 6.584373382822907 5.613938055720496 0.2710942891125073 0.6492601124942367 1.2707286566975018
Ni 3.2966940395967104 0.7404785331206571 9.46025822625072 -1.2972529282402754 -0.5018487409553873 -0.6663936868507297
Ni 8.088876798694669 6.257056935806274 1.6789158831577653 0.0028631804804079724 -0.7103266407882541 -0.6468180787116474
Ni 3.4894612490584156 5.972045237630787 10.724705032165739 0.23973197275114194 1.315957189517998 0.8956687259346059
Ni 5.774001587480653 2.4484922154317648 12.00136409479779 0.34355697505860827 -1.1517331172971843 0.45810013511452724
Ni 0.4136347284059732 4.877407530782788 5.400106101771912 1.1448135073592156 -0.9079966513723393 0.5574053951747691
Ni 4.8587815087059685 1.919086225581644 1.3996747093394108 0.9589970536796064 3.512674049069254 0.24249925108363396
Ni 6.617057483624374 6.778669454957585 3.2856815671846245 -0.24821892717623056 0.6303565907215144 1.0444091006975238
Ni 0.8299645433897285 0.17728374596451302 2.8084769152831335 0.6495398485181846 -1.8941514964136603 -0.6715513197922692
Ni 2.8483737054143483 5.285930823801014 8.763777377711525 1.5044211081227834 -0.043588426113912025 -0.9031663198632316
Ni 0.9839909320583201 3.1682043187334408 12.897990779662457 -1.5936098485743135 0.7936586653486912 0.36722089433445143
Ni 0.9265280691546567 6.542916966318593 9.115197649894238 -0.9305490827515587 0.5054236027908392 -0.7608855846827284
Ni 7.23124077315748 6.9464341663161715 7.614187312336884 0.5482424977285785 -1.2428195889920597 -0.30432605458244366
Ni 1.4255805415462557 1.8073953494543256 10.980997417922778 -0.8147723073988548 0.9795111144725581 -0.936058185495246
Ni 0.6993959421845516 0.18341877355648267 5.808353453722333 0.8650443161805296 0.48285703034423294 -0.3507668625434862
Ni 7.491249973229848 8.042022751168092 9.734233213947356 0.5634945387916425 -0.06928480243875164 -1.0558741639143299
Ni 3.3883698659748136 0.9690099423298666 2.7037843148180114 -0.961001485704145 -0.33243258301067263 0.3868304410352628
Ni 3.7771298122448607 1.282482724289404 4.867860529176746 0.9630858790369994 -0.8924826148971404 1.347822156547395
Ni 3.6957085525757183 4.292999774039155 6.278176682060046 -0.7331012154806085 -0.4237301422750896 -0.05565821279425253
Ni 8.136215607556577 7.12859256040079 11.625193959746335 -1.4156949091299684 -2.8605939506277185 -0.17694923309696622
Ni 4.873781143101165 6.85387271826775 1.7848353026946135 -0.25589932653962383 -2.188047613912032 -1.0137579514705701
P 9.526119579289023 7.118412572358804 7.066660570878694 0.09098928399537878 0.021593924120691842 -1.4461393416627548
P 6.685324930905934 2.6027022540677804 4.615238346068178 -0.7742980014338924 -0.715361117888368 0.21252250221588562
P 5.688282732127119 6.556741986708946 11.26936702057878 0.1561495227427956 -0.0012259019873011145 0.03572882086017718
P 2.0552948384767493 3.055842234603354 1.1904368012764412 0.4799303436157412 1.3796323590794561 1.2539002722862533
P 0.08894811163351955 5.421803832694734 13.157953368067966 -0.58607165276121 -0.4483710807522213 -0.9092986580132146
P 2.834110535355522 6.323814165081605 2.3862302153083084 -0.3428913164501514 -0.39992892609043384 0.11036640297040992
P 9.14218860170556 0.20381231004059272 10.214126426793268 0.9556260803248445 1.1575348115806259 -2.2043041849802103
P 6.541341491978763 8.993488062092267 7.39435270793021 0.38154476715629126 0.8839020723169808 0.44820987258400874
Ni 1.9983074145750466 1.0047424461439065 0.6650981454764289 -2.826047323001101 0.2552814904499668 0.5496303792150405
Ni 8.412939751364549 3.795429552653669 1.4999177600861815 -0.3724420335240747 0.05317427003013423 0.1263136703282857
Ni 0.9450888348978743 1.4103105594832768 8.392451127080047 -2.0430080850394687 -1.8346533410480275 -0.06351910359956803
Ni 4.217395650394003 7.731374636220206 3.931023823779573 -0.17658593622027652 0.8817217768362106 0.25055323173636207
Ni 6.703811117982177 6.132799554293794 13.329761175409894 -0.01750278477045373 0.46903272286663095 -0.10618681767142357
Ni 0.8700981207885866 5.2981990145182785 2.712121277552396 -0.6318570865264408 -0.26785778445308067 2.2476987499157612
Ni 8.3943230516211 8.723830246980103 1.1612672201561358 -1.8449588367390934 1.0819618621403173 3.6405216395435627
Ni 7.847167339031108 3.87684148998944 12.811077733403996 -0.253500487290144 -0.22751357630807914 -0.4202588958970375
Ni 2.813517500937256 4.919302096955576 4.039453747693442 -2.275551767572287 0.1458345139700327 -0.33016821245652817
Ni 4.609017553009188 7.991477059626291 6.926548697000824 -1.0231895291971154 -1.6589978870618205 0.039121134371177785
Ni 8.613369918857861 2.450207524772173 10.229176401788672 -0.915881967657687 -0.06274674420991774 -0.12511450781386194
Ni 2.6363092658730545 0.07813700162226411 11.438132018308158 0.5340924314804414 -2.378738364964806 2.110844585067468
Ni 7.826052253944022 0.2371694833115026 11.767761336234331 -0.3196148624207141 1.7554289108980607 0.799390682736462
Ni 3.191911012497882 2.4500117557713654 13.037325170937121 1.4510884581379138 1.6810800636728402 -0.2584439473383484
Ni 5.128364745151156 8.151420333285953 9.509418619053477 -1.4850463031405974 0.61263269107919 0.5235287970319823
Ni 3.701637556600171 2.7686118210853827 10.85050432761791 0.5916108374118844 0.1272222981854841 -1.1884744385822759
Ni 1.1177011596097874 7.064175236801777 11.516490891464672 2.0932898640131565 -0.3343351993500242 -0.34676442625231246
Ni 4.822387119222531 4.815208922526259 12.593357434206045 -0.27525690513062917 -0.8813813627776563 -0.4608936386992643
Ni 7.983208149925521 6.379860033312758 5.305865701483231 0.33215593231051826 0.6049129538374292 0.08113038892342803
Ni 7.9670898355257105 1.479622108102475 2.751402793681073 0.5691759054471359 0.7390535764093014 -0.15013314134538658
Ni 0.24654215728349207 4.692592271687213 10.495414785020067 -1.100634755959472 0.021510877488582308 0.6801154073121964
Ni 5.0394483294511 5.463931457201816 4.259302335600174 0.11319255956529538 2.190311984466176 2.1160510689690715
Ni 6.18483681917508 4.057060838732727 2.898350734620471 3.3052605859451587 -0.17028853324733897 -1.8373563418014873
Ni 3.9879077697808487 4.54216710040014 1.8578590044624552 -0.3370109464099745 -0.750221677210979 -1.609540403761641
P 0.2675136784366526 1.578643933177542 4.14525104466312 -1.5351190514272723 -2.61572671353254 4.574901408895121
P 8.432964123447137 7.92162481567153 3.1923556877997163 0.38860501643718237 0.36583789794399574 0.7547961839555388
P 4.777658563704722 0.479083102075905 11.066969840744024 1.3582536362933642 1.0207942894920614 0.9465238609132602
P 2.527769338425398 7.917243318986792 9.690981316035636 0.6960567611328012 -0.5276824141890395 -0.15934848929606749
P 2.2841860897541095 8.46353205457321 13.328519440604772 -1.7107724485309501 -1.8126812076523102 -2.0089589658745597
P 2.4299594166886624 8.861894004216193 4.538367317317802 0.3864404046856958 -0.22584004526039816 -0.29762164597907453
P 3.241226156034608 1.7469959515385511 6.911621776805927 -1.6964238931187623 1.1575543519646516 -0.4434101372025202
P 1.7759511189913055 4.463719665076596 7.26107596888053 -2.2231195179145002 -0.7888501882164544 -1.652548789002367
