# total energy = -340856.5736073663 ev
CRYSTAL
PRIMVEC
9.40855116089068 0.00000000000000 0.00000000000000
0.00000000000000 9.40855116089068 0.00000000000000
0.00000000000000 0.00000000000000 13.77036565488831
PRIMCOORD
 96 1
Ni 6.587500585925263 1.4929771230850881 4.024664879776674 -0.354697307946144 0.1286052945759398 -3.316899455735668
Ni 8.536764214422131 2.8452399550812726 6.170197471373189 0.6149865360233473 -0.5508727362625738 -0.8495035402324531
Ni 0.6266894796733935 9.045578660937773 10.920037721758755 -1.8260676562615457 0.2560019135557591 0.5230577709328347
Ni 9.076259946257439 8.473745738779346 8.324640901769536 -0.8461176544793557 -0.46211054182550093 -0.05133207461507288
Ni 3.0565654225958405 3.277054818936337 10.953692109243713 -1.3215166858836465 1.0773392757666413 -1.2081850296373258
Ni 2.642184604032815 0.9467825028267202 3.7073680780269065 3.302478909434964 -1.309846191524254 -1.9842514358255503
Ni 3.6849155115482652 5.822481882881007 6.456442290887746 0.5582566874314708 -1.0328717894818857 -1.168629893052523
Ni 2.4917418710486228 5.765720093756952 9.669661031085843 0.14409464846079054 -0.43731713693090485 0.8342270736893568
Ni 7.322204937144937 1.5955491477876313 7.739688695879205 -0.2919217673808198 -0.4406086631979832 1.1362471058464432
Ni 9.168868315285794 5.496644939246952 9.081955883127272 0.1861165014185311 1.0986118119921724 -0.960591651860236
Ni 8.908016234486123 3.9130070172227973 3.7806672775178347 -1.3619843069803899 0.020722834369648183 -0.4015718610104955
Ni 2.533638149346222 0.8121564851908535 10.555893862093109 0.5280536814855293 0.7528228622792519 -1.7642534511682264
Ni 8.682615574442202 0.6297500813644353 4.875136748695159 -0.7926860170227767 0.0983747778261725 1.7889290995380351
Ni 5.899227434660372 4.845657876213229 7.005178160813345 -0.1361532821265268 -0.7819925418646726 0.3955169130656672
Ni 1.4195998326195651 5.640191204233807 3.384810955325827 -1.0071782413705235 0.012993069825558269 -2.837420597835049
Ni 8.673018852263098 6.961782159461483 3.517625826864167 0.09438082617543099 0.18875728147548781 -1.0662110270639638
Ni 4.55710702081034 1.8926241505378418 10.083294810687082 1.8667805605998753 -0.8707123130995843 -0.8846026979284315
Ni 6.069653930299877 7.216245834026239 10.73924676616582 -0.4393562788481208 0.12118277685962356 0.7490765078629422
Ni 8.522237411437292 7.122960049314653 10.75011176104075 -1.0534275021460502 0.18272213102500143 0.955729181561612
Ni 2.0196584082459443 1.934473386079661 0.6633075607724851 -0.18958414825215736 0.005065073227733212 1.3137157017819892
Ni 2.143738380891068 3.4211844140948635 7.507355815343556 0.7856108553435502 0.16427112340866545 -0.9772577996620073
Ni 1.5318062137058364 5.6884758887663205 7.450249673247192 -0.7432542447542103 0.6254522114413615 0.06346665309507779
Ni 5.751183882220957 3.2590468520237823 11.919298300368212 -2.1007746024259752 0.010292640175259693 0.03188579296500314
Ni 8.668323985236263 1.1525381080569452 9.622442335399304 -0.11599377645951638 -2.4024819884386495 2.840174249320786
P 3.7035350342859585 8.128480137008184 5.8673597310399375 -0.3368474242489166 0.06363557457277429 0.05238339869772268
P 0.6756205316703221 3.20354580875463 2.083552820001351 -1.3257438365911167 0.18481038101259786 -1.4621123200522432
P 6.559444286378117 3.8334012658920127 3.7147763712071287 1.1169548332757346 -0.3101529456768659 -0.38829751249909256
P 9.10531355222712 4.702215105289088 6.890663862128511 -0.8989116583519359 1.4031163011340093 1.132077804960102
P 7.032280433273274 3.232063127308419 0.10029703703302596 0.5625121202737151 -0.4431478846800691 0.19458160146674874
P 8.970667776633825 8.408572704921843 12.984036749892622 -0.6214024668520202 0.5611077837270207 -1.0156114597395414
P 1.4300715500561758 1.3763487229555045 5.259811948693395 -1.3278613971547517 0.40710796033737634 1.508155892574867
P 6.762706625552005 1.587787093083944 10.075693642208163 -2.4278546628754833 0.6603513373113917 0.7361847395019386
Ni 5.522772485807121 -0.017448158118773253 0.026687355353950032 -0.5875711201248719 1.285792750119476 0.24071516260001768
Ni 7.771284492371232 0.6898519061488643 0.24360338396540385 -1.3435662094845184 -0.41398257597002247 0.04248979373309457
Ni 5.048449787829318 5.060285745183546 4.579940633610799 1.3202288203101586 0.2702725645421603 -0.20117416708260194
Ni 7.637523120586601 0.01138058347827885 2.4372720049861663 0.06298739946581411 -1.2270571839514803 0.5385720645183499
Ni 4.876969534460345 3.567779049656258 1.905198679157815 0.8354475763600192 0.14397046417810044 -0.10918729506064422
Ni 7.18447315677248 6.6270729520873335 8.084168683628844 1.9560603181033152 1.3699963786515887 -1.348988151831038
Ni 0.95777169057691 9.384098331530096 0.8617094424191927 -0.5540012545892264 -1.1628893910243197 1.766025198356668
Ni 7.241827684619361 4.9646760483364325 11.49767666083554 0.4235627634592899 0.9427754496144215 -0.724366663821088
Ni 4.62156500477999 8.627340336400794 3.8292906698919627 -0.47077747347187954 0.2682128537996542 -0.6290607547282263
Ni 3.001958191686506 7.474237715274491 7.9067920912504155 -0.3517549374883684 1.7457155402650386 0.935398183313744
Ni 5.823422737996606 7.034086875095223 5.756233451626374 -0.7773810112345902 0.9514632071964065 0.2804417917656783
Ni 1.035495731676498 2.2966085200735042 9.138427888875722 4.555795284193289 3.7875108359433285 3.636662927919104
Ni 4.725134335905067 0.8509027805614289 5.533373100394568 -1.2080814141799259 -0.6317614414888411 0.5812320652807216
Ni 1.8519698009928327 6.767824877380862 5.247266586582006 0.06937581949066117 2.220185117876525 0.46626698719603565
Ni 7.5235008891272255 5.606263968765328 5.270648717914858 1.176828112592599 -1.4522660233857827 0.0718142537288247
Ni 8.419345495995445 3.407363252446722 9.159565139902757 -1.1211465027595788 -0.49362892414875625 0.13161194261274753
Ni 6.26798618866803 7.0998244220220865 2.6945573040426027 -0.4564978236244138 -1.8741593695624499 -2.289347792915115
Ni 6.751924425927248 7.37203262406703 13.220542322865954 0.9066787038918643 0.7610226244812248 -0.40664490465802866
Ni 4.945275615852793 2.5506864440408656 7.457327726281839 -0.4827927527652008 0.5066546469844629 0.1299929189520858
Ni 0.18393152996880338 6.369071662287927 13.220280765143817 -0.15928806837177728 1.5163929357726786 -0.6705313631681872
Ni 2.8960649484259005 3.4800819443313267 13.18735554037345 0.3631045581732327 2.7470756322918883 0.7657624531590553
Ni 4.124511247209329 7.603210134520725 13.332564296349567 -0.5033119557644752 -2.195876365927831 0.6245317565096211
Ni 2.4000837656870218 7.654891306020549 11.218028176536444 1.1406115534627261 -1.0737052785584797 0.6098055060430402
Ni 3.045585643396806 1.3278664588487163 8.162012213328113 0.007997930603812032 -1.3339847364436703 -0.15487348424384942
P 8.10775309881155 6.864384837894731 1.1179673276893958 -0.5336280902495132 -0.8899624195784479 1.410077562943191
P 0.34809098968330526 1.1104724758385385 7.858705927147294 -0.9807231325027885 -2.8460978138940725 -4.630517455597529
P 4.113522059459139 1.9515216807743048 12.575827940887924 0.26193756231390375 -1.1742696078368033 -0.69601433793064
P 6.733493074212674 8.281858337953043 4.216954025737339 2.0794298182016124 1.693474066461819 1.8747761772108424
P 4.261904319740171 8.55877081557598 9.406109636959522 0.2682347081765251 0.0946461640216757 -0.12341166619014231
P 6.423979966834252 2.03810857706283 5.913738243108248 -0.004193726366373422 1.3425177136153459 2.275986026896229
P 4.277654234375288 8.81728016713781 11.6621230813603 1.562254988412116 0.2963553776721412 -0.7511069080294096
P 3.09693751560617 4.681760915075979 4.2075078403767305 -0.4104555366533706 1.893857105101693 1.2045623452830738
Ni 4.320227928356118 5.611081146957192 11.509133453578183 0.3050035402654424 -0.5208080556667095 0.16864456988601279
Ni 1.3987598918090596 7.250088392534315 1.2959827606913161 -0.8402305995709592 0.445825174401916 0.8119746900490595
Ni 0.3374169883968409 4.926806629933595 11.310344880478963 0.8914896548562518 0.45734037413036727 -0.5753537521230736
Ni 5.06580856471211 6.478624831948211 8.660444323643125 -1.6378040265930245 -0.6039423623940438 0.9430107055536792
Ni 1.0950236348404119 4.459756741999368 5.314590415233767 0.810019880315534 -1.2171365824036586 0.9747440321012182
Ni 7.795342157677085 2.3577641025874034 11.997293307741092 1.579408617373267 0.0256755503892332 -0.5073928107020681
Ni 3.3652882116771594 9.135204519249681 1.3405096698921282 -0.0909085513561144 0.2586221247874255 0.39909408889396425
Ni 7.224817024129341 8.857200649692652 6.807270228102326 0.9593595792253479 0.7930434003621954 -1.4801339534406446
Ni 6.8583821822572135 8.851216811157446 9.17033322670078 -0.11585725088165208 0.5370556278738234 0.909647299601885
Ni 9.118137407452727 4.221315830053253 13.429205170403378 -1.1113601127967763 -2.6210003032266536 1.1343228922405368
Ni 1.688703212783034 5.05620243398185 0.8368219429013826 0.7543197585397525 -1.2283391359876974 0.198968931901167
Ni 2.5360749640956217 0.2202654728229843 12.64383953462919 0.10520028538843818 0.15141457916097148 2.890091702976519
Ni 3.3593137816931096 6.856980308134971 2.3416924155027505 1.3603182321318765 -0.6162882855539064 0.26297603088074706
Ni 7.265744221657873 9.33774239998456 11.57494250549383 0.4392007271068629 -0.37500722314808965 0.4297478092240792
Ni 7.393437077946895 4.756794110544955 1.8729489883604469 0.4693931915298432 0.2811305903025868 0.07796561804220122
Ni 3.2398816333190426 2.7641852868724657 5.023897232732661 -0.1819230321624738 0.009955568550815112 1.5343834588128284
Ni 0.2141621456880972 1.04282499302701 12.963559979156738 1.459650488775312 3.068664844830154 -3.781377469352081
Ni 8.804804428304974 7.818487193520807 5.794721011840159 0.8816045345320559 -1.7493104567051485 -0.6187987106805859
Ni 1.324488788983718 8.781320684619637 6.73384683573614 1.2095775391094783 1.4234588693461034 -0.8151399751509187
Ni 8.159725935397208 2.3650369126309796 1.9028851164285585 -0.643810402233575 -0.0878078009436036 0.013083572656835532
Ni 0.5394806781534576 0.7423459764685643 3.1414747742132536 -0.7227664092135037 0.4329354629234415 -2.546911908751672
Ni 6.091509994635229 5.184525663198322 13.709693838320703 -1.1201759113161933 -0.21032832277804422 -0.3097395122885311
Ni 2.5845195939977863 3.477767440746954 2.635799020363248 1.3122478589872109 -1.1521817747988286 -0.46021383902342033
Ni 5.266380058255388 8.726468831380247 7.494976043732511 -3.502651888946561 0.28880430479776065 0.17485044158640856
P 1.2183038806372768 8.099595884959312 3.3805554676379757 0.5506246248075097 -0.8582247221555348 -0.03136154503041696
P 0.9030045142979244 7.349677906520411 9.571285220198869 1.3864534957663477 -0.9099527466574457 -0.4517037446698801
P 6.884048709810738 4.889605218662832 9.22555295429037 -0.6329451773842971 0.5060465810868189 0.8600262941406478
P 2.4246212671018292 5.772945861044749 12.498589381027985 -1.211274981416559 -0.2385112129701634 -0.1540784991463798
P 4.731560376344604 1.1544856781462338 2.3107364004893305 -0.12588403899003484 0.08319112810719866 0.2335898644091461
P 3.7334730440643007 4.630813610566323 8.334596089747683 0.6590465024570392 -0.7286424083783064 -0.5048739009349562
P 4.00449576866359 5.477037518637881 0.5559719866196672 -0.044821012969432486 -0.15279757555142717 0.9819184383624701
P 0.8233451342255503 2.8851228034314906 11.342030058206973 -0.43676049309648657 -1.542364677246092 0.4678610711560329
