# total energy = -381174.9383038012 ev
CRYSTAL
PRIMVEC
9.17610690199947 0.00000000000000 0.00000000000000
0.00000000000000 9.17610690199947 0.00000000000000
0.00000000000000 0.00000000000000 13.43015998618329
PRIMCOORD
 96 1
Ni 0.4877752316768107 6.550941999696879 12.627493037229838 1.3426403552361392 1.5732788503264454 0.36714067591581934
Ni 3.8094791284906684 7.879825799818325 11.954104432949267 -0.03221592261091226 1.3498304452266752 1.1170646193807212
Ni 6.391497966338846 1.8653465373573257 7.718299707806463 -1.3212708884214277 -1.7860191249800916 -1.2182023046640116
Ni 7.491291081790826 6.177520329720754 12.340558009933625 -2.6356615047832546 -0.611368736765102 -0.23231459724114828
Ni 2.88554610162678 3.029198055023419 8.143565464112557 0.7159175046124703 0.5719665808183956 -1.9142642080031356
Ni 6.108745408564076 6.812736329329973 5.397822856651846 -0.02067629740242891 -0.6676275592578308 -0.12086473139857248
Ni 6.782271654448029 2.9049076871692208 11.886617837200246 0.12277428971645951 -0.4762446672340378 0.9092984009028985
Ni 6.864159232353593 5.85275037848682 9.056937709554266 0.06506433659950084 -0.38821369453603466 -1.5853874606645213
Ni 1.4014759817452602 4.781999641348501 3.828133236191724 0.6115101474389727 -0.5658933780411222 -0.7153595752264712
Ni 4.9128142212030195 4.449429999256238 4.65219443325212 0.426998014393084 0.1355632139510117 -0.15676324506739456
Ni 0.3436736490424564 0.2621265047025912 10.027696409888806 0.8456913655752144 -0.18300006727673646 -1.3044795278957018
Ni 8.167111354397818 3.2977643515429222 6.941875352065985 2.212329883498164 0.34470471550980636 1.3168416490054804
Ni 8.993640006601513 5.455709409370297 5.2872388396624554 -1.535648184457865 0.3822217386186579 1.3275011856018557
Ni 5.581357841044535 6.21587645652995 3.0398762906138166 -0.25069618507212954 0.0817076015831367 2.082107107923459
Ni 8.697811496505427 0.9599033658811238 1.7768769379780212 -0.4012178201051864 -0.20928856865962017 -2.642428134083126
Ni 1.4435117274182083 4.5891637550099285 6.727851834913433 -0.6000666814887213 -1.0031791475134593 0.2844755955154198
Ni 7.579620286734682 8.459498824409348 8.75584670215553 -3.35747609160645 0.8765291768916775 1.5599394529050619
Ni 2.2601393602852715 3.266822519102586 12.275032348227457 0.5568729197100667 -0.7764901239892047 -0.08318161502550189
Ni 5.065348646071262 2.5209426703740143 3.113446645232334 -1.159228397232965 0.9669952413937346 -0.30870155794231996
Ni 3.9020018142842363 7.953546642589873 3.3230243385956384 -0.9430515860939437 -2.229985134686082 -0.6300534576587988
Ni -0.04316624204206123 5.765623243545838 1.6100617379535231 -0.40017498066296886 -1.0622558990709576 -0.32883175303329176
Ni 2.5377257698797604 2.1328392293704477 2.884449556853168 -1.1841526712784705 1.1060078473459274 -0.05542398529625939
Ni 4.706572042695012 0.575885127665943 1.9441637898967756 -1.8883066075971093 0.5190823312248544 -0.8262579394409513
Ni 5.7764510496785775 4.613186802853582 10.519831209950079 -0.06558164255555156 0.9431171492245564 1.8340756141676866
P 0.6157231957382207 4.496604364788792 12.77557429742332 -1.091978880056687 -1.1736913667358304 0.7784608745623304
Ni 7.721464547073566 4.196701663232589 0.4621738934477067 1.6029786913837232 -0.4004917405724393 -0.8272318733184463
P 2.5754028647789364 8.595947533895648 7.821067516945119 1.0017938371301585 1.2005303413055453 -0.6209895476843176
Ni 4.545659832234235 3.4214307441284544 11.94530821688245 -1.7820156602476536 -1.0069882368469043 -1.2704208956490959
P 1.9659166688953111 0.1102610180267871 2.1355562746212136 -0.4802766712115665 -1.1834777566986328 1.2642754448729903
P 0.7079091184088468 2.9658278608262174 4.912429742324239 -0.9180607204765608 -0.34476616487536105 0.10711858545707358
P 1.3886110798824631 7.735036009167059 10.987160240249796 0.986178756300721 -0.25260831449317783 -0.5395989631209674
Ni 8.320187169572696 7.776750591098782 4.846434263945192 -0.48147429106409334 0.3460488882425266 0.328654346915163
Ni 2.44591882042378 5.778754252508508 8.780477208275444 0.1593124938518095 -0.6217955885253807 -1.2183033490182502
Ni 8.709199045158586 6.900909540456662 9.887538717996698 2.1326912486289142 -0.5616065777403103 1.4440660040734936
Ni 0.9002577534714469 2.760897865603788 9.495350991815434 -0.5966455716223144 -0.07003916410627292 0.22273800929630672
Ni 1.6911106196891443 7.016491782870208 6.875892720236588 -0.6049126967271131 -1.113834542479198 -1.1381687483491882
Ni 7.601844817627474 8.3276656966898 11.398471890804993 0.5547702715447671 0.16988461294070098 0.1328113622374874
Ni 3.875813205214035 7.980386755249418 5.767018011793445 -0.08949752994120069 -0.786072111250685 0.5671884427034618
Ni 8.198823979817096 8.032488690183056 0.3297314722305207 0.3263493529310702 1.0575325254533594 0.5197515893777371
Ni 4.3218729373484335 1.2560530397184362 13.077228717785234 -1.0245573560789192 0.5552071019718696 0.3000477389220639
Ni 1.661425913893033 1.5990742675608605 0.6549253596028722 0.35260057331811534 0.5436067987287799 -0.5011329458352852
Ni 5.007915393033282 7.057086879761088 7.733891748637608 -0.23339266079667548 -0.8362189073084051 0.29246195615500603
Ni 2.894474453632844 0.8390099927984002 11.013227724709022 0.06032733613514771 0.7866421248215419 -0.2560029419970236
Ni 9.119866533009954 3.265620449099714 2.6312642507062898 -0.7897374759174142 -0.7452033980607811 0.4947342413977932
Ni 3.973841555142894 4.672244226811472 2.178855570213211 -0.36351182091398043 0.6380092221707658 1.1591756896181586
Ni 1.4812714072794135 7.616012726668957 4.35972529588925 0.7632808243877822 -2.561915838359672 -1.7400503715594613
Ni 8.99273157201919 8.456122017073037 7.227776232115453 1.8538558821184072 0.10640484721950062 -1.9493196569453717
Ni 3.7633600152507127 5.9722691707571 10.697310881404636 0.8886082195433986 -2.3362817384624925 0.3801969948791452
Ni 6.230870215191726 8.774101649206777 6.6622857983369395 0.16442796070150392 0.7370805118433307 -0.5640732941132479
Ni 5.665392627962862 0.347322069142776 11.35559010807659 -1.3186645611468322 0.49756733997121405 -0.8036695126174739
Ni 0.0669452054423838 0.9122711126146522 3.8825925129859566 2.5449002776382814 -0.17039137737379043 1.162329918976424
Ni 4.923155693670474 9.24290895032682 8.748245215206072 0.7318501166823267 0.8253531682384946 -0.9731766876140981
Ni 5.445349584689058 1.799361152695861 5.290543155754319 0.8924108811189405 0.2802916393410592 0.9148468415249535
Ni 7.1422962083616115 1.5183245269099233 3.43278892923956 -0.8597990086211903 -0.4875096986248959 -0.17298870578732142
Ni 4.761601155727247 4.551853704386438 8.438317616870194 -0.3472318528070343 0.16053531051531705 1.0177812136973503
Ni 2.9245170275977497 3.0170213611775334 5.235734269287495 -0.3956626946149121 0.20319145462294683 -0.32875513415908547
P 8.574631437585179 1.561479757623714 8.208392824084232 -0.47321050839340445 -1.20723834945334 0.9201780239298798
Ni 3.4165857596893985 1.1291474813999745 6.626212686922512 1.1477533067138297 -0.09258593905853732 1.901814155165241
P 7.514506632227971 0.9110901476576323 12.844148261839061 0.32560990366188436 -0.015867048939243643 0.13142399497165755
Ni 6.447040941357042 2.2506604418656786 0.9752100297879225 0.33396238939163775 -1.30048094825927 -0.059103748140691754
P 3.0007062431232874 3.1568835824277133 10.135526677199863 0.5993681127598 0.10459736169711664 2.459038287567139
P 3.7217647227085875 2.84456560824643 1.1860980712154263 0.4739391590293128 -1.295560371029201 -1.2986739769575182
P 5.0406924468520495 6.251369637988794 12.65161335180655 1.4172231728490365 -0.09600062116704113 -0.3773955208746081
Ni 1.1266240520046327 2.083040497266739 7.013484772641649 -0.2294177353093275 -0.22270149963141644 -0.8883696211700313
Ni 7.022795768305116 3.3691819914845413 9.110913405515284 1.2643217247298937 1.1616295504752896 0.8420784514129755
Ni 8.169221858983013 1.100196864155235 5.916227015523972 -0.5723990403701238 0.17299641909680527 0.035045164529591256
Ni 3.5929780624772354 5.369830224966647 6.54608783915093 0.3938446675695669 0.7124696552731858 -0.9970421813777861
Ni 6.427220550469993 4.688550168758825 6.736138777047736 -0.42681058097262625 1.213938130071019 -0.1864628290143563
Ni 3.3778809408183013 7.926945108709525 9.661804653228383 -2.051111173762577 0.187525980171548 0.010740783456271824
Ni 8.290465759349017 4.468837465333139 10.929960977937567 0.27080401156559814 0.5126556017629041 -0.36731602515141903
Ni 2.122901505606247 8.182628151152446 0.2497552773905919 0.2719342685152994 -0.2713871377625778 0.9266461481527266
Ni 0.8165432126836555 0.27971159595071116 12.278161400677682 -1.029595175613143 -0.3628929563830589 0.5149922203158808
Ni 9.261628208386812 2.442945761790723 11.75673554980597 -0.6987610474378417 -0.050354284082835855 0.9193935803553714
Ni 7.533978331053117 1.336674314872883 10.365961661529028 -0.16975554356200442 0.20856788844351176 -1.308376806067579
Ni -0.16383755333799474 4.834477796664718 8.63297404281617 0.9764905824786796 0.5286964572758508 -0.446412928584586
Ni 5.370243149776795 4.305814750287167 0.2886179253002339 0.5516731206766822 1.0827550474655738 1.2351420178421437
Ni 6.705935621212217 6.327494620766086 1.2262472093113481 0.9942633330810683 -0.4285512178128168 -1.7835729774324445
Ni 6.453445863967764 8.476465446052936 2.1868195133849095 1.9485876638753536 -0.5277603186148265 2.1180979241957716
Ni 1.6485977164578045 0.016917070666371343 5.668198681450481 -1.0828661191221416 2.038832356395224 1.9922681354824396
Ni 5.657996685807787 7.3731028250199095 10.055711064230547 0.08441163077786107 0.6044609539016751 1.6453738685204824
Ni 1.5247202734137533 5.245705027036508 10.840556333265953 -0.4337116789678337 -0.3277968840108742 -0.1501143722923092
Ni 6.76513068677349 4.081853509370415 2.64924666738284 -0.1376036414198082 0.5369314435911333 0.13587894541921758
Ni -0.012042722685260226 7.807343731477216 2.5565514707796995 -0.06957687975787372 1.2117871451662874 -0.2725562183700145
Ni 5.815275157939272 8.497598020225563 13.45755724341908 0.22583644571597236 -0.0897906357015873 -1.0630493415065305
Ni 3.4726150683728783 0.6993138590829681 4.3223757880061235 -0.6605169163549786 1.3667619308746912 0.10471074734652934
Ni 7.466139372799438 3.362244854674074 4.918084059391182 -0.21637787140623377 0.32308867990192747 -2.0277760985810627
Ni 5.034746329585934 2.126177375766745 9.890547563446635 -0.5474349142256185 0.8082915847705175 0.1631166980892481
Ni 2.1601840279090605 6.416778140826725 2.1039418335456825 0.40707479310659567 0.6202675819166286 0.2743642181130307
P 4.6616549994579275 3.2685568033052026 6.692477025233497 -0.2445800448720626 0.10505373250824487 0.09579930378951244
Ni 1.7609040887108522 4.098352149562504 1.3846626010867702 0.0024654308213570447 -0.32433437938357046 -1.177280369638669
P 3.0814559837742244 5.981316812152762 4.29746357540462 1.6839517287936807 0.45547452456622206 0.2606882632878349
Ni 3.0385118035189533 5.554040570826598 13.127578016302472 -0.8491243025161634 -0.15281428772197553 0.28786199548914937
P 7.895691288634855 5.812421388695813 3.454949227384107 -0.4832300974129356 0.8176488576157015 -0.059574260019207084
P 8.003868412786435 6.464402135596994 7.358760569947476 0.5067824308115788 0.22988181942993957 -1.174488922936461
P 5.488339645478789 9.15374471965578 4.143419680952619 1.7036499785535564 -0.7508652243322488 0.2385667487984472
Ni 4.299611702028073 7.063950607716418 1.166856692673273 0.048843760975580394 0.166235703334204 -0.43433954235981975
