# total energy = -381160.60625812673 ev
CRYSTAL
PRIMVEC
9.35294965270760 0.00000000000000 0.00000000000000

0.00000000000000 9.35294965270760 0.00000000000000

0.00000000000000 0.00000000000000 13.68898722738420

PRIMCOORD
 96 1
Ni 4.83128474344325 5.5916795335939735 9.077112263217685 -0.7809846694254485 0.1605941887777105 -0.6059259684829758
Ni 6.416272968758159 4.048854404392219 8.617504586146067 1.1945062465986522 -0.27931899101514474 0.23311009655925014
Ni 8.992533541356272 3.126681647633414 4.289060593304481 -0.045358630640457365 0.38955246795211623 0.9283675017192077
Ni 1.3355357105780097 8.829745456207768 2.003985395881799 -0.9600946576191594 1.2315123915093564 0.6674370405135795
Ni 0.6586431178071961 6.588507532849495 9.091143557980098 3.590338333820952 -2.265439875949266 2.427910198703767
Ni 8.045622233306585 0.9073333671640552 6.2397959067970525 -1.089237312755808 0.5148634080475004 -1.6321897657300406
Ni 1.9864542274358148 7.980955940820704 7.886978440058645 -0.2934813985584559 0.8653168531156259 -0.20527661928674967
Ni 2.0651592970436665 1.6566037592409126 6.673449149149505 1.90927832475277 -0.48490902777725514 0.3359375108401376
Ni 2.7648627982240566 6.363297863082714 6.407801067147846 -0.10885999362821253 -0.7491371858975485 -1.088545428895106
Ni 7.753436092540182 5.622824855256973 0.1455150581072937 -0.6767081814028604 -0.7259255236677756 1.2120267719809192
Ni 7.6354953999965085 9.442924822041487 1.2019933630595465 -0.2718370808158028 -1.003096357991666 0.8866081583942343
Ni 2.738730657465372 3.9846277005304103 13.111338654672688 -0.10970691500954009 -2.1869271271543433 -0.4986852556257412
Ni 0.4436047805654944 0.340757877841566 7.279310767334837 -0.1463515628157673 -1.9220109418280895 -0.46584429783632025
Ni 3.3478601961879564 7.602348547151562 9.795784481174271 0.04036580541155629 0.5243669766625615 0.20477551128061505
Ni 6.252633765209857 1.191799583455792 4.838207796624918 -0.6299426431125474 1.3958529347033766 0.410248562848887
Ni 3.504082510823719 0.7513046585818731 8.287613900268537 0.06125344749384289 -0.21657867456313024 0.23307512955625667
Ni 1.534426180597138 4.614548845876674 11.234633806653681 -0.11734026318508178 0.5999952048208376 0.041124795064767884
Ni 6.397641893457049 8.71353505931204 3.316458603710071 -0.7798091610601087 -0.7033226986665952 0.6070410559240256
Ni 2.616721431911667 1.6669948860780277 0.08768015989848668 -1.928113455181402 -0.5599898680724936 1.6878310092434288
Ni 2.669219537165246 2.24136886465055 10.583735866284664 0.21076129655040474 -1.3055663332019776 0.35943610818271005
Ni 2.6958380312952457 8.91745741613438 5.8350264429309915 0.3067603750555491 -0.2555874517261598 -0.009627495787435032
Ni 4.251616995482963 8.080415205254441 12.127470102172799 -0.5276723868867106 -0.43802264763836174 0.22075337476611015
Ni 7.490749154333869 1.5398883030749735 12.141090802454427 1.4108326959416604 3.0242104711715205 2.385594982875324
Ni 4.090905265111993 3.2613921785379754 8.294485512228238 -0.4225422926145755 -0.31280915235279033 0.09278957042891116
P 7.01501138064363 3.4485634028983227 3.350064686372932 -0.1602874561705691 -0.019481248653063225 -0.026135520744787245
Ni 4.968904041626248 4.452237761150036 12.932519614169715 -0.3238859789922422 -0.13032356281862717 2.206331499822884
P 3.7473340200763636 -0.251483040062136 2.292686627683748 0.05010720106903629 0.24754529814797366 0.45237865924971765
Ni 5.367414511721476 8.573801994553715 0.7191005830413201 -0.03787312089668961 0.9239405762961056 0.20867561766596968
P 2.7381881863973674 5.444707285962627 9.512778260291421 -1.0089998679602945 -0.48683067028000027 -1.0721060523921602
P 5.427179858696422 6.353533383858639 5.210356978699975 -1.0887086939458475 0.9337899582863596 -0.3228307982548505
P 1.1463161902884738 2.3758081600211094 12.2963516338869 0.35868226073582093 -0.08010040499701689 -0.8680116263389694
Ni 1.9712556845822489 3.404501658047154 3.6249254235812143 -0.6521400051451931 -0.9573080960129577 -2.600599113862483
Ni 0.790238181250513 0.6149115320715537 9.329359439249751 0.5209916324324253 -0.16623493200325565 2.5116967943031194
Ni 5.763502567909581 5.568063336236894 11.26205291325646 2.0188636265827813 1.274032267149438 -0.934018786467714
Ni 7.260919127539605 3.8611313560144183 12.58569541331595 -1.1823055907674025 -1.1094469549344634 -0.49674047319454456
Ni 7.582267764685958 7.63005198341757 12.8858951611697 0.30642664586521423 1.1359704551462888 -0.006482779510866254
Ni 4.291965619403138 1.5516823723293405 12.388669921416822 0.05690031273146975 -1.0193534432804767 -0.9716443101299717
Ni 7.916869531200621 2.5567596729983055 1.5413800985119848 -2.08451186071021 0.32971646963109025 0.05770918178601028
Ni 2.901630978007255 7.6555574765632155 0.8603497609052221 1.712346734996606 -0.11544304616236892 -0.44685207300453367
Ni 6.61146902374519 8.75045115078467 7.87868237389796 1.2215388252364123 0.14820018598873186 -0.03489886875971409
Ni 5.153465793090507 6.366683630783017 3.041898096179081 0.25906281186927 -0.762024583383178 -0.18352611498353552
Ni 9.196334309835782 1.1787428660258974 0.0191716757792245 1.9019542802875309 -0.4886885494243454 -0.9099267785155167
Ni 3.3345696550218533 7.449830000497345 3.870177528720861 -0.5755779523187378 1.6275190997272484 0.11985300230460649
Ni 6.168429161326376 1.7537247863125622 7.732142232531127 -2.2836854524230152 -0.24705858831954225 -0.7837583755158437
Ni 7.136347193837053 3.462761180160916 6.141701237687831 -0.8455761801535889 -0.6039660165431275 -0.3188175633303993
Ni 0.44420991639480256 8.560380512095334 5.1605291405138995 -0.1338032938371115 -1.1076872919308793 1.4749693785205693
Ni 8.318840592591737 1.0413199797813149 3.5888828975870593 -0.4484865232841631 -1.07731613583819 -0.32575439965954867
Ni 8.957347745531584 4.740261839411924 8.704689975018736 -1.9530670398029462 -1.2771062780890716 -0.3015011835391388
Ni 4.162932328813723 2.613850076431024 1.5596407970149404 -0.9762488987815187 1.4719979545970714 -1.5692057086983362
Ni 8.879428323677395 4.899926039444679 6.034201242613349 0.6514167538259232 -0.27426548775163734 0.8027369735008756
Ni 0.6702744457411622 2.064925473307458 2.2430907426439908 1.0583509075895967 -0.40220718060164923 -0.9823784087180243
Ni 1.797805237062628 5.933221188599311 13.55985841017329 -2.1251499459465464 0.5605786506964281 -0.10870649876948375
Ni 6.181691643644134 9.359309453973253 11.881561419981878 -1.988293209995092 -2.3278330934745073 -1.3389906742986941
Ni 1.570304094681002 7.282094205090665 11.553080223586214 -0.9866605810331458 -1.0340642671280902 -0.5512270342781992
Ni 6.914027585449811 6.791878065654382 9.417133128642721 0.2758279471427508 0.48888832413997735 0.3685218725340621
Ni 5.618681498651355 1.242595451909772 2.37750291446115 1.090464757405006 -0.11235926503072263 -0.20778575886184858
P 0.40591987664820917 2.8606182946762475 6.421886609017058 -1.9974818184728953 0.07119847452169673 -0.2851070584518316
Ni 3.535012714649407 5.113509993047162 1.3960025287615818 2.833402477814591 1.9855503571426318 0.7262019172576138
P 8.736870668185668 8.046772646088732 9.168938585606625 -1.9191030241526759 3.3800485775903275 0.5403949766597015
Ni 4.818199967165011 3.5664479777453058 3.574810449847074 1.7164306752579923 -1.4260163456606345 0.5368553389375593
P 1.9772789840269853 3.9074471616826396 1.5109904951644115 -2.7299212319997888 -1.7780883001687893 -0.18681429881650408
P 0.7965925751057209 6.3798338777073935 5.255489636262981 1.090568887083038 0.7021109377466811 -0.9548784035255427
P 5.207918664778791 8.774282465979063 9.482238074457731 -0.294697273243428 -0.12701326749847158 0.5420523097574665
Ni 4.750746495743522 4.5728346913370395 6.2517190467538075 -0.0449372268323226 -0.5321720745292771 0.2781486248561274
Ni 5.020738087468994 8.65934407020831 5.469188631143679 0.4625774541595905 -0.697982003179972 -1.3397092976322733
Ni 2.5409812472789417 3.5208149373868145 5.61641340841013 2.333582851474091 0.2592821269689276 0.5854443035898562
Ni 6.004761898929727 4.480044079859975 1.4432713999785898 0.46571882800204956 -0.30251136997120803 0.8456715680808725
Ni 8.2898932140491 2.2267502046627814 8.109876060721794 2.7590410321838803 1.7750338296131816 -0.6810800852183109
Ni 7.455376299520216 6.027124801060729 4.509330035172644 -0.017051041945015794 -0.9163622497282153 -1.018911984867684
Ni 9.04085087820644 7.009296728530688 7.100710585848955 -0.6203447150114672 0.7486121666320139 -0.24510814946139076
Ni 7.041031286008934 6.9577900359186335 1.9347604758347934 -0.5440721684009726 -0.13765403504176937 -0.5733675749309803
Ni 4.898233155594528 1.5536558446629423 10.07806491317993 1.1011078389411488 -2.1077510337438086 -0.9896674861802698
Ni 4.334502833494226 7.997538720192626 7.437048259781232 0.1576109377796705 -1.1937200032519315 1.741439024376872
Ni 4.579596873788196 3.499003859273266 10.892997686858916 -0.3008571221972367 2.281339577898658 -0.3190898431551795
Ni 8.8171002685536 9.254547067202303 11.406663541152097 0.9221364332078312 -1.4975598622265758 -0.5968263201745528
Ni 3.4254055000642127 5.8002316003932455 11.490864403855799 1.5040935495800354 0.42055354431932085 0.9445672514075216
Ni -0.025999328876518814 3.698670624096607 0.055570549147361877 1.8190107494147638 0.19012665101918869 -0.25983414281765577
Ni 6.456977004757372 6.323285945342679 7.07248338441384 0.194214190825001 -1.0046585602724631 0.6444624339952771
Ni 3.854378526512711 1.1229805814148444 4.095964275468605 -0.5381894843679506 0.05592457908176175 0.17739840481924285
Ni 9.347281560982676 4.719245762001486 2.47351748761306 -2.189609044861881 -1.250164716503221 -1.1060443570108178
Ni 7.340503374395601 8.030713631885918 5.69946479362663 0.1790912191406335 1.2566570090957843 -1.0747298631682523
Ni 1.7415378931813643 5.845060287099179 2.952071434382198 -0.16975425801042376 2.446820662455025 -0.012212225795475741
Ni 3.391211116881051 5.040369928361079 4.1274350797724075 0.9846592343324011 2.540338883519844 1.638972592979829
Ni 7.34055949209229 1.4984360311198932 9.934631821619838 -0.4713228044523883 -0.9916048124122986 -0.10408056996169816
Ni 8.555068036808672 8.03488504733988 3.46973380397466 0.338851599163139 -0.9199520239620027 -1.6042112782392437
Ni 1.3788866312711043 1.0226327867835148 4.36497941927167 0.07209861773846292 1.5697896062262642 -0.7796710928203476
Ni -0.1832214738083102 6.954282679875503 1.276157575710225 1.5294893639453206 0.35739928025833934 0.852336638805874
Ni 1.7483281344808652 4.121975763179406 7.537183742460084 -0.19143919918302513 1.5544475765525552 2.8468855999026905
P 0.6240970637247766 8.093397099088747 13.407294969361718 0.41486215036149837 0.9022602631091945 -0.7766821853953527
Ni 8.81658585633394 5.307443399858666 11.893635142424749 0.3422310571583332 1.2236443016151894 -1.6782945305079031
P 7.7364324304430845 3.5618743854650634 10.43296538588234 0.6184888927496509 0.7447202877767755 -0.5344611276737699
Ni 0.7782364765183923 3.079355723424771 9.90739042105658 -2.6494094504969663 -1.2699454986745744 -1.0614819970194107
P 5.185069409276476 6.523195886851678 0.46136977274768737 0.28098532297397416 -1.428933005086797 -0.2071391264167852
P 4.512480108546848 2.1033380366918246 6.145506017523418 -0.36248157987725316 0.4740849405785577 0.393021143227007
P 5.860726477425163 2.3552129653358462 13.412688815308583 0.6047419754772035 0.6113805638396438 1.8516084808451272
Ni 2.0742690698063577 0.03143432780095406 12.121858332503788 -0.14805337599822244 1.3900607535016318 -0.02500294980224081
