# total energy = -381168.35199541517 ev
CRYSTAL
PRIMVEC
9.22891995240674 0.00000000000000 0.00000000000000
0.00000000000000 9.22891995240674 0.00000000000000
0.00000000000000 0.00000000000000 13.50745722387095
PRIMCOORD
 96 1
Ni 6.008746668918137 1.4971799782185584 5.679493879068599 -0.01981909160845619 -1.4405860159446933 1.3604226189202246
Ni 4.092610645829059 4.244084907095687 9.385534605515279 0.36490253061392 0.08638906621920606 1.0978019144963673
Ni 8.411846647148481 2.127635178968399 6.473705187602683 -1.637129626233819 -0.13711101805410578 -0.1070188266544157
Ni 8.011948321739094 6.046852878920568 4.488824786439953 -0.1751782572394725 -0.12921258914263553 0.04060080424049782
Ni 0.8095802287368082 0.6230942142887267 2.8115775075191816 0.9460206960245967 1.0153126975521998 0.04734712182539588
Ni 5.286620607438301 3.230029653366661 12.1417588976427 -0.07195874972648898 -1.0408735767404396 -1.5960074022722126
Ni 0.9162268576845186 7.74213162141672 8.596401971566891 0.6064515019691427 1.102555884241585 1.179601304462362
Ni 4.388858972561451 6.255048081498638 2.239914217691959 -1.6544115532427184 -1.330756973534992 -0.7436378533458742
Ni 2.2228684027550516 8.030101607056311 12.478229625695896 -2.2947910754178737 0.7653667603825335 -0.9279108737977633
Ni 2.2214932936995027 8.000642894940118 3.979728958640215 -0.6876315131835835 0.9773591011265619 -0.0091757529619971
Ni 4.742197397398721 5.156160596638017 7.380244448135457 -0.2526129424788682 1.074476866617182 0.0954807441078291
Ni 3.8791088143453476 3.259802148757274 5.084247007492718 0.17766759932022952 -0.30545116932582234 0.8903015480854216
Ni 5.906776333651277 5.462006999999746 11.352855140906241 -1.639866822659324 -2.274475503788973 0.20205245592249718
Ni 7.1398707707655555 8.481321955673137 5.447286872861485 -0.9184214462500894 -0.9772621705373814 0.22903181272481846
Ni 6.485032763809267 5.1091115633146 2.742257244847769 -1.5003981030063192 -0.4719671229046065 0.08104605673973785
Ni 2.8668993445835014 0.7975226449712048 5.3081202990880145 -1.0621373712152222 2.1988105088554906 -0.15318684057004583
Ni 1.2830044355868258 0.8143820357274271 7.516521447108309 2.4552016874298683 1.2944355133961385 -2.113659943029076
Ni 8.07012743238461 0.8847986940753445 4.195308219978988 0.46869796523503154 0.7512966554427126 0.2568704322036415
Ni 1.20911770338061 2.929102264277468 5.787850626861902 0.04207533190349528 -0.45236451818233064 -1.8360911019358186
Ni 2.2551880800203734 8.22850492568849 6.646168781252098 0.7119636621710448 -2.4231096919913298 -0.4764395568536633
Ni 1.7329235065067894 1.951824256094503 9.907111624501091 0.4838445910684828 0.021511391709214567 -0.7771089885201262
Ni 4.51327404086922 8.45501953414082 5.444613254785025 1.0016840510251714 1.0717414699638899 -0.6003502741674113
Ni 3.2172568283137752 6.364623046710279 13.304048138883969 2.003579189619885 -1.2585917642246516 -0.48688646321860024
Ni 7.812234496490218 0.12122924518041596 10.667000580165462 -0.4008059293787484 -0.06423618427125066 1.5936874958897844
P 3.2818131225658957 4.531833398659215 11.647209693288309 0.26888391172474985 0.5232192362113635 -0.5909135542345436
Ni 5.459256781888648 5.100888595740812 5.213932711918768 0.590968318731879 -0.8645907735828787 -1.6030298563366328
P 1.1344649708280146 9.01650701695698 10.331637322492575 -0.11401376991501008 0.351078223136318 1.0198851474142308
Ni 5.5079208761833485 0.9731619099361533 1.144300230697133 -0.5808577126604384 1.6148538455547545 0.5039585882095384
P 2.4844990511829823 6.200043719276673 8.387725942265373 0.6042079573506046 -0.02187520280653652 -0.4658440407260042
P 5.122308918679936 0.6398336290870821 12.415622479313118 0.27180134248186094 0.7684181456143475 -0.35612401309034153
P 8.282060347496218 3.770382909758609 9.25557941663002 -0.7882282383617393 0.16962621707299172 1.2249599351028193
Ni 0.5777257672674256 3.163673719746539 8.049295914531015 1.3112191606123804 -0.010090037246150364 0.058728881299776284
Ni 5.699134866263362 6.016969636491924 0.0833731389055375 -0.06264852806915662 1.2788574564522233 -0.3724003816528619
Ni 8.670496354469416 4.874226324571107 11.242824267054708 -0.5103570355367146 -0.4572742967791222 -0.9286976313651167
Ni 7.267488274256381 1.6705913819351206 12.955569663232286 -0.2539673996242336 -0.46582501456261066 0.859648599086255
Ni 0.00810299161592025 5.691585609837595 8.47518656976623 -0.6428398107901897 -0.722979039444942 0.289980584494049
Ni 5.014995038828091 4.008212173929753 0.7343894501577798 0.16986918632173326 -1.02557011361415 1.9090137582374735
Ni 7.510864119248902 7.756399531483023 8.889716424683451 0.48003524462472164 0.30805209728377914 -2.899326591311226
Ni 4.722669003025956 7.815049317040168 11.697268277370213 0.10783900856286589 -0.5559282964086103 -0.9751726349982043
Ni 6.813028574777156 1.8282767062513088 8.879208376558296 -0.49658312168107377 0.19748617670805346 -0.8895199327243906
Ni 5.587954069000274 9.162111685207975 9.711929198891639 -0.3167449970720867 -0.4107818096445377 0.15557642384814496
Ni 4.468126165031997 2.0617683780995804 9.965288889362638 0.16742072478124068 -0.7213759566238802 0.1869924762655812
Ni 2.1148623539155134 2.813999176084122 3.608003756813882 -1.3417060163473278 0.6237989921086546 -0.5100549309152635
Ni 9.118154340029584 7.863897989731586 3.3337488689424237 -1.0953493391908167 -1.0715807760163094 -0.47639250566581176
Ni 3.5939905649350514 6.489038115018047 5.058785340557453 0.26457114328200887 -1.2726135324250405 -0.1358609476970886
Ni 6.229936190625153 7.547438328558573 1.800409059914825 2.3249375170942668 1.2315141912815695 0.019702363524933812
Ni 2.7128409857628215 4.574563297499432 0.9308085510252406 -0.5422320298684403 -1.430654358653278 1.4494707200288326
Ni 4.214810773376212 0.7759380472590017 7.309573994492053 -0.7050813332289148 -0.78075944078852 0.5408346353002815
Ni 0.3924625846976007 3.6393691637681713 0.23652521779833177 -0.45187420880947343 -0.885389455495785 0.405949678363217
Ni 7.691538682876317 0.8420226506359477 1.8377031249716973 0.2868327828936867 0.1243334066734633 0.4632713949028215
Ni 0.9150603222172609 5.879311068219638 0.12051861835305167 0.14833774000786065 1.4712351082891177 -0.06091766142097895
Ni 7.33889242702674 4.115046149950133 13.186492926690226 -0.300861750182927 0.7543778654711976 -0.9329638628406385
Ni 8.02506261682591 6.394395542100892 12.92394861519854 -1.5963635000600507 -1.8060973837872056 -0.7190545075795551
Ni 6.836285452763623 6.2858911315902155 6.683800624774965 0.40043980428858134 -0.20243709295542556 0.21945882432440267
Ni 2.4085819566128683 4.808904029972607 6.513484600771363 0.6603012007997467 -0.01965479811645002 1.7281883300145529
Ni 8.53781217398868 4.8928502847999535 1.9289725276888308 1.3722306672987465 1.40198990083905 -0.8405265335448235
P 0.8365563614171443 0.01478196090116112 5.100793537866503 -0.9873568357692222 -0.040789523212536205 0.30869384463283606
Ni 4.550383527529374 8.330096875242077 0.40999014924994204 -1.0519725148670787 -1.7900531858401492 0.6455487250809204
P 6.0158067925926 9.203152691718223 3.5951451028065224 0.5663003836715537 1.3267493950374956 -0.22058445328841364
Ni 4.211294554918735 1.320123151166816 3.4959591326541535 1.356894551162308 0.533143694413927 1.3475624751281052
P 2.8194165520277954 2.508023567844692 7.081392643117359 0.690271779019908 -0.08252675505032239 0.5130081000063165
P 7.078313875460101 3.0862153955638303 1.4489717925637509 -0.10641718851467478 -0.9722965990019901 1.5227705571642485
P 7.439349219440512 0.24229975293965444 7.279316980810055 -0.7427629069400885 -0.01905547396955428 0.6243962593730215
Ni 7.127983922016916 8.527078940219528 13.146281600073225 -1.1051048759156836 0.5912951059436784 -0.5505680605379614
Ni 8.998104550804197 4.881471026642288 6.292313536904018 -0.9788577971592757 -1.0466117647757975 0.08960500205334246
Ni 5.05958917947516 7.777173830033634 7.542145543032685 1.7172043201992233 -0.5735444668284767 -0.3523347212512384
Ni 3.4122362176868353 2.3401402871098336 1.767072355683587 0.18995927220338898 0.8659483160520377 -1.4030923898746093
Ni 5.957313898672666 7.104570152393237 4.0397427785491065 -0.7680203959552967 -0.9226573387083077 0.1950791099284576
Ni 1.7658984370804602 4.486085643032658 9.655440826360064 -0.3750786998159734 -0.24149240708567438 0.10652363218555204
Ni 1.582796667536203 6.195715355873635 2.53382301324595 0.21331260221734877 -0.4910861031222446 -0.1948597948287999
Ni 6.121644045270702 2.8553447369489544 3.999733565276512 -0.44014097953294523 1.620115608174326 -1.564342467068764
Ni 7.427471599611708 2.6621742158637303 10.941985475595938 0.052631767263102903 1.051889211124653 -0.22279123113174532
Ni 7.035537832020705 7.130208091697368 10.864195833191122 -0.47201057454803225 1.11846998436868 0.8616226920934903
Ni 2.0155868632407365 8.265679014787496 1.3059724483824302 0.36510487643271317 -1.25263400397932 1.0610472234748372
Ni 1.3038710233357957 6.271032570654417 5.185188318197874 -0.5671262220069587 1.810936714157378 0.4591997959366091
Ni 1.1957819142177344 3.497216111535803 11.722392165839484 1.2519169233076373 0.9659881402854589 -1.123692409109884
Ni 2.907174350747369 0.7245864915080867 0.03888328505261412 -0.33860323059775876 -0.5740802847272888 1.8951547408671943
Ni 8.880011292584019 0.7988839106470002 8.788896935720128 -0.7476503169393769 -0.11562482315587183 1.4730343662813858
Ni 5.1121109622612675 2.762123417686528 7.552168149974472 -0.17725030927715282 2.1815818036820303 0.18179267723219658
Ni 3.019868690863545 0.5296024876751083 11.322180057155677 1.0135401790328094 0.6529655863702819 -1.8372727809487455
Ni 2.5174832106764895 6.472573722030801 10.660274543389056 -0.038699473452726896 0.24128569039150705 0.7655621642227912
Ni 4.570105729218692 6.617726173209838 9.55420234443619 1.6922322236349179 -1.089872889457278 0.09298574560011727
Ni 8.832666933825852 7.562103082177819 6.690216569844882 1.0768980744641647 -0.013168933281790224 -0.5387358437897238
Ni 8.323627402437111 3.28457256959683 3.557297302559496 1.0290025363344666 -0.7762466405198308 0.30425406369392766
Ni 0.05520739845835414 7.09094826671545 11.168924614360723 1.7917316019838367 1.6451956910714054 -0.9845432775798271
Ni 4.047527372430688 8.427720389266229 2.896728136385114 0.7333220732421628 -0.518429528132204 -1.21728724904891
Ni 6.757525850884051 5.28686978827387 8.946677317910627 -0.5256304167560173 -0.05028717829032629 0.16591945764536586
Ni 0.18153100738818695 0.1274384624460095 0.2562907954108789 0.3046584982211979 0.38762105525735824 -0.10749730895273099
P 8.469536625042691 7.47942118936799 1.0328434887309517 1.1263624997428794 1.07231791129265 2.5531596894335964
Ni 3.0946321704541706 2.724312533118845 12.868000134477365 0.0763566216838685 1.611084094099677 -0.5398619869743669
P 0.6009807994699266 4.85308286922706 3.940881666374961 -0.5804427366102068 -2.0360157128820355 -1.0049454953852628
Ni 3.467951206736164 8.411080646802102 8.91093740295412 -2.7847685188569717 1.1711781133956733 1.0344388768586894
P 1.2112495838627029 2.2682008569889924 1.580467288169622 0.8355488778245739 0.036679614809220704 -0.32111587244627277
P 4.29886777524159 4.351435702626876 3.195782977639603 -0.018310882494045885 -1.0049508947019017 0.21266494133102085
P 6.750908715361712 3.8252857538623783 6.4205133852364895 0.04712266451941562 -0.14879668192215018 -0.206426930841109
Ni 0.1815153182244659 1.531105487535327 11.65285594644391 0.09871981987041709 -1.2708456418913403 0.4503364320087083
