# total energy = -340887.32711951906 ev
CRYSTAL
PRIMVEC
9.11759516267408 0.00000000000000 0.00000000000000
0.00000000000000 9.11759516267408 0.00000000000000
0.00000000000000 0.00000000000000 13.34452214122134
PRIMCOORD
 96 1
Ni 6.549524246421851 2.155764218320295 11.495758575716797 0.47268728890008266 -0.025754740366600803 -0.4092679441031726
Ni 4.792973935643233 0.6817955367854637 5.862008330383409 0.20786597728048073 -0.3167779071925512 -0.04067562334249124
Ni 2.7572793290259487 1.6831171987233327 4.659293577767372 1.3911730127292041 1.659743249868277 -2.0832342795493672
Ni 3.8683038968800325 5.082065527887699 5.063538574361956 -0.9460800885076223 -1.5577352461648915 -1.2034703977704757
Ni 3.7651656595359317 3.179004579212833 2.68390365782067 0.8911340712890459 -0.5851761375301341 0.783282978541322
Ni 5.638858833945827 4.806477094192261 2.5956827180471738 -1.9651175432095769 0.23831632335053796 0.6548044393512336
Ni 5.423628880732881 3.3573720948743118 0.6640663728431365 0.7164430380986371 -1.6926299732939687 -1.1591412368357972
Ni 5.715610750668126 8.182294084235165 12.22275459089984 2.026291800726052 0.5869615115653309 1.0459157671500374
Ni 1.8926121845309178 6.922534185246507 0.20660835515490278 -0.038109662387527915 -0.7404062337824538 -0.277967876303889
Ni 0.6719932101439642 0.2050054819118783 0.13218689577570478 0.7515136565495251 -0.1559507764684282 -0.31712474900900867
Ni 8.34653844487136 8.88906271438038 6.86586377203821 -0.06663013842472396 0.38665714868219214 -0.1361710227383397
Ni -0.0006965842762631981 2.544119069932267 1.0708761489784637 0.08393983334776511 0.4546790252481202 -0.03229202726448632
Ni 7.3323792088369135 0.8561604281370003 4.8781030988711676 -1.0879260501435521 0.38908632694897505 -1.1072219222586865
Ni 1.1938943909817827 7.994581033453664 2.5094776785810313 -1.5017926693610006 -1.5861384798979328 1.3105113359120786
Ni 7.525644875118994 4.027943871920508 3.859902944626775 1.1246190346892115 0.21891683577800358 -0.02445813304236433
Ni 7.8407489665804615 4.107978122928864 12.760619769241703 0.7996794176214744 -1.227916446627982 -1.609532690452157
Ni 8.926700147527166 7.483667466638421 9.321976165685099 -0.7835280046725925 0.4808351148181978 -0.41231752956277384
Ni 7.526656928190529 0.9805244271976027 0.18213125897615695 -2.7566313943011234 -1.1838153425437097 1.0992579302166037
Ni 2.056437135786116 6.671891492125102 9.06486727402016 0.9813707933891165 -0.5134845254221028 0.6804506791644281
Ni 0.34127979563324795 5.035994319144794 1.0517875515859947 -0.11813781938571268 0.283748230431092 0.8525718947451316
Ni 6.669238271910539 2.2628959623790985 6.863728431233224 0.5248156341642057 -0.7464964058405917 0.2843676091826457
Ni 3.6869366923849083 4.64546036227069 0.14899518259888808 -0.49209397556146856 0.9769209851478787 -0.7079314010832001
Ni 6.29186100496638 5.9853183354343775 4.717234983751993 0.005025735349365538 0.07937715367774717 0.42520466993808703
Ni 5.6770889107831515 2.920593694947761 9.134352467336939 -0.5800046206315236 0.1084884692214067 -0.19846885233629688
P 0.39966249322743813 5.7945964782239905 12.353384201408714 -0.3417551459631792 -0.06115266024992049 -0.16972751853754642
P 4.4447273854878295 6.489493999367965 12.269287149961839 -0.5710864922062874 -1.6502409668047968 1.2311550081699376
P 2.548987865789918 8.710676963528423 1.178476537432554 1.5665955247689989 1.819530112253344 -0.2972177256724365
P 6.580040837686942 8.096433689869059 5.616949252586397 -0.8430035343304063 -0.7312762464567277 1.6147306897133287
P 5.019117650357318 1.2316868232476328 12.709229355436339 0.5292705846117659 -0.3598251160910126 0.12721381354505187
P 4.245307342419391 6.434296077790774 8.019417362884829 -0.42781202565394705 0.5554012202605467 0.26315832209488227
P 4.970055870376005 1.1179448226405204 3.612362057405694 -1.203416918824721 1.7920889853232558 1.1017470151870445
P 0.502005676266694 5.945328562715917 3.596575853008808 0.488339650725359 -0.16304702119357725 -1.4412979544100533
Ni 0.6773671207778585 0.3738688162961739 4.655756862574146 0.3046458998157076 -1.0447127479808718 0.12186103387357078
Ni 2.0410101646416483 6.755208077419514 5.098355023541782 0.2170342740433101 -0.10826349769479418 -2.5213363742754127
Ni 6.274874925036036 5.785013885627752 9.107595972348433 -0.3636452611680511 0.5216508632829789 -0.029413420165110636
Ni 8.734793002935701 2.6851500330898475 10.150590515085888 -0.14333463036631444 -0.4872903835252382 0.09978142836571204
Ni 2.6124919166298812 5.311491576887842 7.090905169487893 -1.1513212265707462 -0.5985307044601692 -0.9545035366846271
Ni 0.9506460675992453 0.6574752632448294 9.131483160115211 -0.744855270692743 -0.18756326116738664 -0.9117388920235912
Ni 1.7900757084725942 1.3620775527612454 11.329539343951826 -0.5066718733756435 -0.594219478679325 -0.19671124621524186
Ni 4.361301389050548 7.2639972445440595 1.1614822516664942 0.30864550789340395 -0.30095148168325586 0.21865149793175892
Ni 5.624881560444368 8.09192959782097 7.99647840502291 1.1529173674132727 0.15309788040066535 -0.22957560104343047
Ni 5.462342190117876 3.227902242479843 4.930040568390876 -0.2367497501943665 -0.712105844175864 -0.7369804959303565
Ni 1.1835459203854644 7.381285989699161 7.028493406557568 -1.0842917958250744 1.4838779938641091 0.5018855077305937
Ni 5.268201234692846 4.956753298922235 6.885293367492619 0.8102952454641076 -0.17788408620640975 0.24254090295484684
Ni 1.1795706488612396 7.604967953698703 11.18401705337949 -0.644427981212916 -0.1725261643286061 1.4958706474496108
Ni 4.7740549255222104 9.083541020829253 10.258200932894743 0.8022497494518118 3.401307486969104 -0.9094737501384982
Ni 8.354616634253155 7.429317481418462 4.617925224648768 0.6004742013397852 0.48883895895928076 -0.06577216129980286
Ni 7.943367500995937 6.604348346594241 7.3360572467563445 -1.64153341172847 -0.720186050080837 -0.9233595069816549
Ni 2.551331087766353 5.570832455867297 2.1238471644264867 -0.24638135974685954 0.20354420997667524 1.635559196422906
Ni 2.5339894216216856 5.4172830344465055 11.368625562982096 0.8695301198660251 1.66166437815039 -0.41286697430834063
Ni 0.840892103149692 3.6578971515485432 3.1710458303286693 0.9250646625982196 1.262772892185535 0.5287795039079604
Ni 1.6491359212674042 1.4019032087654033 2.4687630570410666 0.6280845068578861 -0.5200670637356269 -0.5488325659040936
Ni 1.35772845983222 3.2684208357221682 8.442425458721846 -0.98132605619411 1.1079528868874404 -0.2513250769053801
Ni 4.0348094211355106 2.89868411358833 6.979972299973932 0.6642553003514883 0.6874512788519774 -0.6695286329352856
Ni 4.343585901501079 7.3150193075017675 5.82928801634904 0.23675412106974061 0.548517605766836 0.3428792322652934
Ni 8.346884913490443 7.3260151273600576 0.3288288075748052 0.9088471722980929 0.20363676969048158 -1.059659599098691
P 0.5292353744481081 5.458704269617495 7.963077006624184 0.6943382357797977 0.2688350607646854 0.8870061651636015
P 8.811171098253201 1.749438586492161 7.636362569385315 0.061131062983365694 0.7779019167350667 0.27911124587971287
P 2.5087975059761987 3.4893492859595185 10.414332457287232 -1.508341783333428 0.7737339014003062 -1.3239350655171522
P 4.274273942493844 6.302856824824671 3.4107528797203606 -0.1754597930356333 1.1850628417975655 0.059940899330006445
P 6.946340226415659 4.0370797023500335 10.345794582115794 1.7838766247157922 1.3379979713681214 0.7481349698852793
P 6.902949590673034 7.877848461608144 9.989015786335688 -0.8106503148106813 0.12516901520088122 0.054817719170828165
P 2.49069907942669 8.869195474354495 5.862581827123945 0.17468049166744753 -0.8358630666308831 -0.7353609580490625
P 7.3241916083122485 4.200129658009913 1.526493324187934 1.1686347781485293 -0.31124103653472207 -0.1789660064166789
Ni 2.9711689957387546 1.7013615067966659 0.20622359263581502 -0.4396941218035137 0.15188920480454488 0.10856405965434851
Ni 2.114516217458846 1.7149831940838025 6.72784070354999 -2.4330238657812484 -2.730549609612407 3.630969734189069
Ni 7.157494614556751 0.811259006863265 8.88374168579887 0.12888888725462963 -0.39132961445719705 0.7555153215097505
Ni 3.164607896330378 1.9593073937045473 9.020763642329843 0.4777420777151708 -1.2727107201245373 0.7444724334320275
Ni 6.421659090789455 2.3074262975266047 2.5607203873435243 1.1993844006265604 -0.6214137797059298 0.26549828308196854
Ni 4.2272362686555995 6.992539081491911 10.177480126964886 -0.2527859777216227 -2.0424079895616245 -0.3213272171261305
Ni 7.157330497842447 6.143946257403319 11.436829734167787 0.7745661674936144 0.21756803505959305 -0.7261772346672655
Ni 7.921968504969893 4.1189374724061985 8.181192678730289 0.543876764560715 -0.6443559903243999 0.5791864956056025
Ni 3.262968513769218 8.487268527386052 12.274211563150446 0.2448160721422687 0.49997312119922926 0.08254243877960624
Ni 0.19639482496812222 5.1249182255112204 10.298301028515596 -0.3381903114300563 -0.17024636715549388 -0.5353728408547619
Ni 9.016845811655624 2.5969920047235013 5.307036719854042 0.3863684137971798 0.8292013383399914 2.1580888627664123
Ni 4.022929194539032 2.436112036730515 11.297979699791389 1.0145079422627172 -0.7156804489009997 0.17971394032629695
Ni 1.4396409354598192 3.586515498422043 12.22486349067863 -1.6008963549333977 -0.547607692358057 2.0181486027936275
Ni 3.246228608910328 8.817507826944338 7.93542698730225 -0.05521109795450491 -0.5805396671993872 0.03473226127486276
Ni 5.59060851994079 8.16962062685289 3.5846190386123213 1.0992512453483843 -0.5600343481571838 -0.7791136776549807
Ni 3.252246221768099 8.66564516064277 3.749237220653317 -0.12273649449998861 -0.6488495073193793 -0.7949637573133599
Ni 3.879272363952606 4.450589999226536 8.89962180142672 -0.47160228336602006 0.289756641408701 1.4272653875763872
Ni 5.052442460956035 4.5590346769997625 11.240931818140195 0.0869469956052051 0.7666322573585184 0.4917378777736305
Ni 8.056316270817252 8.974002231627342 2.547976724477908 0.3001495546072508 0.8512570325884501 0.24665029713753003
Ni 4.828696673789819 0.6454683020745283 1.4305461342088697 0.2885675061966062 -0.7696286209826809 0.4436219961030101
Ni 6.418905577027262 5.728831263764744 0.251931009328682 -1.9457931318493522 1.4416350260344977 0.5837851707198785
Ni 8.39044878354261 0.04022865371372359 11.180374574081492 -0.36922944012404796 -0.2715581161228033 -0.1916230330590571
Ni 9.056926760326474 5.257415119525053 5.603858209342173 0.4890883559659254 -1.0338616641989808 0.4122488811083674
Ni 7.479783371066587 6.467566182818057 2.4108216510564464 0.5827114780397255 -0.5610756449375047 0.8618852017262576
P 8.735020942816679 1.8766199224816293 3.3253483651162066 -0.8441214499849333 -0.634110915557624 -0.9529151091515846
P 2.2338746567332115 3.4962695407459554 1.3127340390870466 -1.8429076106370197 -0.19268926954004234 -0.5060902898405607
P 4.986148425972924 1.1655569049788244 8.134406650520642 0.8915860712247999 -0.60145147765139 -0.6973741943926441
P 8.780380979130937 1.9102364961279958 12.181586824876492 1.4866923233844525 0.8561552412210157 0.24763785786177997
P 6.589103727354554 8.158405984708862 1.2412046809176742 -1.2414944424227328 -0.3451330612964766 -0.4236239557145285
P 1.9403245604168513 3.52368614962977 5.88452058478814 0.5111900729609712 1.9550899837702458 -1.4575876927090123
P 7.140007066888257 4.24130471810945 6.2135299207486785 0.07539580043249597 0.6729520567945377 -2.3048440887785016
P 2.5899167508180008 8.702972595551428 10.085069652179047 0.4658471260497977 0.6485885403485089 0.014413604322168724
