# total energy = -340853.4200802262 ev
CRYSTAL
PRIMVEC
9.38296739174474 0.00000000000000 0.00000000000000
0.00000000000000 9.38296739174474 0.00000000000000
0.00000000000000 0.00000000000000 13.73292122269232
PRIMCOORD
 96 1
Ni 7.173259929609675 1.2881407007427934 8.533595997608362 0.3778737460626073 -3.4024431432354434 -0.5008781495120019
Ni 6.352315949348982 9.10028689114991 5.734222344652687 -0.04385556373236963 0.7933331636884725 -0.28505666482987035
Ni 5.4778139902862355 6.24193471903585 7.823673166048028 -0.03638522349725346 -1.253749348530686 -0.8043961063708533
Ni 6.462837924175433 6.528706356409212 2.61919815678389 0.7186868398274913 -1.4088714584502318 -1.0645750341224376
Ni 3.640366219990429 4.781260010897795 4.889565728787834 -0.15697356130598772 0.3415486863793279 1.9304619008089206
Ni 0.9186244256918237 7.962348735022265 6.744210602017838 -0.5263171584103968 0.2676400120153197 1.5633183966796238
Ni 2.4629914512305087 0.49896557202870034 11.977070964728364 -3.0309043382519287 -0.6662787585394202 -0.7272843516885152
Ni 4.4282070907182485 6.2880144726968314 3.3331040580711804 -1.5044715017447443 -0.3440850796479365 -0.3628104239715816
Ni 6.942551523375462 2.69116645622496 2.973644447645305 0.3939097164795474 -0.9051275573546604 0.8900248973852672
Ni 1.0599844616834515 2.5801284181830018 13.050752682448122 -0.5742885440833528 -0.9452452513111529 0.617965159035697
Ni 8.061639297685778 5.575706490784102 8.657260695088638 -0.3224795855630188 -0.06018438279938022 -1.4100487665877846
Ni 5.712913625336033 3.077453847483146 11.206736834864046 -1.4705108285285835 -1.4778518422746871 0.32388546477160995
Ni 1.5391163168950919 9.123603565523263 9.672206912509676 0.0034290802862069975 -1.3142998564202333 1.7358412185741203
Ni 9.166408663507665 7.201896746586526 9.862613596503072 0.048422100057129505 0.8137639207389985 -0.44661321752085015
Ni 3.103482199479799 5.28507845374577 7.6247786496046785 0.3024190673677179 0.6444308094263934 -0.1151255149219501
Ni 8.26335433417606 1.1340066927222388 0.8263438780884053 4.300200633378278 0.12724389545203893 -0.6464514394008479
Ni 6.2005464491522035 5.160097325917573 12.154404360027836 1.3882208720794156 -2.262088957199162 1.046198588497779
Ni 3.1297638916004282 7.870329972213622 8.149101691449873 0.719619893164722 1.318235958249846 -0.4364190505966677
Ni 7.889790246922007 0.3792426592181402 3.6133376436524483 0.33469515379260417 0.366002448546318 -0.45201099149765384
Ni 2.174033582416908 3.4192190576944252 8.731858102038528 -2.775138966187008 -1.113278669975728 -2.079059065125755
Ni 1.7023893353138946 4.739458890441743 12.193570743194538 1.3452579953646444 -3.9567403317985335 0.505750904223271
Ni 5.288700279221873 7.020242494728126 12.099637855004742 -0.40566120058852073 3.243048631192789 1.6840699995390995
Ni 9.017519734350172 3.753515425732188 5.360453708705942 1.0983608723236309 0.32567803789565847 0.2206009083486459
Ni 7.594264300820138 3.662857193218972 0.03517580706570025 -0.5430568397625809 0.8935611926732998 2.1876318665308516
P 5.370866926098113 4.473207803110443 6.401751990504269 0.15218925254346694 0.9043109749906361 0.08434658186788055
P 9.042065577473187 9.08668158819564 8.60992362377533 -0.6901779337545211 -0.44202894058427744 -1.2091867314289626
P 1.8119636304173243 2.176857855650864 10.472217492155902 -0.07031324370326601 -0.5314156559792268 0.4103195252961385
P 1.698026255400973 4.990246847242948 5.64944910938976 -0.7035661821359689 0.46026243287316865 0.13682742537541598
P 3.2424533319320075 8.177950563493459 13.050656037882309 -0.8788778796295121 -1.5477120576009347 1.3616855447930483
P 4.850909779056106 8.8194452892711 7.22141519569375 -0.12214154122846706 -1.2321438544457683 -0.3153013226470247
P 8.936891894152897 9.222612639160136 12.208965378061485 -1.9426214189895898 1.9568306206104362 -1.992112840851498
P 5.995303416861364 0.8421607464953116 10.42203738167353 1.4032389427548027 -0.09149733398004888 0.3334232290587161
Ni 6.244233546086745 3.252296064896856 8.769225770324997 -3.8734581866394255 1.5733999492853419 -1.3115654882082057
Ni 4.600891225594385 0.21737520933902685 12.524795127654903 2.0518490803698666 1.4092553241522117 -0.42806065132964344
Ni 4.8968206393011044 8.367524039968 1.263445668435659 -2.1044674778965304 0.946087801817106 -1.3878778869177
Ni 6.350307994292283 8.07683970512434 8.800783505101617 -0.12688368389914279 2.935082151644281 -0.28681067140649963
Ni 0.022109086449067592 2.4911778857647353 3.3808671161114696 -0.9903411152085265 -0.6021634161167501 0.050280493422106956
Ni 3.5766277213915596 7.7896552171785745 10.851260294165128 -1.3266321527333411 1.0395103778443258 -0.9882538936621947
Ni 5.296600737902905 4.3692163737020415 1.9887190349154316 3.52767155091935 -0.4369157877274282 -3.1718378153759184
Ni 4.38331897393671 1.518530086080147 2.3074462448897313 -0.8046958969994593 -1.0874133721731918 0.48571044063262797
Ni 3.5280520983610364 3.1703827581445916 0.42015333605325444 -0.1638458629457888 0.15006089334655445 1.5097638604919352
Ni 0.20268148214841447 4.617161291334181 10.367229591593194 2.920595785102648 0.3066073944174526 -1.8694804760295416
Ni 2.911910150916113 7.26337395000472 5.942880777133426 0.6462092414830548 -1.0438128618744218 -1.554595157874013
Ni 3.7795813095990596 0.16799640428582346 5.163070788335649 0.46226197980170064 -1.8967727360865914 -0.9833554279193129
Ni 7.730336096297954 2.248515578865874 11.984611117455296 1.2329696927811733 -1.6585080919095951 -0.569917925819483
Ni 8.638738717135722 6.9389109319642515 3.093258518032231 0.8758699460411238 0.08295227262351519 0.439094797656618
Ni 3.688772949604969 3.8965587661031234 10.058870560766804 1.712605130864315 -0.08027318312945529 0.8592657618255395
Ni 6.465840473792928 4.636105502827059 4.315776620291177 0.42133541679066794 1.1539296107278707 1.3427743097108422
Ni 2.112312421842293 0.9740270959151248 7.981120299912137 4.222453559104785 -1.415688738482381 -0.07663712903876478
Ni 0.3621787944232184 4.802024518096279 1.6397242482032792 -0.6751886594345404 -0.6125802405746998 0.2728287553051108
Ni 1.2646082181156828 6.662657601219673 11.541216170769125 -0.17415727217412585 3.5677396225848295 -2.1304088803526406
Ni 8.898731365108056 6.029626312176346 13.094821666162137 -0.6108902544667866 1.2368086069112894 1.5027349786696118
Ni 7.482344263828041 4.307054213652357 10.292865820535418 -1.6503803205961383 -1.1143793592390743 2.7944708337464
Ni 2.155427157755999 6.355158988518047 13.593628666039164 0.7757889841571219 0.8986442636231621 1.8846376433859544
Ni 3.261341245619557 2.6453494256555086 12.03215367575805 0.6716510785949272 0.7668821685857955 -0.8425443353058005
Ni 0.49752340991554767 1.943278261344923 7.282252480724715 -3.119811285796982 2.843701288637438 -1.6782580208430127
P 3.7313997712058318 5.231923942548569 11.907720513235047 1.7625074150113968 0.2002891933744873 0.5348730184002078
P 6.863115320057631 6.5185727514501695 10.069925573139715 0.0856159354986074 -1.063564333469736 1.3541460418828937
P 0.1482499490670216 9.234059859576831 2.004361380125821 -0.18295995806742038 -1.080749072779139 1.2848542974656065
P 6.807239748269575 6.614823232625969 0.0987820058220489 -0.7877821519632562 0.673794350190175 0.27550218837221585
P 7.562315296296488 6.824504408570166 4.864983292091355 -0.5119819727346473 9.975880265789271e-05 0.15053320499728268
P 9.071199691730435 4.175917859108297 12.330048821167471 -1.4823523012482018 -2.444522867559783 -0.5388669700509494
P 1.488382611326994 0.8532166971649785 5.347943398065301 0.9763689692991507 1.9374072217785019 1.4711638887315501
P 3.7018058915384047 8.208539037721682 3.1761776789063556 -0.9750623346725853 0.546514202183562 0.30537994976825467
Ni 4.660923452009159 3.296987139359747 3.6294735329562138 -0.898052138565118 -2.810194158018928 3.0215804897478415
Ni 7.737007386229323 5.351472332162612 6.503334812141387 -1.6846736945613696 -1.510876376829824 -1.7090685784659663
Ni 5.771866810482021 8.621239482646262 3.3939404048053903 -0.15672390718902685 0.943374259540685 1.6509017403172468
Ni 0.5250877537009001 8.71138165194397 4.525107811545586 -0.5758975404416857 -1.9285785677432785 -1.9272346521208745
Ni 2.247051835927346 0.35938642327894876 2.8635615957004124 -1.1306071339518462 0.4635035655182856 0.9066097983271418
Ni 2.7685102577781002 0.7786108455442908 0.5899475169225525 -0.3195210171553271 0.10497582808245792 -0.07203125483563724
Ni 4.489355890272029 6.082855887113984 0.6111520852993501 0.11285625927179918 -0.06395824801951566 -0.8880662309969997
Ni 9.225624571745184 1.553556703961728 9.819697779501526 0.12858678263317855 0.6435730894117884 0.46752348531095606
Ni 8.581343104603807 0.2033992791663467 6.349471033586406 1.01187847505967 0.33655303293694944 0.3335674679460642
Ni 7.366896231035388 2.0172254286432727 5.8874818600971475 -0.6531093110369978 1.2583919895090199 -0.5009593963718985
Ni 0.5507633061174975 8.26154342143801 13.598655121758199 1.424241770258715 0.47909576352958777 0.05120480500858923
Ni 7.107222603959912 8.393918327699286 1.4723067730155788 2.569384378822575 0.16749914342765992 -0.0694023018532224
Ni 3.938491248104941 1.1006408600978344 10.189196226914142 -0.8969110829821392 0.061459392857061895 -0.9389401350287314
Ni 1.9102877474227051 6.33121365531853 3.293374696851199 1.7957623204097846 -1.9252567024588971 3.0975128794100977
Ni 4.852035735162667 5.832874865522482 10.04557677233535 -0.24488832014110082 0.14125306524693737 -0.25680332641113196
Ni 7.22648012157976 8.354425417261682 11.072607313670048 0.4077445654801106 0.8299037637236546 -0.3685524686616814
Ni 7.775186681209274 7.561255020962811 6.89160576274063 0.3054701954892159 -0.17229707903693553 0.8657583115284185
Ni 6.744036078821321 9.250620797310823 13.120818116069103 0.8846764885891601 0.037519594212012806 -0.3033356656447163
Ni 6.260466079956323 1.3827116307263068 1.175397777496152 -2.4126396456979418 -0.9500149047856542 0.294289496282048
Ni 3.22451309796748 2.1339213961206966 6.029603793054213 -0.4653832990395017 2.1372282172673196 0.2908953829988345
Ni 0.5694128924291585 5.195518028436451 7.49133596163568 1.1550305571015334 -0.3025337385687112 -0.24056012507939215
Ni 5.4444856895320495 6.891207924916312 5.547894436655306 -0.14665778120227646 -0.46739313038067887 -0.3634837958895224
Ni 0.9572315839922666 7.168953147502082 1.7129892737604044 -0.21674939581303962 1.2566719214941195 -1.559320074153508
Ni 2.2788507129701205 3.1411829631144603 3.2196555356644274 0.17104212358391188 -0.10249394220086866 -0.0930857615130913
P 5.532075691654889 1.5354475765812161 4.747113515372842 0.05132153309211161 0.1735864872723204 -1.0184131908543945
P 2.28128090156678 6.600054441694919 9.476691202682764 -1.3756440638556697 -1.4093429987700115 0.8138505669155338
P 5.5771139359173025 2.7642691564433894 13.585992807043175 -0.4331776608412346 0.8016643092619872 -1.8470080059586385
P 3.3294334411637934 4.606924473732037 2.012861410433596 -3.1665842802864628 2.35988497970373 0.7866374968358517
P 7.448368538312583 4.616476334702691 2.209256304320382 2.5751616476259844 0.2891704298879278 -0.3514232651805625
P 1.038337955534829 2.3143089473592164 1.4916291181009096 0.6176280874112524 -0.09447132900670827 -0.37213195848282365
P 8.282092120382735 3.0917722559715712 8.438152451642264 1.8234816407019243 1.729248652958267 -0.6805270409283182
P 4.007718782723292 2.26269324284098 8.157039682001123 0.16930920005320518 0.2905829939647383 0.0954501479802098
