# total energy = -340896.1797267858 ev
CRYSTAL
PRIMVEC
9.02023506506597 0.00000000000000 0.00000000000000

0.00000000000000 9.02023506506597 0.00000000000000

0.00000000000000 0.00000000000000 13.20202579706349

PRIMCOORD
 96 1
Ni 6.25134765244853 2.065850323438281 11.336473618994388 0.9187250935334371 -0.27345661869709675 0.6263832078960632
Ni 4.834548345598037 0.2342663298173129 5.888090156660699 -0.860590137063918 0.29683668818393394 -0.4150220729781304
Ni 2.6966804651249863 1.3911728189326846 4.857645559593934 0.7914025223246628 1.2941904872648677 0.04867432527725166
Ni 3.4379182844301277 4.414232450664522 4.999646610648527 -0.13308415628289982 -0.13853412365387752 -0.34271699565581626
Ni 5.019598468665211 4.4956039914975205 2.524108935294524 -0.456906114806426 -1.0429034626862748 0.6695386602376147
Ni 7.133905495058249 5.865218448542291 2.7327009699480014 0.7878366593502755 0.9923877133249103 -0.6475842674537106
Ni 4.994053162863298 4.47635480979509 11.567482741917257 0.9886855818829747 0.41769242072144197 -0.43016921303221395
Ni 5.526472539613964 7.7268326088566655 12.534940841330915 -0.46921192875697254 0.48695099790794844 -0.4342009598994264
Ni 1.8037673926209896 6.287518795197708 0.40357704465928956 -0.30792148524318586 0.6689102826249964 -0.022210217548452073
Ni 2.749448840457327 1.7480133194706995 0.3474414155642888 0.46917027688575974 -0.9604119317492621 0.4986973398105992
Ni 0.6039868240539689 0.16021110167355532 4.778671597250394 -0.4990156423819664 -0.21437009694758566 -0.13030350821396913
Ni 8.512522146732367 2.2696354748072096 1.269204808010672 0.4303887852421879 0.5843315301416517 -0.3742973415652586
Ni 7.050594603678848 0.5052459185132855 4.666229856617011 -0.24847809437488816 0.8804184846437547 0.49135324074070214
Ni 0.8390821134769301 7.449243893903256 2.928763898048209 -0.24038503295410857 0.5904949786398862 -1.2116657890970746
Ni 7.470134758393804 3.75911081585474 3.758603878642145 0.9771099612302334 -0.1314767025864639 0.790801141295238
Ni 7.509426902487423 3.855564189774179 12.561502727628547 0.4693055169120434 0.09347322675949708 -0.16076722402046503
Ni 7.824323309812552 8.703642888021534 6.979449303378204 1.0406547758614144 0.4055745544119854 -0.1391658437006055
Ni 6.908129010516628 0.538666791580611 0.33720705682034463 -0.6179021670082455 0.2382397044763316 -0.2907192624322864
Ni 1.8498607939796665 6.428207402045317 9.171526992752502 0.019539355584508283 -0.02944118807925252 -0.6595689506194125
Ni 0.11013977663597893 4.806188726445067 1.4589950646226562 -0.832979831545817 -0.5574943553441495 -0.4760256092446962
Ni 6.524940403252841 1.8626785480561203 6.815902518764836 -0.3347581458200557 0.21817841495008233 0.5121724914788987
Ni 3.2571166920948404 4.2084808880438915 0.4788960077404935 0.3876873897189194 0.3830735450959919 -0.09873601782033319
Ni 5.8766921875889135 5.587332065830597 4.77378623792048 1.0900027301669226 -0.49807847527967775 0.6669932681079416
Ni 5.392945999435394 2.7564034417190766 9.257432103746533 -1.2833450599099319 -0.35089824591502794 -1.2967384504977022
P 0.08990017311961901 5.610378766509935 12.401705654746062 0.36307524759719406 -0.11354942868408187 0.49123676976749586
P 3.909856984838342 6.080838148361824 12.543957468336421 -0.1396181007466757 0.375049903460567 0.46072625988346455
P 2.0352356455104235 8.373890153487453 1.415349755069996 1.4789157647628273 -0.14016497438908118 -0.7821923165803044
P 6.4125572941476054 7.663366234696264 5.641370490264953 -0.5534847199641242 -0.4534022154182256 -0.590868559929221
P 4.799811420229688 1.100748309432622 12.675185652611626 -0.7017491835318882 -1.4020652341616757 -0.5613947188398203
P 4.194661887871388 6.229004530106957 8.036284402275708 -1.6026596174814076 -0.25852030910223867 0.29069792227604774
P 4.706650432121584 1.0888686598065207 3.737243059902912 0.009170867865990659 -0.29545060646968474 0.27187616158385436
P 0.2577243532171906 5.528438950865666 3.5717948097305605 -0.9175071619659358 -0.9096082188338335 0.6184295002666252
Ni 1.362136682147248 1.1192758723270881 2.5322803662712023 0.32875050617339513 0.10789557283241417 0.01561250972627634
Ni 2.0008144283705587 6.397304076594274 4.779727866780551 -0.46085095838678697 0.4564024356971301 0.29429849514311257
Ni 5.994857267392957 5.830355239882549 9.31384465405909 -0.015884789551056513 -0.2831231952525834 -0.1937094832744406
Ni 8.48505553085425 2.435093647238171 9.994619837491978 0.40995134332344235 0.06276448482173061 0.44874131960744656
Ni 2.4691991561495517 5.160692986092299 7.068338308143163 -0.2708541480772432 0.5232120371225119 0.1876589062049865
Ni 0.6702837479886075 8.792140414583175 9.169097843440195 -0.11552737834605911 1.2948101231267377 -1.0783047250037041
Ni 1.5812111320099067 1.2417526245087154 11.535164141579095 -0.5878374864123812 -1.3027872277949435 -1.6528748048832178
Ni 3.9942954056051865 6.88308883788029 1.5033935638061287 -0.1375110817060019 0.476450869707573 0.23014304351112622
Ni 5.715843355293821 7.67990934586883 7.720280310080356 -0.6886838657074978 1.4974727018294083 0.8647149578655688
Ni 5.1555604723206585 2.9525304134884913 4.767753504685904 0.8135399776536505 -0.7875404682660954 0.06208468514588662
Ni 0.808587404675897 7.3224735098142455 6.737667313675949 -0.21641103863701439 0.06043352269570882 0.912310705366661
Ni 5.344588519066732 4.512543993014466 7.319743986673123 -0.5707406788310945 0.04642589556270714 -0.25169017355428264
Ni 8.011511228598318 7.188577139996593 9.049870179941424 0.4390750001622761 -0.16596342350942386 0.5279914607890261
Ni 4.528112918796282 0.5245149447329343 10.37535313676167 0.32067981335011864 -0.9831404836950293 0.22819080488076185
Ni 8.297091871849924 7.168633400191498 4.697452498390577 -0.430239147038201 -0.2646197371317572 0.2687787536054533
Ni 7.4022394487995244 6.221003581573659 6.954233236157425 0.12342914969163904 -1.794615094179219 -0.4427221099965601
Ni 2.2269246616108624 5.218584854961182 2.705781882340428 1.2622203621161747 -0.2835147742640472 -1.1086650824631166
Ni 2.262274962965981 5.147216754853579 11.343853975352836 -0.07492323167145161 -0.005167146023236262 0.04728541534952501
Ni 1.2455952446611216 3.3490509282294068 3.886016503470244 -1.032752233184886 -0.15533551148193248 0.3174145123352856
Ni 3.4491755378343605 2.6878496549625317 2.763633160151362 0.5558300802678493 -0.10251631079837184 0.12420947950108932
Ni 1.1792423952688658 3.452540085526491 8.299677973252964 -0.8619106556475544 0.009065195526061807 -0.9364343378877421
Ni 3.721703900896925 2.834392394389746 7.10926491883682 -0.1678974073073431 -0.8197954716450591 -0.3401970574474399
Ni 4.0874112925377935 6.858977749459206 5.736386038709525 0.2608633554131185 0.7438623106518544 1.3858947950494003
Ni 0.8550181628272968 7.468889965950066 11.121703625321233 0.2087473514441695 -1.586968431998396 1.5330706535386758
P 0.2743215858003541 5.525092443643734 7.9721487266709214 -0.17593801822363248 0.2329244629110053 0.32288350586965686
P 8.609381431231284 1.4671863401165535 8.02395374089463 0.09862880281850755 0.5146970576729651 -0.8849027456673535
P 1.6799376051744306 3.1323127192575306 10.32773351162415 0.8618463780685222 0.7482365284601501 0.6036392293313282
P 4.103620655011676 6.067091310070117 3.640418954320882 -1.4730909305509339 0.6687207923220096 -0.28396651708948517
P 6.810232398981262 4.006021711234595 10.22335856724029 0.31115541879945124 0.8417665765995116 0.9548686333335297
P 6.321146231648813 7.8808711636516025 10.289209891561011 -0.7385498973000055 -0.91654325539077 0.748970064192065
P 2.430619610628796 8.446439904393097 5.850648964809506 0.5054156323710393 -0.4189756583092397 -0.663518936406096
P 6.899866475165444 3.7966349938688486 1.5281342646371616 0.8575310385226199 1.1491442735240855 0.5668989364875011
Ni 5.323553330814591 2.8889467762717964 0.46587800444482963 -0.8041382247237764 0.1404943327040419 -0.08436457959000954
Ni 1.5474934932078057 1.045968421673083 7.016942812592974 -0.5547682146622381 0.8415624310085055 0.5027236873611728
Ni 6.937354572239156 0.6117920334856056 9.169124002121983 -1.039113142405907 0.21971644886116354 -0.2725104527337436
Ni 2.7650358067093417 1.6866667005586915 9.07278879328235 0.4150619250771303 -0.5628360792720372 0.5850655800941988
Ni 6.451759235890229 1.8641849273177444 2.5771407014917713 -0.6983028768545005 0.08005541069169438 0.048512345778090646
Ni 3.9280237383288266 6.827812837190276 10.319957166944832 0.8572340761074914 0.8381739741522468 0.7986890286837471
Ni 8.168463319330407 7.2603601709187755 0.39751815274292496 0.26088315290746034 -0.7355841298034622 -0.20920655046877518
Ni 7.578215215356556 3.810877945091031 8.092683422235616 0.8520263066543069 0.19806570336060728 0.027215126962211192
Ni 2.944267878137308 8.236493932451179 12.496087080663134 0.5085348947263113 0.45445662482466903 0.09688379510294283
Ni -0.039477960936670296 4.984428572012084 10.306979754707116 0.03123813207867523 -0.8037857264803641 -1.0807231046372097
Ni 8.692304452501405 2.339650539649881 5.854754975826819 0.29573599892058744 0.45469085232266215 -0.2742747437230179
Ni 3.5353278032701185 2.7277551750429203 11.424597707822906 0.2250766847318124 -0.4370420288926473 -0.2639517645304551
Ni 1.0408178674312425 3.3427728446001237 12.482317691783678 -0.7430570411417396 0.9307033489412359 0.806096891112044
Ni 3.1065599480483286 8.382360154245927 8.047268342556425 1.1321364261121791 -0.47453025564609247 -0.37729910450605986
Ni 5.404789568121097 7.902231080367325 3.6298571610428243 0.8530490914918663 -0.0768746989708676 -0.4730372160403337
Ni 3.0427327644839455 8.437744397757136 3.5024706948965143 -0.0760023236682433 -0.5341050298859318 -0.0068530183660914235
Ni 3.6190806861693976 4.530088350283083 9.33346276337709 -0.1291825072356485 -0.7335565578504721 -0.17583106033212298
Ni 7.13607937171724 6.0567451004109385 11.482025936607672 -0.21532140511726144 0.6616947387131636 0.07140673387776089
Ni 0.3819708755253486 9.240509240676277 0.2649134805915283 0.6832395547634749 -0.10216509810654018 -0.2440102884115217
Ni 4.5072851959514315 0.40385216182982575 1.6665443600986258 0.07351452424938308 -0.35717893671741713 -0.8954774358594063
Ni 5.83805852065756 5.530919515518041 0.6229437501391735 0.43342757206851157 0.34747816448988544 -1.7986735805193088
Ni 8.112294315365538 -0.18784008178346281 11.207648425349701 -0.9906486191466164 0.6788653369551791 0.6126200926736998
Ni 9.161942992959235 4.935998929762624 5.751277544835364 -0.17181885384893636 -0.8623112335200825 0.03145204786169421
Ni 7.935245140831662 8.905127879440078 2.5363466882540773 0.32430558302816404 -0.7671256520551691 -0.7509197317192681
P 8.544101989815875 1.7948283396373401 3.5137847757818745 -0.38249581821565093 -0.6461405930286485 1.0888765869822796
P 1.6725590528630025 3.1570191431951855 1.64284730046861 -0.4140532813069579 0.6114633533614373 -0.7724097832722439
P 4.955960710037918 0.8648628474149407 8.0081115019893 -0.8037469028226287 0.9117990558375652 0.8364793600586432
P 8.428191968786717 1.7991851131904206 12.097808522101316 -0.3469947970955637 -0.794821832418857 1.5970222166899721
P 6.34202807590426 7.545047810895528 1.471682927313677 -0.683133882423546 0.7820812449237369 0.48133982236875816
P 1.7983552515612624 3.239545274120926 6.042264014982129 0.42139532349432585 -0.6559532082436962 0.11611153298430325
P 6.841334169604495 3.8958305192585487 5.946416800861379 0.9511299922267038 0.08720333459038529 -0.6850164441582396
P 2.5002919065376847 8.536254385279271 10.211700815397638 0.3746526680221483 0.58585182344092 0.4821569189534147
