# total energy = -340876.7467197194 ev
CRYSTAL
PRIMVEC
9.20564603692824 0.00000000000000 0.00000000000000
0.00000000000000 9.20564603692824 0.00000000000000
0.00000000000000 0.00000000000000 13.47339349600590
PRIMCOORD
 96 1
Ni 3.2824296104781943 0.23518308469267699 1.979282031797472 -0.7863418199723038 0.6552559250663553 -1.0935529094120262
Ni 3.6871558409613114 5.966556664427575 1.113899747428002 -1.360890816805895 1.5386329781178016 0.8539137534850068
Ni 7.279014833566857 0.5288763353884848 4.9307364454674145 0.5717570359107508 0.16932616933406966 0.29121188579798885
Ni 1.3046978094827997 6.681807748923124 5.670237042901406 1.0842689130069392 -0.6829328221563336 -0.4065397465387321
Ni 1.524814013214901 2.9481910121299393 3.8468563099490103 -1.101907709134625 -0.19641274113821658 0.12478206417510769
Ni 4.298162189098602 6.20649262419812 8.6295871392254 0.13564523214185673 -0.09282016655653047 -1.4168405926986374
Ni 2.653297345183591 2.445949372582619 6.3172567991195105 -1.1567025454873177 -1.2281594158767235 -1.4681155888235298
Ni 4.067643605281298 6.505685327869944 5.837630670329108 -1.5074133579818878 1.6163779955087645 0.315157855090625
Ni 9.097470545859446 6.5258272815216465 3.1782520753364154 1.4407611080699767 -0.13314637697940296 -0.1073651542502409
Ni 2.059091301166207 5.538438887221892 9.435067363902462 -1.5389322545257753 0.5359305131304447 0.7147643648446336
Ni 8.171281286786616 6.603587374070058 5.408503033747012 -0.29377656120137147 1.8912325229946525 0.3510532834356535
Ni 3.681393106507031 3.7811823101562294 0.7691436984183806 0.5542069428421293 -1.4675972544262144 -0.931833348780621
Ni 6.900193291189722 0.5438916647309393 13.025053007528063 0.43110689435513494 -0.3191060411050956 -1.6125851041252355
Ni 5.9449878356314425 6.097801560776895 1.4365732925894963 1.08105580538628 0.4230426292897618 0.5905741686172538
Ni 5.415064818282173 4.08264880841305 2.6524669959059937 -0.8024019587589599 -0.017131774584280172 -0.06252023002140845
Ni 2.680205448713721 1.8816892953060875 12.46818414349968 -0.6235100001133261 0.2028708380587345 0.7485396615228657
Ni 0.04387779153814925 3.4743673315193178 7.274339285916172 -0.3460038939372041 0.06014761602417384 -0.5191720627251832
Ni 8.341788263723004 8.563322136953442 1.3609203724317955 0.409122933884876 0.7714505046827681 0.36861700335102965
Ni 7.56759342729334 3.4092926192871977 10.526950888134207 -0.5562990494844677 -0.4140458251077902 1.4478288135500355
Ni 1.6719294434287233 2.5116316574568835 1.3253101716498588 0.10980127449555929 -0.5822916168934875 0.12047263816647637
Ni 3.0050726993392005 1.265757926508989 4.22419206104672 0.9794283249507649 -1.0806099760981132 -0.26143645430776913
Ni 5.499047927589519 1.9131173710679292 3.9830446382503237 -0.45102317366308775 -0.02764424407982981 -0.9240701598954343
Ni 5.115015989523689 2.4259178866840343 12.276606363220798 -0.03751445200569023 1.35271907962838 -1.562123090819942
Ni 4.168417813062458 8.752792744841615 7.787608368918417 0.14918029051381404 -0.9901271994255076 0.23017261119748103
P 3.5059058750342764 3.002559557955784 2.846200738499881 -0.005451767143190611 -1.3746526464766777 -0.44686132897591424
P 1.0192123128435995 0.25748284178860115 0.5983099210456875 1.018770317083497 0.6008886631693844 0.45519993074859677
P 8.637013333928703 0.5530144600092008 10.774349865192429 -1.2823197039692111 -1.6400180035252077 2.1118709694494533
P 6.994284199907291 0.7858206468806397 2.611184276001489 -0.30555941276891246 -0.06308998648194941 0.17361322674519777
P 3.821484628751819 6.429895243585457 3.327807001764909 0.7256259901494858 -0.3315465808612935 0.26727414403546873
P 7.412064036550424 2.7487783064612183 6.102315089056341 -0.0802713833572424 -0.85085722604687 -0.6465298580472673
P 7.734178798994067 4.946479020851224 8.864077959331876 0.2544332835170586 0.25663466204375157 -0.38915728939622657
P 4.4164179188105575 4.636313187036425 12.248541109976765 0.5907752288844665 0.40990506346653915 -0.07075007413036848
Ni 8.774103815547141 7.902982731403232 9.324773597496428 -1.0372529492687168 0.6637256531002633 1.3585228307943507
Ni 2.7499382178689493 8.018614851978654 9.785874284089077 -1.3248922872240987 -0.3748269888164835 -1.249073026100939
Ni 3.689328373439283 6.154618808463503 10.93231138763314 0.415287153714059 -0.26948452142322626 1.1460211545140715
Ni 6.379310218303875 0.6525403821801363 8.003895944440398 -0.07559608936876012 0.20893067109956923 0.24436947152315333
Ni 8.100342577993192 2.4812898479340277 3.7902949792237886 -0.26770763202846154 -0.7172570493595002 -0.2899744138464619
Ni 5.674931001844277 1.7622828598324944 0.9452154884180474 -0.5929490966073337 1.2477879887409284 3.1505028013435674
Ni 8.450074278716134 1.59662725838717 9.115532023494106 -0.8558523652686164 -0.7611627496035148 -2.0190898836609743
Ni 6.732282306451588 2.976452345635754 8.340758151925186 -1.0831638528682184 1.0261175014771875 -0.8000141752530738
Ni 2.621804829899098 4.3018996814124 7.571791201911793 -0.042516533205971936 0.8571865106990076 0.1583953813541788
Ni 5.076564005792813 2.5350508211177285 6.272888346644599 0.3956938049631637 0.7739205634898156 1.5071071395953786
Ni 9.236116781667615 3.97010978492491 13.321507952051801 -0.4500281567396701 0.6493012501448173 0.13735270175126668
Ni 0.8056670992927527 0.7208849399045254 2.961451745327049 0.1290809486607777 -0.6158648248632425 0.09666756532707868
Ni 5.37715596767079 8.529482181915208 1.1299138893715577 0.6693098320562602 -0.03062595241597306 0.9429130036335504
Ni 3.0756892105193665 1.55962056109291 8.430113676292466 2.1010036877176463 -0.3766696984521771 0.6366653065483616
Ni 4.909205359820265 8.620682517759544 3.689998544474861 -0.07505152971919977 -0.13339063177972513 0.6512290632951494
Ni 3.723462909152496 0.627311388497388 10.731193796307977 2.089544795148427 0.7472294273518745 0.6123480699592357
Ni 0.47791571974630487 1.0438742387270128 5.658340586455293 0.03043003435508308 0.1639214533787306 0.004011435152238253
Ni 4.740852504069661 7.087040289941362 12.848187690835172 0.6194389153677461 -0.24325695518526494 -0.36188148439940904
Ni 5.926576543445244 6.526987192929377 4.566079630733731 -0.777394638081345 -0.478402337006989 -0.8968696882212425
Ni 8.65630836813984 4.374108769366672 5.087472696413135 0.03926614458947431 0.07657619389384232 -0.7264554280293166
Ni 2.5659909976366357 8.726133193755999 5.974560973705525 0.059578888004897385 0.4500260998571411 -0.3172049674276408
Ni 3.2717602666562917 3.3797885235588137 10.431141285291057 -1.6528362383357984 1.4838078027478059 1.1807485306929277
Ni 6.06488217034797 4.207514192019851 4.879510707217754 1.6067540992657554 -0.1434708988338626 1.0348481964819662
Ni 6.128686503419243 8.208821911554274 6.310749327896299 -1.8936311051338162 -0.9917752765518919 -1.4396025689855012
P 2.453102159596957 6.98833735253115 7.588188298732821 -0.1371542125872154 0.18232232448342148 0.25640583386239707
P 7.295907194147695 5.342073250409988 3.204889532871408 -0.18026672750597342 -1.0574214537967919 -0.02216470902249731
P 4.660910673397186 4.790562992972399 6.8491323340051276 0.9882022144886531 -1.7222423968437628 -0.02809264447115807
P 1.5112264795814863 5.259903653382982 1.1320044915993006 -0.015253326614644697 -0.8625030378159145 0.9535038917755191
P 1.4179640790122956 3.656924499191573 11.746670457966998 0.23630906311252203 -0.6385267852371326 -1.2508488870544394
P 4.921089848926456 8.077853184587749 9.855302346358625 -0.49676849821900254 0.566514813675205 1.3139453012942919
P 1.1200877827317834 1.8306439877198513 8.11040342860834 -0.6242844163855056 -0.20931325124996855 -1.0215807899490987
P 7.282918027510331 2.887617860837344 12.602850778501805 0.4979416925914973 -0.6079627964073465 0.32601768062326436
Ni 1.4807097627828614 0.9332591952723298 10.166564572623113 -1.0172785630293188 0.4607612268864581 0.3329046375510847
Ni 0.4402904030345887 3.4221437012331646 9.686143996574875 2.8032035856337076 1.8228280662783252 0.36787626853026323
Ni 9.108121478389162 4.030756581386249 2.3073721791201462 -0.33889042282087445 1.2259600942325595 0.0407697257181943
Ni 1.0303419389701567 8.708918635561904 7.928971190888661 0.5601251080987772 1.1597202492677188 -1.438724537255922
Ni 3.636948247169547 4.281058098657623 4.658183040459801 0.4202542679113471 0.06591794284904777 0.22767452736597563
Ni 8.453112141926855 6.066382690661146 10.648925698867776 0.6800763265441448 -1.2267712772799453 -0.3622751202934019
Ni 7.327896814321216 7.789256179569081 3.294325146359697 -1.6822851397245349 2.010149129527919 0.19209277360662402
Ni 5.657467891205668 4.684173341074448 10.11300796478268 -0.9506646225545111 0.017585831402563264 -0.3688797700941131
Ni 6.5457667109593 7.594823728436728 11.252924709199 0.5969147661233011 0.6097412284640079 -0.3943437186931725
Ni 6.438447288805946 7.468273711594889 8.600929042372972 1.213834257503303 -0.48270302126487197 0.48116653001568743
Ni 6.882868265242508 5.331008063806082 12.060210161074918 -1.1998214881639786 -0.5120195108408021 2.2876683483301634
Ni 0.170078914393059 1.7014887730336656 12.648929640020814 0.3027623096397496 -0.4865252232244395 -2.2781524384199283
Ni 8.486307701738571 1.8324390887080055 1.216911847774394 -1.272780139909892 0.45672125248912954 1.6679496969384693
Ni 8.697273493254132 6.240728422018356 0.8907999937971272 -0.31874300133872197 -1.017464710898196 -0.5938659519946482
Ni 2.498798986803103 8.26624673188303 12.503160995830413 -0.21587984872389274 0.4174237404410876 -0.17293908349630863
Ni 2.288155392900801 7.950585127350649 3.6578376992840087 0.3423948364297071 -0.042359695913133495 -0.04691800470777726
Ni 0.3475085371914579 5.967983539572005 7.670457316737633 -1.0062806692569186 -0.01665097829311971 0.7429678238620431
Ni 1.6964901072051128 7.50076964230353 1.3572427168176022 -0.19801608106959445 0.011898294099482733 -0.16311027033134487
Ni 6.692780879066098 5.792717243605485 6.984836445321944 -0.6070945348697803 -1.1651781870584965 0.46713524873360196
Ni 6.285431039446448 1.0549302196848254 10.547780503549063 0.7412426136408202 -0.4927303235938869 -0.6269575923422945
Ni 1.5064763661974467 5.806737442605275 12.47521725711481 0.5958647275922319 -0.597396590855726 0.4992601542926047
Ni 1.6634418377308857 5.262462822996864 3.6453474786648914 1.4718640001223684 0.9521512344023667 -0.9555594887529673
Ni 6.874113695807971 3.9618799373176787 0.8728324137526157 0.7954602373338043 0.08871540035953754 0.3323179118096793
Ni 8.83733739856064 8.380810997511652 12.45341736660174 1.0696017979130676 -0.8095606812909283 -0.693092793408471
P 0.3266614310490249 8.341235924957418 4.530212592425797 -0.5909202391027629 0.4939690810969945 0.13755607601132439
P 1.1111030721449182 7.1550331919849945 10.9473073851188 0.3393128550702737 1.116381734381084 -0.860232239503867
P 4.581401508091086 0.5340075625207785 5.805591339666685 -0.31413121359832347 -0.4824813921723691 -0.779483916510206
P 7.073949861196974 7.367057632801261 13.53105975632746 -1.459404434202777 0.0260496458992003 -1.7703130270987446
P 4.4127172490811315 0.5276805219609912 13.058938070232152 -0.7025865918315191 -1.056310223010484 -0.009226146583958305
P 1.5731988890802315 4.3271323573535865 5.589410549639384 -0.3780858620734134 -0.04396920649209847 1.1739240515719267
P 8.020787384456625 8.160878906701413 7.08002558761842 1.6289211222810978 0.27438170161452746 1.0850389584037443
P 4.755636771695179 2.364994920839902 9.550992224023645 3.0961684495670614 -0.6336715140273602 -1.0565444505084771
