# total energy = -381161.850606275 ev
CRYSTAL
PRIMVEC
9.25437401045477 0.00000000000000 0.00000000000000
0.00000000000000 9.25437401045477 0.00000000000000
0.00000000000000 0.00000000000000 13.54471181076653
PRIMCOORD
 96 1
Ni 1.6903391356455162 2.91525730470475 0.5036165435247931 -0.3583462175526409 -2.2766897378314725 -2.8678724865670024
Ni 2.7754422255035736 4.474480472510561 13.016616369463938 0.9002823134472172 0.6946197715759586 -0.949284454377533
Ni 8.53508684043845 1.7315488621270383 5.774246165898844 -0.6041606490524369 -0.4044427548003873 1.554617526471516
Ni 1.976965600632201 4.946416518244158 6.365879207654147 0.630509828469927 0.5732801574234965 -0.1893085259932675
Ni 3.1826994528272543 4.561443823003906 4.234022227481437 1.8008109385772857 -1.0010834413266954 0.370569241981394
Ni 6.728022288194811 0.5372700738077609 9.933068277409877 1.1116524472262144 -0.03609288906781526 -0.09045218054498616
Ni 7.4974679424907205 8.748659278736355 6.024118885383313 1.0478518078304855 -1.6823162500727864 -0.027540114401797728
Ni 7.154250981785529 5.841342226742395 1.7598376319246394 4.751673492984274 -1.451218555957875 1.118429618049048
Ni 2.50097600767537 1.9671559644160739 12.048901309367281 -1.2996533101516519 0.058334731185151145 -2.1402592907841593
Ni 1.0355274094714604 8.454462735990433 9.05875761196357 -0.9071985809510764 -0.5770218838541159 0.1869395115404587
Ni 2.7155571727162546 1.554429402183213 2.1952864581211387 -0.29601213540010957 -0.6265976378997143 1.670554224440852
Ni 5.823425759087279 4.777052223535346 3.698749247537299 0.0762020983838752 -0.5146361225280427 -0.3296383080949871
Ni 2.1631543468890495 7.945120511402509 2.967375161571129 -1.210421118056696 -0.43698906416752487 -0.8913695843386198
Ni 7.093921719056348 6.888141463488612 10.345979001681135 0.07817773405300729 -0.11580325771526509 -1.1861910418647377
Ni 2.1661712727441977 1.262435400399025 9.453354855944173 1.8879196565713356 0.635300564990351 1.831553619076781
Ni 1.2409559988352221 3.73247403649844 9.716624206925308 -2.717899010727932 -1.0302929730111159 -0.9280954790047435
Ni 3.792099966819672 6.768426884156708 7.296034466291583 0.6515949312750003 -2.335887588347868 -0.3567246227888179
Ni 3.781383401972243 1.2837852407297845 0.08010771039060248 -0.10867950218629024 -1.6783631789623097 1.6969519977080905
Ni 5.896812943232455 7.891546941539151 11.989223554552833 -0.39708220067025807 0.5553248584966565 0.2914898220497238
Ni 3.074941524430477 0.06476025689925811 7.500316438742913 0.5721606991070727 -0.7883773623450939 0.8080591570447373
Ni 4.939966219713365 8.291548739812413 6.08269999690379 0.17301030305387624 -0.14866092767523428 3.0740867871766735
Ni 3.8103218288098177 8.849707786136252 4.382323567446941 -1.895082492868362 1.471443367645182 -1.6999097947848336
Ni 7.734500218343231 4.620597780261909 5.548848488773611 1.6547416828886277 -1.5277757236883236 -0.29646567799776036
Ni 8.02940934787089 0.28356604357472887 1.1602347234624224 0.03343359706809726 -0.7565118810950648 -0.9120402253140937
P 6.761495358188897 5.903883284807098 12.53400540356496 -0.016242172890475255 -0.9922077361036203 -0.21760068806974137
Ni 5.536271794794633 4.821362165236115 1.1730575837841823 -1.6445359460002194 -2.188961898196185 -2.1416962803410016
P 0.5089998127577375 3.7173431353537536 11.970572289618886 1.9005244898195395 -0.045646594194521384 -1.3203902855886873
Ni 6.363733118372524 0.5855751286731554 2.6257369970343074 -1.6383964087613847 0.7085476945109603 -0.26387797386972617
P 8.37865090591259 1.2295731190749994 8.407933595455107 0.2369433542624113 0.10677688584693867 -0.6804905312634281
P 6.241640164976897 0.6834216227421279 4.868267033347266 -0.27567959449034457 2.510110423652606 0.15241011030502138
P 8.27208679173457 4.422184006230057 3.10968984713266 -0.06785012687475411 -0.932782857178084 1.1824637136118215
Ni 1.7093661281552872 5.7373971003466036 10.882796536610623 0.8310216793781816 1.4772322064128172 -1.2079824267082162
Ni 0.5171344073180919 3.3572369424840045 4.803997258258813 0.7777592205096153 0.6030622737819356 -1.1567429118069497
Ni 2.3763010839926695 7.791488652134656 5.901945418935724 -0.052983494175566824 -0.39136303879829376 -0.9663959172468388
Ni 7.9450742395335645 4.0759593740435065 12.960947609374797 -1.4925264135677263 1.7900989514764203 -0.5618773149031936
Ni 1.3330555267813506 1.900496710015354 7.5878831744072865 -1.8162619830250333 1.2670920883861791 0.04844729686811011
Ni 5.913850245377635 0.9191916020098463 7.19935309788262 1.2688491802866018 -1.1434012003927212 0.2052326534226917
Ni 5.814189894046058 4.879877570702693 7.8246035778631144 0.5137205526923088 0.8997734921315987 1.5493295385996992
Ni 1.3994186412208285 0.15599357545875484 0.842349760129311 -0.48551143724794443 -0.513546746118606 -0.2673885581261459
Ni 5.304533020749315 2.6937261049484778 12.84832373123987 1.2705080560462634 0.39765170002048283 0.05304520065143767
Ni 1.8434157324860416 3.724182117583676 2.371557291988531 0.00024168369716087408 0.8924041962507211 4.394721327565683
Ni 4.065973904725392 2.151475327167585 7.427974073398492 -0.5555189767853336 1.418079607312061 0.5666377124063146
Ni 3.2146548055199773 7.583792741192639 9.234920169657634 2.0797463210007665 0.8229772118071503 2.357998561314294
Ni 0.6162663339063286 8.188815936382953 12.29816416561907 1.2699935783036902 1.1199398840459873 0.3322340938466214
Ni 8.11710379389355 8.165337590080771 8.272541181487599 -1.3194106952842373 -0.46322794325939576 0.8349909484385749
Ni 4.812061519578373 6.638911922982465 0.10223214180748443 0.42896902207652576 1.0869513449351087 -0.721311679044848
Ni 0.4019304097708479 8.118575239325969 4.681973712666603 -0.07365207826851186 -0.054410456430080495 -1.086924091241599
Ni 2.4739902537072327 1.4796633163435053 5.73671320212361 -0.08270030451370919 -0.1240302736107477 -2.2642168021754427
Ni 4.189667864786481 8.701859910486398 1.9222111726733921 0.14897434515059507 0.2949024472756986 -1.1331054748936678
Ni 7.150771337240941 3.16361693407475 1.3686524755599663 1.142907034365122 -1.1451359236956407 1.1110832049863058
Ni 4.683999495088972 0.5062892066749983 11.394583766753549 -0.9710249313784179 0.9164411825952667 0.3581338444315187
Ni 0.1626095272803673 1.3954670236130116 10.9234167594818 0.20393938853256488 -0.8733145266091218 -1.7752356612113427
Ni 6.553938262853712 2.8646914063227515 8.439330909408367 1.8705816795135204 -1.841480648382506 2.538167329789822
Ni 4.924964879801721 4.891056854239562 11.99717398707479 0.43790771932705225 -0.48951387353911824 -0.4333869486385633
Ni 0.08731779300945586 4.536327452541105 1.2651191687977765 -0.5043781922454603 0.694578891035694 0.22675458665486756
Ni 0.7186456202570549 5.820982604407035 12.886330518953088 -0.13840402583391648 -0.052885792255437956 1.2326634743946643
P 5.829977855729749 0.537778138928766 0.31219074714086326 -0.7390538335196175 -0.2242829851859234 0.8727596825469163
Ni 3.12562772967173 3.895202945200683 10.615423796291536 1.7880960621137785 -0.4327156336031516 1.0936845498938843
P 3.8765276188948863 6.81879844068914 11.59879725683884 -0.7021819001939326 0.3528972786229277 -0.9475638721420002
Ni 5.668017060051977 5.879701606096966 5.854538963765221 -0.957156915147074 1.3362686473818406 -1.959539020680535
P 0.7390496635865992 7.069841838457893 1.2657577205892039 2.333204127978433 -0.4690332370872632 -2.230327348516849
P 4.668100480919815 0.9106211264440395 9.305108116784023 -0.9609585482813515 0.04412038735798208 -1.3516145337102916
P 3.747151473327475 4.226639088072733 1.7894053561798524 -1.537369795134662 -0.14158396622379488 1.07892796041
Ni 7.442737575903762 0.44964966277541135 12.506292255817025 -0.3152200757871281 -0.5997969727671025 -1.9232193603138943
Ni 6.881330244380056 4.584764844951679 10.188237275013675 0.6497889884145132 0.3125278736669456 0.15804931086866972
Ni 4.088702646750683 6.55756597737892 3.0363720707908994 1.5515674267912827 -0.18009240671163823 1.5768421421976713
Ni 8.815549892481794 5.454268788652084 8.814790108393733 0.0044567502197729696 1.1435603516784048 -0.17145478564129826
Ni 8.56251680434845 7.665036888684505 2.4839646177767998 -0.644028174671336 0.7176547990185511 0.690053749471831
Ni 8.009447663608452 6.298073336340995 4.190381377005597 -0.5329801722528691 1.1703144798437974 -0.21759297476025752
Ni 6.360318254444457 7.677363714571185 1.539410478961371 -1.8107839906295977 3.701695897060038 -0.1457542955514006
Ni 2.2619910589534236 8.635459778551764 10.88301308895728 1.0899091420118519 1.2860935691893465 2.0622962438451196
Ni 1.2693669263668355 5.593297246081213 3.862559067098073 -1.536366036460496 1.3849154618552666 0.026740244208321686
Ni 8.431160222790236 0.4387396815157961 3.647523512304159 0.12444807787445662 1.0904562727645735 0.39727014831134805
Ni 2.987311859024339 6.1564258911296355 1.1819778746792058 -3.2583124993303945 0.1729552814462247 0.2644952957387509
Ni 9.011946213027688 1.9727363518107197 13.062195085811153 0.6552255860490521 0.1191580331201109 1.2367504999798442
Ni 4.442025383633242 1.9540054992621905 4.171161893521019 0.3965826353260202 0.2006568611265512 1.656932005671727
Ni 0.21242767226023046 6.692975974656628 6.279098168324441 -0.08246144903002572 -1.827342409208911 1.800387477886622
Ni 3.505232888114479 4.337062276120683 8.19119153413454 -1.4209386740274108 -0.3282506837188411 -0.5429413972306392
Ni 8.093468123236958 7.348130112660869 13.218337656687908 -1.2179606209668508 -0.20703756784191443 1.7674393050953754
Ni 6.293362860082496 3.21447897241799 6.3544204420288555 -0.39177081575967365 -1.9521643254830185 -2.6996570337986086
Ni 5.203262408378487 3.025365844043881 10.325837782567193 -1.0327692024657504 -1.3385173342067012 -0.011758168977192653
Ni 4.6924024664892015 5.561601015854576 9.666589509598788 0.1615274992252573 1.5890636239645277 1.5053639316520266
Ni 0.13771988897539222 3.8843938366153656 7.164055065377383 -0.6558493356759801 -0.4660651555978747 0.2755649232893512
Ni 0.6206593851438716 9.016119935606437 6.924585187468902 -0.1622234968510174 0.855511951210062 -1.3608437656180434
Ni 5.0049134149631564 2.567644516449879 2.100175556944135 0.018121906411691372 -0.34493842878716724 -1.2227912095862747
Ni 5.881894892684912 8.032241186250264 4.168764085272341 2.018687763126549 -2.8411708089061007 -2.9239467038527516
Ni 7.202086839899832 2.519429229010236 3.860636008224761 -0.15314081782345884 0.9334711414943601 -0.06408963139105736
Ni 7.303320434775504 2.5432962590115484 11.337695280199043 -0.132308711569456 -0.1378185856440917 -0.35753194918146164
P 1.876555645023731 6.361882243614764 8.469711167682236 -2.578079592603728 -2.6763795513279067 -1.326076537340187
Ni 2.8578339153452514 8.04528985329247 13.11465350363296 0.5356276371780453 0.11311491224982455 0.3072128892119354
P 8.434130876776441 8.427902683216578 10.845385730569404 0.04150583255327046 0.6081453447317979 -1.1218895515731904
Ni 5.445578931664402 7.993400579458673 8.655097559731596 0.47194552563805164 0.39626304720307237 -0.302795219760214
P 1.440341482114898 0.5728966365825007 3.951791590044431 0.6980758484453591 1.2103722670966317 -0.38041399598595776
P 4.353618350828845 3.9652400460343142 6.063561026471175 -1.5539343843615625 0.4550451503382873 -0.23092825841658296
P 7.4999758777874845 6.146329369326057 6.978086573216708 0.21685172571885877 0.9882150700044593 1.7333786159662405
Ni 0.0728809698989293 1.8781566516891932 1.8340216176530315 0.7972309560809818 1.6304599275231273 2.3047921524946435
