# total energy = -340888.11495126 ev
CRYSTAL
PRIMVEC
9.14356936131503 0.00000000000000 0.00000000000000

0.00000000000000 9.14356936131503 0.00000000000000

0.00000000000000 0.00000000000000 13.38253800644244

PRIMCOORD
 96 1
Ni 6.852355472481272 1.8938800935507665 11.483917158186085 -1.7140804298582608 0.5936911169796807 -0.406887359686138
Ni 4.757892897591891 -0.014975337919331838 5.805813610167316 -0.1793017924895428 1.1449034959698605 -0.03270906019724689
Ni 2.6888220148517252 1.379920059086459 4.554385388410808 0.5298498541540035 1.7182116784178152 0.9615930965415569
Ni 3.78615091889186 4.657587941568523 4.920010211291572 -0.6032445649960708 -0.26935519493421356 -0.03214213195018335
Ni 3.787092706537294 2.6976272721580608 2.4243534143029684 -0.35259260289831534 -0.1070897891016672 0.12336872876734882
Ni 5.50452934189454 4.293472721991266 2.8509091547724745 -0.7310952407941732 1.0653630772413718 -0.182637284620679
Ni 5.2991281994962804 4.690705949838043 11.256587907717156 0.316619527237816 -0.6003507883880436 0.44975664824583833
Ni 6.242799420220766 8.178758220026731 12.279027321163507 -0.9263844098509078 0.811397734499667 -0.12184637858555143
Ni 2.0203996629669314 6.9199264501487905 0.1739408632560907 -0.1649655783725288 -0.6696597591965112 -1.0681434681999862
Ni 2.4539328612250824 1.5117063244615536 13.869662765167899 0.7678756428473162 1.000698804293767 -0.8641642275684213
Ni 8.18090695882942 9.31555991305072 6.469132021628022 -0.30449214784666273 -0.8205868571981029 0.2296329366439271
Ni 8.814501454971916 2.7433085447462777 1.1358964796560476 0.5008740357469438 -0.04692031870062242 1.1972915226532737
Ni 6.814875981620762 0.7770955025984602 4.573884050099034 0.11121460990331813 -0.1818780378571513 0.17518597054895635
Ni 0.6579401639554239 7.608016619755213 2.2556536450115625 0.051634179236523976 0.9344941834422358 0.23708039406090783
Ni 7.803176964455553 4.249327569057737 3.6272704287502715 1.2836165684037637 -0.5675021172891388 -0.12980779952447322
Ni 7.634066648899293 4.08886707012847 12.71709115804605 0.8930492860338879 0.09245815523142141 -1.3457783866444886
Ni 8.455131747899319 7.493923161117148 8.814381674213127 -0.21352060446309679 -0.5855525470329463 -0.13902083348230895
Ni 7.159615977696332 1.0328301656819918 0.3156351004039218 -1.7420208650222708 -1.4188992749998788 1.1496875476220652
Ni 1.876973633779827 6.774571127823953 8.986575201362012 1.3927735244471044 0.6252413809821361 0.18286585569171732
Ni 0.2854064600563146 5.265726740576193 1.092815638197552 -0.4980951874502261 -1.1065056129179525 -0.04564170909851494
Ni 6.704183930789507 2.030375297153029 6.981857674226955 -0.9080516729799911 0.23897272598761424 -0.9385837801305771
Ni 3.9690314499240715 4.670416369399042 0.8178922804275448 0.09932248645142248 0.48611384671863384 -0.4343089462322004
Ni 6.245323045367753 5.792853514937825 4.67592536994636 -1.5224373421945456 -0.8595586104756099 -0.15669408239235594
Ni 5.361679357577945 2.747322571701087 9.270217866886245 1.2076924062716232 0.19464073683945834 0.2326275004958768
P 0.46676732985870995 5.961908969077846 12.389299682160537 -0.6143337329306968 -1.280040163906415 -0.3201655927178615
P 4.474807989799417 6.223387622441585 12.666438526789658 -1.492595576242765 0.25420754065949763 -0.7542752784550623
P 2.35835513056763 8.690194629344052 1.2796900803319522 1.1701584138819072 -0.41712317848153324 -0.30070414155914016
P 6.53287001501432 7.659184033967315 5.632522854693656 -0.8289542553261918 2.2018631796388854 0.04185833079668275
P 4.788386701451318 1.3124862349595376 12.648371748065266 0.9704094092816061 0.6001972935293147 0.04960686439385005
P 3.990555412228448 6.252519034464415 8.43575012389907 0.9387010224347316 -0.12461005737361765 -0.5017932051271036
P 4.684936357563592 1.14963926442388 3.6651293777397655 0.7683338134306574 -0.6866130992213982 0.13465252921128423
P 0.405714802797304 5.820256792349132 3.2452255839892197 -0.9485915420755663 -1.8415539248226025 1.8854025465764368
Ni 0.56730270383028 9.161765076194472 4.659090230016531 0.3293655140495747 -0.053443207420804724 -0.5949149620844528
Ni 2.01186871274179 6.621855232153737 4.527995218486046 0.3026008443612208 0.13301062273248704 1.190325889968718
Ni 6.140428017519068 5.9096260394022195 9.23290753205914 -0.2526777342785326 0.9632745980090378 -0.3743353938920457
Ni 8.743309623832634 2.6101141696877197 10.209645557064656 0.6422901089343068 -0.7226360542832264 -0.4624136748882165
Ni 2.4582669131079515 5.39487051440245 7.128088036140802 -0.5060391248876511 -1.1802440802526835 -1.289961793895501
Ni 0.9330921109597599 0.04578642363600816 8.988221043849176 0.2554483550451343 0.2901947573873841 0.38059371609693166
Ni 1.5733431256059034 1.2238759041644192 11.480089660046486 -0.04850977467492936 0.0234011525327597 0.23954119689657458
Ni 4.0061634851484005 7.026842206828939 1.408084081469611 1.7114445348973106 0.8972692376525063 -0.09123276746475255
Ni 6.17011718727366 8.292001326713093 7.755127507399693 -0.10296728229286138 -1.3794163864139082 0.011650439754734775
Ni 5.383185032743574 2.886542558976546 4.9718140179320445 0.12017696130292851 -0.037688258579393154 0.03959755978696406
Ni 0.7630482369705022 7.699552892749736 6.781801862484234 0.19027088990653682 -1.0266949712472124 -0.08231001105382599
Ni 5.226592263659145 4.508840355006251 7.319163948402161 0.6433159790956597 1.1115999967217243 -1.016636815680262
Ni 0.9843966787124592 7.409034263056898 10.950034200414638 -0.8692334145612127 0.5049291796529239 0.988774284942039
Ni 4.988740593555605 0.41923448447243167 10.499189482262317 -0.5083608310422921 -0.3041540477809536 -0.27357231833935464
Ni 8.362553107996257 7.128911871741322 4.57473988819236 0.6701469832455749 0.6689527058271575 -0.216984137531665
Ni 7.561987891530816 6.091052742904102 6.641874162939294 0.8417879167557502 -0.2370837364950175 1.9547415992918915
Ni 2.3874865425904597 5.641372001132982 2.3457315186910703 -0.21302103911885892 -1.116750173464096 0.507602355609713
Ni 2.5210100861464517 5.29624797514374 11.307107042860702 0.8185957949100031 0.27794730747859875 0.44642244166628275
Ni 1.218974950980415 3.3799204187819107 3.6115855498475837 0.06612465954321516 0.23722591849983657 -0.5374302376044229
Ni 1.2387616351038941 1.059447096127208 2.4373619704501372 -0.43190856432082386 0.7562275170854267 1.0428075605383589
Ni 1.2924983923098494 3.3558545441918013 8.366160246113962 -0.669571313247763 0.14214369538200683 -0.8205038105659934
Ni 3.7443830939953475 2.8355122983050407 7.094096816996147 -0.7269717055441028 -1.4276027163111475 -0.5855844287121463
Ni 4.202695365254713 6.798701007399675 6.06322611823082 0.38969799239104497 -0.12804350853519883 0.370331157828659
Ni 0.5080715757880039 9.174931816091798 0.35896373259242936 -0.4239530569191731 0.9379242921697072 -1.2663888916715673
P 0.38221308643751734 5.6667271190047055 7.985347040147472 -1.0032984467001431 -0.7331220414162148 -1.05887335575197
P 8.857649958843773 1.4862414837573534 7.994460435741683 0.7864207528393553 1.8818544242138622 -0.38966071139520636
P 1.9100916420493472 3.2255403934857827 10.594687663866223 1.0343437460417217 0.6204820119202799 -1.6903301215161985
P 4.228306503068883 6.357487210868085 3.5242379459828963 -0.7485324624340141 -1.4972826973057891 0.45195725544158294
P 7.376291141131676 4.329992138067595 10.310000802719575 -1.5628473705804762 -0.04482846916860021 1.1388392920536516
P 6.8895057948443466 8.210221242239713 10.085200663539258 -1.1743860788100096 -0.569810196597025 0.45118438183130033
P 2.5567522988260634 8.377484556782598 5.787746831442925 -0.14716454563536593 0.574774739691152 -1.4591799768967968
P 7.173943950904046 4.3175934579976145 1.470312471552403 -0.10443281109479434 0.4062751800234358 -0.01786505320587891
Ni 5.6643772216758075 3.133729813410065 0.34132030113001477 -0.4989004569603408 -0.7944083990305222 -0.40723651549544054
Ni 1.6433645798654242 1.1333728545090604 6.715893185728752 -1.3534901534664496 1.3350278329962042 0.5159337582935437
Ni 7.060170517194041 1.0261096421927327 9.002313112967062 0.9374964606036692 -0.9468622180892853 2.611018509423593
Ni 2.9474295874322984 1.8171472593713596 9.316320658022565 0.29165900063773637 -1.7054060420127144 0.07724545204672503
Ni 6.366603349533108 1.9978790516008826 2.4221726730074735 0.6026560394824524 0.10622744110137189 0.49421230745605205
Ni 4.265365389738228 6.956198989852044 10.556935694638396 -0.3766504151784675 0.7440116917455251 -0.05414666124573256
Ni 8.314000754624873 7.39512689404035 0.23387604614009866 0.5988412937220526 0.028915911703401815 -0.3232630006962626
Ni 7.460914875680105 4.161238421716888 8.143234538655138 1.5650937434124919 -0.6988050133018997 0.6694700117832084
Ni 3.5556506785643256 8.674906581352158 12.539986619786854 -0.3146495479956387 -0.614693944483593 -0.5582448603569289
Ni 0.3392767133751175 4.949441532389841 10.218811985361231 0.0679902519970442 0.47547976404355535 -0.20066071778129313
Ni 8.660523746728206 2.5799769650338438 5.445782823029041 1.116200214497897 -1.5732981336001548 0.13643893168774568
Ni 3.432431937691865 3.094741633602988 12.40870416508422 0.9272382732107708 0.0062536942191956804 -0.9161195375897899
Ni 1.0809984891397035 3.6067632313601887 12.462889871546395 -1.498471575407568 0.07685747257968699 1.8164848976691166
Ni 3.098837952682155 8.833940683459216 7.785559134987384 1.604569432909611 -0.6899118245773279 1.5236347049367565
Ni 5.492953583068143 8.09514027810935 3.418649835575728 0.09237845103342156 0.3755481832532242 0.427342027996064
Ni 2.8971948172962567 8.65349234188026 3.340656103179765 1.2468297385927172 -1.5447061808950753 0.12252566404076316
Ni 3.6461903024971765 4.151354223224522 9.099564116819801 -1.2836646480328795 1.4902196198114206 1.258142078281743
Ni 7.6255997036597645 6.438234072002301 11.249615936070136 0.46944229960022377 -0.5261929741277066 0.10337248815108005
Ni 7.736099739534184 8.908506491697189 2.457034359956452 1.7333804157384534 0.9239858277117442 1.0732026278904485
Ni 4.593646960942142 0.22699916761455863 1.3661699594631282 0.5720948788661437 1.2620421846670975 -0.11454573115908015
Ni 6.420577839542764 6.141479527996981 0.12603130281163896 -1.0732517359608291 -2.1409537457480226 0.2806433662535231
Ni 8.462080860622907 -0.010896391621973226 11.406003889200605 -0.04135105214296104 -1.0435133283561318 -0.8035615262847
Ni 9.459479694983974 4.865997318290548 5.534255085926625 0.5459331328691114 0.3081410574531596 0.4464612653240182
Ni 7.213892205495304 6.474140868930629 2.454237342085208 0.8011099794204138 -1.634041988447431 0.2447525658941849
P 8.563912792731589 1.6664978103794732 3.41519722378043 -0.6851797092089812 0.6121102429168167 -0.08398457054277149
P 2.1195068114024167 3.5876897456478147 1.3143917548169004 -1.0537684304252368 -0.011982112062540655 -0.3459997801721461
P 5.026914995688473 0.8936083496926585 8.220049664958903 -1.593109254788811 1.2417705789022548 -0.9735168445623362
P 8.725187069335066 1.711529889542197 12.561506010306543 1.6789545326894053 1.8013912365607878 -0.5986466612127431
P 6.391510432505545 7.999041363997627 1.2330459898887431 -1.668829271329945 0.6449483724927602 -1.186666953059892
P 2.026946458638101 3.2257141213038727 5.774966864530085 -0.32648870672241187 0.4572670976902706 -0.1537943922470577
P 7.161554414403438 3.9620823372004836 5.988779176394698 -1.222203712513921 1.1879504477580058 -1.1917551662160766
P 2.5792820537614847 8.704376305441794 10.380567213713736 1.5726167912624143 0.49928355133137237 -0.15023444280994128
