# total energy = -340855.33112809586 ev
CRYSTAL
PRIMVEC
9.35450654910738 0.00000000000000 0.00000000000000
0.00000000000000 9.35450654910738 0.00000000000000
0.00000000000000 0.00000000000000 13.69126590263431
PRIMCOORD
 96 1
Ni 5.560973352846255 6.927582530921955 9.163057897462005 -0.6827867834967725 -0.2769170664418715 -1.3380018280228634
Ni 3.611110707732748 7.8788329208114085 10.422161347476997 -1.8232566691753116 -1.081981145414027 1.8337593684788485
Ni 3.242440260428386 0.7154878324700377 6.751806680523016 -1.438382066314839 2.5384462944828217 -0.7986432630474762
Ni 5.6802900805458085 5.495332782225496 4.81996923357527 0.10261786937324263 0.396216253125537 -0.2356097230526523
Ni 3.667752243304743 5.707043968528617 1.0287627644399249 0.8890640761338946 1.5429313483828395 -0.544548593816759
Ni 8.575032696766847 6.271279724283538 7.154520982560187 1.7682700285267872 -0.8317870967892964 2.5972965318518106
Ni 0.7735737038128532 3.232571256294868 9.466989548551743 1.2942323962463969 0.6367938617064258 -1.1991753699395478
Ni 3.5658910243380286 5.699962607268832 3.463205673367368 0.6861202187453797 1.4866961800391945 -1.2494216676896097
Ni 7.91007697181231 6.846918623203158 11.330603645692698 -0.9113982208547207 -1.6063578922686013 -0.5754640524486928
Ni 8.43498638313376 8.912215875906826 10.814935551132862 2.63186964184099 1.5117178988945126 -0.6735593513612336
Ni 0.42754116172471457 1.4885264585232345 5.564376522233718 -0.17430305372337077 0.7938561260714779 -0.01845692115360692
Ni 9.100222743276927 5.373836454560909 9.581503672723192 -0.1497724155718582 0.5859086448207845 -0.546380247708859
Ni 6.900033509904693 1.6259628649020548 4.140197841562282 0.42984499692357586 -0.30125590029755217 -0.6783313188285801
Ni 2.4837898004962935 8.047195324977348 5.693786762217695 2.056254922747046 -1.3199264585783912 -1.1675914244856795
Ni 9.222804193670887 5.265137091497889 2.085480535469998 -0.23358832174724933 -0.43024994567147834 0.913020329839176
Ni 6.725983565915834 4.698553354664757 10.316382461276996 -0.5770506802095223 -0.7971178275418852 -1.4575416699624253
Ni 2.9315713074756946 5.969587541999075 9.425628599000698 -0.6765986524081895 -2.5269532062415574 2.1219250112513457
Ni 3.6157318338388693 6.755038662445415 7.5380136450774025 3.153423317424472 1.1791621600424143 -2.112990170655561
Ni 2.765257540186759 8.656052075724576 8.378493584211737 -0.6802876712240026 -1.1796799802190974 -0.6864138387263985
Ni 7.146908285343261 6.161878773248941 2.821304129158857 -1.8954553028267487 0.9622710964451878 -1.4110350417604536
Ni 4.8881130700786155 9.141850296257171 5.503163439438926 -0.527711210544446 -1.1958051679157342 -0.7915279921589335
Ni 6.835908369302541 0.09312223919274966 9.25930734810673 -0.4623671379209973 2.9433212517246217 0.092169420346409
Ni 5.230918307497499 9.295498062032568 7.693450927905634 0.12994663909518264 -0.8458381755657239 -0.13734190311798927
Ni 6.421204396556431 8.199907640123977 4.129490673665385 -0.5436965302291088 0.9989409410623956 -2.3412179994218456
P 8.148934935362323 7.892640172092046 1.3477027854176402 -0.6931136193440772 -3.0551665532334034 -0.7601456211929103
P 7.540639454992357 4.233316338952516 7.6599075392592155 0.2515654750509603 0.9968966569388574 1.8441270848664175
P 4.083906164525446 2.481750518125576 13.02358312909043 -2.3644173203564445 1.1570977240432072 1.6435404148561694
P 1.4471701862253337 5.537502896570426 0.7463736058801215 1.3552320758582208 0.0422095434885144 -0.3031567168646908
P 5.454715515924323 2.144080904658637 5.844281123923509 -0.697623848509605 -0.7736071460144547 0.9023780196339813
P 7.976568802505248 4.89467057898629 4.4150360426466575 1.3369520466021105 -0.13876886537250294 0.0771580345392413
P 9.26687327279222 2.3890754243333783 0.332295449604658 -0.19830044507923267 -0.626382950785747 0.13272394473000368
P 5.56232975625797 0.11636631641641507 2.1293746853237514 0.16495349418767075 1.3608303958816046 0.13726245603030557
Ni 0.8141919055646551 6.261064603417374 4.806209690276699 -0.7080057059645612 0.15618448974578908 2.0986344161545216
Ni 2.800393065803343 3.7106052366086755 1.0473080731552808 -0.913196193295408 -1.2218018490898117 0.18916197311307423
Ni 5.005876949734412 7.309882493887489 2.11602580485121 0.8386244314261042 0.509730200585993 -0.04251833297818483
Ni 0.9902960991342927 6.836740920362146 11.313613055922355 0.6690398662243252 0.025777366074420126 -0.4223674575996081
Ni 8.577062624631276 3.7914936524783776 11.4612047143271 -0.8342478996249634 0.5463974741000397 0.3821165804993613
Ni 0.10548796105445415 9.006303500148466 8.706549571566812 0.3475894932567691 -1.082581498002187 -0.10592559359023694
Ni 5.445922280013889 6.2150404324819135 11.400347102771239 -1.3387739303021975 1.159432799934287 0.287359344821118
Ni 5.654153589977988 8.584798801331202 11.117581893058668 1.2553573164477543 0.3065639427740269 1.1916713482530188
Ni 1.7395359257409642 6.7172932295745635 2.738430687054906 0.1638592326822275 0.7009714248255993 -1.1709274308374478
Ni 1.3541863937256418 8.88691193639861 1.821157734903621 -2.05916618285657 0.770122529899964 1.0264674286174384
Ni 3.870735675241445 1.6510516507656536 1.5392269471519147 1.9896296694183282 -0.7833266872950639 0.6258057381260383
Ni 3.137024329072348 3.454160801237795 8.051600361988225 -0.7904820673929225 -0.15555919745696434 0.9135746596807491
Ni 4.909029746137903 2.2418261408587656 10.246146021717092 -0.5011853963397757 1.1016891653659155 -0.6894156016671998
Ni 1.0294914804797362 3.821830316369373 12.874293627794472 0.9398042828012395 0.6563363026147278 0.9666368296130514
Ni 4.776167693333765 4.449470915742293 6.952985628196821 1.2586133614912067 0.8217718786451396 -0.5389348471744074
Ni 7.9032668912348685 2.480319278663559 9.531106270098235 -1.7259962074592403 0.6219256863453417 0.5296889030961072
Ni 5.721477971730531 2.3454834250327177 8.059760297822981 -0.11255826841540614 0.3152416730536829 -0.4967361023191703
Ni 5.067672818270927 9.353664382129455 -0.0746976036085049 2.0820451443372727 -0.2806053139267361 0.6941063222746497
Ni 2.0930614273655466 5.386988890401408 6.8844199034599 -1.6204038288387062 -0.6285141381961369 -0.6450260198082309
Ni 5.939007660944598 6.997151994183546 13.762870696457622 0.8135345783370119 -0.5466407004590972 -0.9013786318351895
Ni 7.728674385881322 4.131296093378911 0.43552336194000496 0.4926282507983838 -1.9898024475507667 1.8628601424995463
Ni 2.0530802674919366 1.5346815925467236 0.21190482458327645 -1.0237055496015852 -0.13066731931129108 -1.0462520674435338
Ni 6.426050030813457 2.117457979763856 1.4040533958440882 -0.1758886530429358 -0.7673490809198849 -0.152391341251944
Ni 0.5438635119615775 8.6793728598998 6.30284276394885 -1.6549476282518467 -0.7086806205443988 0.17354226429794628
P 5.525220429814682 4.273241371788401 1.3453267408205656 -1.684290600190338 0.7983020776579735 -1.2220571596337275
P 3.8625598367459992 4.407572082079706 4.896680862387516 -0.22437863022352325 -1.169720040792908 2.434428459438259
P 2.7710479795788423 2.4784483774060195 3.219952962763396 -1.2167979681173173 2.0300124441107488 -1.0088854538696173
P 1.161446146173967 6.940931411394496 8.55511040472594 -0.338159715302437 -0.10179794457510855 -1.0241508646691202
P 7.550143633380656 7.5366637898200874 9.248614211969267 2.0815723184659114 -1.5950748631556142 -0.35268876215654743
P 1.7997321737022838 4.525242416672625 10.855667877861373 -1.0634306361053492 0.5095584508948192 -0.2957239147357294
P 1.6413790912641768 2.116784455311142 7.683496797764897 -1.511578545103171 -1.445049965253318 -1.6896557211569934
P 3.8954128628283846 7.972565073814115 3.6575801531675034 -2.3120053824136306 0.43098785227876746 2.5219801785069986
Ni 8.825200258418683 1.7281608460951263 7.684660498347086 1.6767585534793508 -3.381579926633189 1.945686431068159
Ni 3.712391947309625 0.6223029180851605 11.73423562479669 -0.07762854641775664 -1.676878623996983 0.16063609775923948
Ni 2.33504379601565 0.7970404182861658 4.254642742387205 -0.90505453802488 -2.066771248897337 0.23344433997021732
Ni 3.141898026848237 5.286811482566479 12.361789227261134 -1.0091610761285073 1.130036606160357 -0.45897842395442245
Ni 1.5023243552975853 4.385953818048842 3.7800895738630476 0.9627999723654646 -1.676178769716481 -0.5027326862222374
Ni 7.401032803154792 8.777249059187957 12.716598167148389 -0.3472637344862342 0.5634112350492168 2.7123773095787547
Ni 0.46712662598235494 1.8215749458840524 11.184778118075071 -1.9597447089334379 -1.951831110513316 1.6606603623659077
Ni -0.03362290194986339 1.6196205096389973 3.2961856408537114 -0.13355852481615707 -0.5217953592806434 -0.5565972974511769
Ni 3.2193065663789158 8.693507518900509 0.8261273201371256 -0.3315463237509774 -1.355042328444918 -0.0724140920963527
Ni 7.444054177571903 2.57841998610262 6.416151092259818 -0.9583123689077561 0.6182148131526579 -3.0699077160983195
Ni 2.5777932341813443 2.4542389151334643 11.388217114467983 0.3635007651703869 2.7097498992582363 -0.17190909956989747
Ni 0.23133694049470596 3.7459933338950275 6.97519322612381 0.660561653549985 1.710267998090706 -0.6320542901389115
Ni 5.7311785947508715 1.6326045643663183 12.213950609890398 1.9409687138775151 0.1360946609744495 1.4769118469589209
Ni 7.641003952953041 8.678512245321333 7.162832461396805 -0.6316925359241186 0.02704800525672761 -1.0485202946524201
Ni 8.997089311455085 6.189596175379381 13.36277097892786 0.3764393276089259 0.802149990649154 0.8021183660802702
Ni 7.519694715414207 6.762896447727079 5.364648458485134 0.5808649117492899 0.6362457025124397 -0.18250435858724054
Ni 4.565298412596537 1.5465898790509598 4.02829923734887 0.08605173748444535 0.23516183688195627 -1.3565834476797927
Ni 1.8562053281611004 0.9942156372688371 9.495481503802806 0.6566942001747786 0.6505127539544152 1.207552281149333
Ni 5.244173642907163 4.490209790625206 12.860342317117002 -0.34786742950850413 -2.321776859978098 1.5151984012439454
Ni 6.737517672168561 3.9806511241218647 2.8828736186432105 1.1001735000523374 -2.274904620906592 2.103342363153152
Ni 2.440515854409415 3.0326093298890924 5.685749370415308 -0.3088118582679391 -0.4162896268366444 -0.2693019730987749
Ni 0.49670276851216133 9.33692917038077 13.024884340915047 0.4195310165920775 -0.9983519013281452 -1.0240994426058943
Ni 8.874526570073701 7.382192827491375 3.3423117759077083 0.8930523713576815 2.777557602930829 0.4822862454424274
Ni 8.516548323456174 0.4510873895014725 1.0077880904416543 -0.8523248117313321 3.0179719464609764 1.5454397166269902
P 5.7531710390332425 7.193203736961064 6.769892682979646 -0.28771441416769156 0.00967891785066075 -0.513711039610612
P 4.415383094829931 0.25758007243420655 9.572933074062407 0.18814278781994048 0.9505265543147501 -0.3234553192127268
P 7.1481711436921 5.271956526581619 12.607683650440752 0.28316793244758975 1.3981797830643403 -2.601106392516204
P 8.1843043236361 9.276536477787408 4.758426872159151 1.635017979207455 0.1497382198998131 0.2799214004858341
P 4.424064076664912 4.262296599431797 9.4675377226202 2.284720835666065 1.0910296287695405 0.389862028772735
P 1.8670378464422515 8.946125961199721 11.477072763342916 -1.720923163811707 0.0684409663812176 -0.8468558181969609
P 7.5592175044797205 1.4949342953303062 11.40841162264186 2.2777336057149546 -0.23593445338192268 -0.7523346097889237
P 3.9748981027549326 7.573932142870266 12.65773961358621 0.8420884787153046 -0.8040171257648798 0.5058254662149483
