# total energy = -381167.78905025136 ev
CRYSTAL
PRIMVEC
9.28210539623039 0.00000000000000 0.00000000000000
0.00000000000000 9.28210539623039 0.00000000000000
0.00000000000000 0.00000000000000 13.58529949697354
PRIMCOORD
 96 1
Ni 5.36853766468799 8.32965921137098 9.299286497350902 -1.3210505448805054 1.6767865785038092 0.8951699319213163
Ni 4.4589748822363955 1.9686138710882763 11.46582919765985 -0.24987523183273097 2.0146709286576723 -0.4146644325283955
Ni 2.6061738392307863 4.926421706171883 -0.022888743509581356 -0.11763156917325548 0.6720776246093844 -0.7361358885418742
Ni 9.010724407150219 1.29057464164349 8.635210338939597 -0.4959514016343459 0.05742250378352692 1.106918789195971
Ni 7.232783543553657 8.346849670424367 2.5218254917632215 -0.3471686036692666 -0.16727391479073125 0.3989030559290807
Ni 7.621174676475274 7.831841338827136 11.297603105464468 -1.4633569910926219 1.6708095349847678 0.03325336273649111
Ni 1.367235549484697 5.816195040080379 2.356179824846908 1.5487183873782617 -3.236868984744638 -1.6498966960915005
Ni 1.0814395266694936 7.30333682609404 5.365296353510106 0.29038630457289993 -0.7713124364430072 -0.82170477285263
Ni 6.30425741993248 1.3380247640413894 9.83866406825632 -0.4517150575237897 -0.12505511533083624 -1.025946266006646
Ni 6.968596261924351 3.7689431727176492 3.5602582398516924 -0.9634856855785795 -0.011039802753929373 0.055381047873465906
Ni 3.5814353631401916 1.051699661222923 9.496015150353648 0.2335266152713785 -0.3371405300093032 -0.36034242204706324
Ni 9.029214360948462 8.308031905974442 0.9054600918999762 0.35085325160970543 0.9399122691340135 0.3417548888528631
Ni 9.122183927837616 6.049305833096975 0.5176648701399302 1.1107888136743387 -0.1487920539364599 -1.1213858724638948
Ni 5.076234886043185 6.8217162273342975 7.598828936126935 0.3915062492443774 0.2623556236879288 -0.7559274693465046
Ni 7.911797394057086 6.581848061644447 7.043366404911793 -0.7952468357714175 -1.3885006081033635 -1.5254995260596373
Ni 0.5158186593917021 8.000432217761613 7.48146506824523 0.3347782004247138 -0.05153801997829189 0.28603059870736547
Ni 2.342794100764355 3.501163716329348 1.7480070021487941 0.6856057410028064 0.30781092780725056 0.9223578051900179
Ni 4.565171449207125 3.3770155576689596 9.112828493885182 -0.24150371993958408 -0.6039117662664244 0.813053010714903
Ni 1.1324446954051073 4.222847404990668 11.58990402768821 0.6567821319028947 -0.015592455121618309 0.6579057039843765
Ni 4.346782075228687 1.123682387982647 5.115747880181608 -1.6858954827836126 2.068159901714748 -0.4805273537697918
Ni 4.999871005572231 6.692342243378523 11.767327758045582 -0.6817781397266001 0.6370797683779609 0.2780210981393276
Ni 8.184802675740775 4.189710288996831 5.981960446155324 -2.8748160077643714 -2.419304716422943 2.5532080261730283
Ni 6.00217130227997 1.5068384135035557 3.1405270065262685 0.16816608758769747 1.2690453554578078 -1.3919240319626156
Ni 3.732074650385009 9.143458513231979 7.31265420341466 1.120826657526315 1.1280622560428055 1.6203917446538478
P 6.125511917777483 0.3261509039061867 7.640168648592414 -0.4766226193987469 -0.6486232502411862 0.6959456894762337
Ni 9.252328326534984 3.3657470818099906 3.147564698780198 1.1905822289538979 1.0865222278174902 -0.4773137319285005
P 2.2260159337283674 2.467118619425831 12.355422458725132 -0.612024625181546 0.8187703728146545 -0.8039847298650475
Ni 1.941417302499496 5.239293630206702 9.358070070345013 -0.9808848548916332 1.4312050889504255 1.052838976632432
P 4.2431473693263895 5.358596529889839 10.24781277330595 -0.5783992238176168 -0.44882488046018837 -1.0901809076159998
P 5.734985900632174 6.877464551888637 5.063281708068563 1.3774497496058407 0.7893327842798277 2.067251016747233
P 8.399711260224061 5.211818598458309 2.3350138400847937 -0.37705227860257645 -0.49384412548335593 0.3489213246943152
Ni 8.117470283746572 0.29890235552761213 6.618445546501731 -0.40645927100978385 0.042815552503629485 0.15471896094385612
Ni 6.898562777281912 2.3736663830600153 7.562664925588114 1.2914383784410277 0.14989788540612894 0.20768574294887457
Ni 1.8436674513703337 2.1259455562691043 4.188701324148503 0.304192871438689 0.5071210450979202 0.009920858658137752
Ni 2.6294626414796767 5.333339921313023 5.41497789402703 0.11877699563160835 0.6500584400258159 -0.1078590631675239
Ni 8.095221077293566 7.925627730984486 4.994621975013542 -0.39250615126380145 -0.8548627476618375 -0.5268491196544669
Ni 5.600506758750178 6.046484073079573 3.229918321814408 -0.9729715135818275 -0.9797468846324483 -1.2418127449941
Ni 8.810862115391306 2.859473211319259 10.6846342189473 -0.11095312871181537 -0.24929313407701584 -0.4347293215990707
Ni 1.8722748999678154 0.6162835263270823 13.547573368393197 0.3851502251193625 -0.16567828816883726 0.23016592632926167
Ni 4.600972529427919 6.264335084949427 0.4457313385384044 -0.25185420993597274 0.6654580624103379 0.9519098078155218
Ni 1.7180805663852834 0.2613794447698837 6.019850000073209 0.34661324538642885 0.8838321383109939 0.7261391823404785
Ni 0.7022580986467815 5.318804144381272 7.07409667099605 1.9367631604365996 0.7050147416570375 -0.42918190941828016
Ni 2.9750725509795557 7.814298159771575 9.369957662628854 -0.19077148369203917 -0.3451937393310829 0.12511193671070064
Ni 5.004317134020703 4.99639021607708 6.1056547098655445 0.6500859508296417 0.8259473501790678 -1.6579303650292545
Ni 2.980437607854749 8.67431306402286 11.564445069215408 -0.21615058588677613 0.31089650871110974 0.6785560332448765
Ni 7.554584852906704 7.957261145916418 8.737331133464137 0.5049325220870337 1.4833264922360132 0.27019491722668953
Ni 8.460202740597126 5.53627458993299 4.506502046108455 0.921474117033484 2.9573427628146938 -2.5582448172659875
Ni 4.815352033907942 2.718431620975738 6.716572251106903 0.046315595237087975 0.40231722381695223 0.880553210449406
Ni 2.69243244397329 2.9891720689612478 6.134903551940667 -1.2988596106057633 0.1954174671044828 1.0347787766966114
Ni 0.4071140675634004 8.800289797431367 12.276736195503014 -0.5514504631429148 -1.1884163316508307 -1.0002354915041034
Ni 7.964018518589673 4.233429005055927 13.022405772522786 0.18916377288528713 -0.06870476156556554 -0.7522420500751174
Ni 9.12663005628609 6.242234392181548 11.549121241541956 0.7344032221214836 -1.0537833428235723 -0.6376140436148761
Ni 5.078332641845596 3.3922660567103815 1.7342045115373552 0.06136451915041045 0.7369725255105566 0.5902890332766673
Ni 1.4301960698729894 2.9710441172705013 9.424747145703595 1.0936876352176776 -0.08937540254103962 -1.4301758763549628
Ni 0.21545715690772266 2.5629377926483494 6.788655224604086 1.8292573668434366 -0.9634820860341535 -0.1889974225107519
Ni 4.009256879462878 8.970458634270312 0.6697391708672822 0.32976454926020626 -0.9576299981287508 -1.5665289331971215
P 2.8189661037010207 9.328330204898442 4.009497285990677 -0.3121095551826044 -0.16286961507544856 -1.2159793288707639
Ni 2.0616576948199943 8.63125337744151 1.996346017154044 -0.6337573888729472 -0.6426662613268028 -0.3094433212043509
P 8.947132703600138 6.023937839256314 8.966542514035632 0.34417172582447175 1.4982512318666454 1.0091659612245134
Ni 1.5819770560722166 1.0300259452997824 10.834398203660404 -0.5577969741862329 1.05547435737275 -0.0701918876340533
P 6.924218516387507 5.959325104120991 12.37234930598742 0.11435521241482885 0.27639538961044663 0.6194142327773977
P 8.161272538753554 0.6313966502097621 10.746854955541558 0.7904746111937547 -0.049209886065747506 0.5247585556740252
P 1.867290409410759 1.0542986507126357 8.132526786786798 -0.13863336823590316 -0.018221408104033138 -0.0911666901135075
Ni 5.193198695185581 4.103358863201123 12.99852291553339 0.5661193780089993 0.14152585929234981 -0.7653220231875272
Ni 5.124938092659339 9.183000281896895 11.739409969873405 1.8920910143402059 -0.7107565292368211 0.10669203944261627
Ni 2.788780697199071 6.94551166599251 7.133206045886907 -1.077334390670635 0.6210378844237497 -0.06239758840061513
Ni 2.9481265992344263 6.974713169330498 3.4329912938036493 1.241416795107262 -0.1668406839080546 0.9349127590368931
Ni 0.6299115133584977 0.01427309335118344 3.975112655041777 -0.46895481844084397 0.051814413568130116 -0.17308640770745032
Ni 8.338690699847733 1.1010062046849027 2.6375854118455613 -0.38057443282322195 -0.674932063339044 -0.5632654534999719
Ni 7.69990549380293 0.5018463062528997 13.169982893222404 -0.6320018396344212 -0.0077251365583996 0.5659599696129994
Ni 1.187069885215678 1.6545724017830872 2.0067252673233185 -0.6294348502381933 -1.387541586624204 -0.975493508672733
Ni 7.0487750876819915 2.2509012580923673 11.860061559459597 -1.7659436943864555 0.5255861937816432 1.2467911720452978
Ni 6.2256472699739875 -0.034371636001451704 4.740127995970334 1.5547555947112772 -1.1675677703365956 1.2849360585461356
Ni 8.589446775078416 4.033511020665092 8.382170865800095 -0.8315238158255809 -0.9972828366336824 1.6441248266047295
Ni 4.113532050632284 3.9479578559269384 4.287099066229029 0.45560282261397017 -1.108738101792897 -1.8702759753476434
Ni 0.3858552617480818 8.582522324509394 9.684212620356412 0.5776353490683988 -1.266452140809335 1.523919583167027
Ni 0.06412449639547095 2.1006796655869677 13.103999191131255 0.7247299606977776 0.9967375056531739 -0.5119441775181764
Ni 6.3199998705558835 4.769349919940026 7.9254188836147765 0.3184141572443936 -0.35617055005756076 0.3353099045584677
Ni 6.849052027502884 6.245668771150098 1.250664373397354 0.8055587592203868 -2.1632781202768356 0.3294770999267745
Ni 0.07611233541677122 7.24620546784696 3.0509184899736312 -1.6812014197420528 1.846236932120569 0.3922104744002536
Ni 6.341107378054479 6.353359757077412 9.92281099403843 0.3045538543225335 -1.8219204668623914 -0.6387003347005193
Ni 3.6996522565008423 1.4770150091091012 2.3802121237319636 -0.9045377462894615 -0.04081420580288454 0.9788187163912238
Ni 2.475556053162077 6.455212298758192 11.543945539615299 -0.5109612447796168 -1.424851635928572 -0.4559218965162858
Ni 7.645670152415816 2.6235406582852594 1.1043459061791838 -1.2699786659053547 0.06945655212992553 0.08261571521970289
Ni 3.4255702505999874 4.829739297154567 7.777556802281824 0.37577546877268186 -0.2936963427827394 -0.3546885661953956
Ni 3.7404378272786922 2.109924642486089 0.11424322407298607 1.429294502191274 0.6209026443974662 0.8681535512334725
Ni 6.529942528692754 3.8805883355114545 10.149876351859849 0.4707592186394344 -0.052010845849652355 0.561440227365775
Ni 6.444714237640816 7.9729850323291815 0.08626695863729193 -1.2882905768406652 1.1172271131005145 -1.1626531066437977
P 2.6051713718561826 7.381779898156764 13.50589300266246 -0.11653782188844447 0.1654340333685151 0.025716173819181513
Ni 4.858114693119038 8.701240451557346 2.8747441309923856 -0.496309556304713 -1.1743410845046873 0.06720555131221974
P 6.3089727294352445 2.2908328751807403 5.246683114252274 0.4408590886458923 0.6317241604930024 -0.3684748213462105
Ni 4.0580807534481975 8.159035551371336 5.333791959842126 -0.44536160450193624 -2.0341691465916 0.027971802622577632
P 3.6465307677521763 5.2278302301360045 2.075683884169655 -0.12579507882065433 -0.2510114023197032 1.0454876784736833
P 5.739849723820065 0.9037753897843231 0.9308865630041557 1.2442496365703666 0.49210117465032027 0.21090682098933355
P 0.9185357936648277 4.182702299479926 5.076296147938299 -0.0374674008178387 -1.2712922425104558 -0.3125831523849133
Ni 8.410348552921244 1.9089670622993677 4.778860365051312 -0.4432311884224947 -0.42819743401782384 0.7161046809226119
