# total energy = -381163.6042292141 ev
CRYSTAL
PRIMVEC
9.23657013769341 0.00000000000000 0.00000000000000
0.00000000000000 9.23657013769341 0.00000000000000
0.00000000000000 0.00000000000000 13.51865404333130
PRIMCOORD
 96 1
Ni 1.9649232778903964 2.049502550761283 4.024624849412194 0.1533285083542327 -0.807868638300486 -0.5157170142970474
Ni 6.182073348211862 6.268620010524869 10.661148532927657 0.3502824667079 -0.6422019200958746 0.28360270599216314
Ni 8.262860162073908 2.8540817034572763 10.114859904271654 -0.2704854518839148 0.0809853787051315 0.04614821642128826
Ni 9.03190622939977 7.940134401004913 11.636425043952547 0.6840291405443059 -1.8250096473106763 -0.6252547507185748
Ni 5.999124603234941 0.6174102188171721 5.369257945912399 0.2722499999835053 0.04599420734192724 0.8250371796599727
Ni 1.3403925871439717 2.3594541353117195 10.64376346058982 -0.717586407674461 -1.0224829900483938 -0.4919499937844366
Ni 3.6644060027870675 8.164444507117121 12.92928162281542 -1.0878664005502103 -0.8920848652380893 -0.5595129284360751
Ni 5.14591490869498 6.391688071214144 13.248361709645893 0.5235560507254919 -0.7083052394828512 -0.5037624130383325
Ni 3.219969956840965 9.29198957170603 1.225908994752851 1.0527258480933352 1.136722759931281 1.312637895336778
Ni 2.7313092130128265 2.425698816433266 1.7721736083264614 0.833391979382571 0.7666021754515313 0.18140238377231338
Ni 4.407866770795208 5.592586204617577 5.5328468398532396 -0.24267254343670464 -0.10071962390926524 0.9774318633460264
Ni 3.893177372282112 4.524727856343146 1.0136664675426652 2.137967152315873 -1.352753275300425 0.4373230504681758
Ni 1.1453254621292008 3.5853501988663594 8.149490500042974 0.9076089290156175 -0.013376164196589865 0.962085205686627
Ni 2.2669037024006915 5.859772469369804 9.424448453267624 0.2040967400460356 -1.35391849925312 1.63117700819481
Ni 5.0904954877901725 0.6082706326529542 12.352818966790782 0.04588519256788872 -0.33915421800522233 0.5710106446630295
Ni 6.915263050212312 8.961274177456593 11.356467373652807 0.8323583959117343 -0.1747941344271764 0.632101341326763
Ni 7.968268993684254 2.5776865782647005 1.2372579684971403 0.14506344013196307 1.12681938477464 0.5856710748886816
Ni 0.5010516026854386 8.058565703478488 4.195406260529464 0.12216262427438963 -0.8399076690139019 -0.9809517035738267
Ni 7.528183372279179 9.261047061700847 7.201197705056635 1.0729010374896297 -0.03833823345856623 -0.6258867278756188
Ni 6.507052832397652 1.469612203553681 8.816555596333838 -1.1378075083550274 0.6904245025476884 -0.9278262845037568
Ni 2.549533512445058 1.380109838792417 6.235641760458448 0.9596634836190117 -1.501551242774156 0.0765240004996682
Ni 1.0604413824433374 8.808565963153395 0.15784651827808735 0.4410205539244211 -1.1516192174271394 -2.482643585690905
Ni 2.1615606198308037 9.164229333380147 10.403050129546804 -0.21520159170994552 -0.1540039371547025 0.2817954775800954
Ni 6.318903898425831 2.9591753986330924 6.289647986130182 -0.05588318432086505 -0.5602919726939448 0.60029988054545
P 1.1966900287378064 0.4415403812038262 7.625547905552805 -0.9888290494393744 0.2639291388226358 1.2064755031453867
Ni 6.340960827945944 7.376537363543324 6.206724830287334 -0.12954477567107367 0.1498264087382452 -1.2585210588877165
P 5.986184168453669 7.428834823737161 2.3786070871764213 -0.1763771626435801 -0.15821206169877913 0.2406164322386243
Ni 4.694514488855173 8.008706697804461 10.807433636347985 -1.155502097421313 0.47519797113707835 -1.2627944894520897
P 4.60812484823473 2.4826515079831064 12.972378535482044 0.47591119515401903 2.182983569125563 0.5868324421866346
P 4.548151798245577 8.553174798483742 8.423703023708915 0.11709446572286286 0.017903876863614325 0.8019985526729543
P 4.793484338021009 1.7116749974957286 7.06775512877398 -0.6518744101886321 -1.2183737972448694 0.19360535359640849
Ni 1.673463306781864 3.3532259544065743 5.836029865797169 -0.61394832456682 2.548022368207031 0.17584777250267133
Ni 2.790940509906399 1.7410380540051256 8.583345131224318 -0.5295112398676622 -2.1644597992897627 -0.09581961550448659
Ni 0.8093230551254443 3.8401317499060603 3.6213774407395602 -1.6119708675800044 0.5991930206345164 -0.6002834254852178
Ni 6.0379089612981565 4.161739885986808 13.382954238912324 -0.2927429777305345 -1.3022840629062797 -0.2595433510501143
Ni 6.669764252174166 8.199737441663332 9.220979744043685 -1.1547153398539596 1.2876632276693116 -0.6561218726110765
Ni 8.060828663165434 4.3925987203359345 6.791609390975476 0.8067162698635977 1.5805468447427682 -0.7150520712883814
Ni 1.6760126001434852 7.508509477857973 1.7629268779484943 -0.5859109588136296 -0.9765060090976473 0.10484753003470974
Ni 7.584923622715551 4.540254530766642 11.597707189194418 0.46717484372228574 1.0610184271194307 0.17331086501343054
Ni 1.5183812939499115 7.929512345331492 6.242171091898049 -0.3044772354483272 0.8888740716102755 -1.4003155984604205
Ni 0.7284929060787678 5.719459732208982 5.042187302244468 0.3565855261077923 -0.32911945947703963 0.0993782793900224
Ni 6.584455290261365 5.45993058411177 1.7125432350899037 1.1117699466406852 -1.1111832208992798 -2.234737561769403
Ni 0.21437802222905114 7.94147370367678 8.830858425212353 -1.3990413597336873 0.39905397968464823 0.07798233021274957
Ni 4.006362302910031 7.036880969387911 1.881283364203846 0.5334673963019329 -0.2561001296965202 -1.6132332792321957
Ni 8.589077346659906 2.366649423459194 5.50812146521656 0.44920977460343287 0.07821810037263949 0.37557055185072735
Ni 8.460448870739848 0.566560129165966 9.515835078339652 0.8136127398731149 0.2498263808726665 0.3261544633114447
Ni 5.865767003397674 1.3247827835891177 1.3489087048230106 -1.2572702171997507 1.4319247407252693 -1.0575240408129272
Ni 8.53009260967689 2.353367235582342 7.791638062690482 -0.23992274860570936 -1.3063407494741566 0.30876017909439724
Ni 2.652696764459357 5.999567958602181 13.658842276403622 -0.23453834436534446 2.456836394819814 -4.692315976961564
Ni 6.117648271410022 8.44758232851978 0.46855919620895 -0.5714371906774869 -1.1604285881886531 -0.9414443895078238
Ni 5.2952425383229835 3.6899543558241836 11.007388754286561 1.0418505959417284 -0.09107515884096573 0.05960896991188443
Ni 7.061016127191955 2.0715779534216985 12.196421666369355 -0.4025223978492229 0.33381326540828316 0.06199649630745452
Ni 3.8294635113818853 5.518204105193175 11.163717704088873 -0.07359679955054421 1.1722901155129295 0.6165783059904993
Ni 5.20642367975288 5.439092881851562 3.4172584769770036 -2.1328316308615203 0.6202655250340995 0.31437855372243917
Ni 0.8916310553962492 5.292767137522569 11.880422899341188 0.6111764182486378 -0.1914055177316123 -2.1375796870694668
Ni 4.707094697400565 1.496795429507489 10.238960613503789 -0.6907528324213845 -0.9357193140985884 0.06951697305421575
P 7.960547221038185 8.800003662623602 4.847289206463456 -1.654932201632879 0.7742622630999504 1.065319625597946
Ni 5.146884748560814 3.285448002639995 2.506669361346235 0.4072298306272213 -0.5918018703767678 -0.20729493526835913
P 0.6997884170211229 3.8865732246242892 0.7734916285394413 0.5047851978758919 -0.0620808284911447 0.23214516154281958
Ni 2.781768595746654 1.3541181303880625 12.684080242336131 -0.6464686657920287 -0.7659833109206099 -0.5925202366000312
P 4.438652259107829 4.8181090340430455 9.077492397722034 0.1580354269115988 -0.36710185225808395 1.4375235749692856
P 4.290839426984557 1.1080281918602655 2.9700884062662642 0.1487948821499373 0.17858394048691179 -1.007047372219614
P 9.220008980520836 4.754330517151763 9.604205963257444 -0.1060538916379851 0.5925456905213279 0.3232234057075788
Ni 4.835030430559312 8.45195122620111 4.011106205339482 1.6978912216929083 -1.7920535040996297 -1.4348018051627485
Ni 8.107048460200042 0.3153466651755196 0.2966721676446297 -0.09642870984339522 1.0775372507100602 -0.6487921717188827
Ni 7.28021841001077 6.340166482912975 3.7345420509131464 0.37845327271516116 1.0381183825928058 3.26027399393214
Ni 2.8113533299396694 9.17821350058846 4.2323257550792315 -0.9009191757002677 -0.4650840226315281 1.433117732592106
Ni 0.08546044166327323 3.1023329994003603 12.396565210339006 -0.3603164539051343 0.4789237567280977 0.7919661081376167
Ni 8.118594172888544 7.597965659768483 1.5668797528407234 -0.23156820599342698 0.66956951347555 -1.4505472409224631
Ni 3.7408386207849476 3.532332286200761 7.492375960775568 -0.2925576011926058 1.1541990623391736 -0.923721518306764
Ni 8.951972951314735 1.5850785670088472 3.4453505814336505 0.9051427268633121 -0.814300767079075 -1.1322328424807275
Ni 3.109676072670248 3.3337367913883837 10.088417451243942 1.9186543666510312 2.449560944204323 -0.4988040405917926
Ni 8.521521072576945 6.928951647175799 6.486264083959243 -0.8474605416604953 1.7235438892640056 -1.7359355780601393
Ni 9.187357705037753 0.9105032155283662 11.687430307982286 0.03921703651909375 0.1588404393113974 1.0469434370836033
Ni 4.106930078711954 8.10263337966796 6.210658685514561 -0.936492187708871 0.07560200290603108 1.1356747782827408
Ni 2.3276803339929635 7.771252952367664 8.28171662003677 3.463613801207493 0.906689759635458 0.5559954022011199
Ni 0.2924806121101961 6.610262267262705 0.050521267753837446 -1.3098467057448862 -0.8357121428753156 0.5570744941979114
Ni 5.27180012328025 6.415222851958386 7.986117741843663 -2.1180236193144104 0.5280382548665615 0.1119139499631879
Ni 6.878834017537552 2.1812714605326136 3.833862889744712 -1.502759147039328 1.501785727382465 -0.3043630784679662
Ni 1.3647494226316346 0.21884390389696354 2.5917963628270644 -1.062490383679267 1.9457098281069267 -0.7702112329590284
Ni 1.9856963241595484 5.281073639711654 1.988756399850509 -1.9119903243672942 -2.211101153297385 0.6921448276729047
Ni 7.082574281923924 9.198339986947056 2.6342993640329913 0.7116687566384453 1.5728253077287946 2.362859488951021
Ni 4.15484016808416 2.392973648388977 4.633639949619303 1.4546934018803528 0.2063783369913607 1.3398298823705377
Ni 6.724306198914648 4.448710884002051 8.852474770336276 -1.7326430233517967 -4.034768941868187 1.0520118527454463
Ni 3.182940547106403 4.279672413672238 3.5743725352421327 -0.014701567876232747 -0.29208580376250987 1.1058664366720568
Ni 2.811805921877059 3.695662556177379 12.436512452584207 -0.44579200717113554 0.11498924645440196 0.6325276302309043
Ni 2.655892617731534 6.785683207566722 3.596408220650899 0.12579096505559625 -0.48798329582720473 3.69095819892756
Ni 9.124170328636122 6.084156468043218 2.605612424458633 2.441472510769234 -2.47206041085842 0.6766616444356411
P 7.995553821909721 4.143054304571737 3.0111181745331383 -0.6625002653335945 -0.4216238945653642 -0.5598165757194229
Ni 7.421464040756821 6.314350269341486 8.499975849043187 4.0552614053945835 1.5460300419128212 -0.7354902845380752
P 7.2865177508536165 6.7193738704541195 12.58059463402357 0.3943131225655532 0.07337491334772525 -0.19921704335623108
Ni 0.6925654191631964 5.961088407353943 7.793355141081517 0.6819012955680256 -1.9685013720801452 -0.2921994465222387
P 6.3894897675182545 4.570836814535945 4.966442808722822 0.46770269120129776 0.520559172880697 0.328458428854273
P 2.325158750341795 7.216393710268734 11.471808119753922 -0.48443285947178505 -0.5206640738896774 -0.3528075471225989
P 2.4671617798402132 6.004287845949239 6.334800959312375 -0.05538953251389815 -0.570839666302804 0.23700248963512083
Ni 0.9359231802403863 1.6068122165736822 0.6475297504219197 -1.17889347976206 2.420732192898089 0.21739448559620625
