# total energy = -381178.31223634776 ev
CRYSTAL
PRIMVEC
9.14350335368212 0.00000000000000 0.00000000000000

0.00000000000000 9.14350335368212 0.00000000000000

0.00000000000000 0.00000000000000 13.38244139760772

PRIMCOORD
 96 1
Ni 7.584298194875557 5.913002957712814 11.848291375838334 -1.0950953141984816 0.6559814903784703 -1.0792470343123153
Ni 1.8663993089989357 8.991675354923299 10.006024514903759 -0.1833476804241423 -0.1341197966362658 0.7082255352848512
Ni 4.376309231539883 2.054380591822082 7.632207408728781 0.5504559604401295 -2.5518977920020376 -1.3836893027576491
Ni 0.651609014349272 7.828109708396603 8.467163778466267 1.0656106744758036 0.4887451136938938 -1.7722904625400895
Ni 6.305780425791704 1.3005170378455864 5.585482672157821 1.0236608124065791 1.2230228659811067 -0.5697335777228187
Ni 1.141401794706893 3.1851119182642442 -0.008106629960163512 1.3442300683207624 0.5577524941015426 -0.4203463134045213
Ni -0.033905938662619366 7.925872044888898 12.303361702695257 -0.09983927818684095 0.3929843764518006 0.15065790350060504
Ni 3.1118084529014753 3.5113886873805025 1.9162853482496194 -0.6580039201251376 -1.2697578081438003 1.0167548293153652
Ni 1.7095882286731923 8.131043113776906 0.9666136726885289 -0.05127885277963427 0.14731778338377852 0.051159039372318346
Ni 6.219100015209311 6.132099582014007 10.028721432961634 -1.734119093676691 -1.9741048343098517 -0.16962904528646916
Ni 4.6675389527909195 1.7730898585776989 3.393492356784576 -0.6483854231987672 0.14223008444822605 0.7469707743738491
Ni 1.1411549201197912 6.614492525210834 10.636109722659048 0.524904080112954 -0.08440083214458369 0.6627560900981424
Ni 3.208290698942131 7.566312924030032 4.012618161573193 0.37315988552670576 0.7396565001006229 -1.0086630534461662
Ni 6.734043829890665 1.808127762939696 8.07559416716353 -0.18499858576400396 -1.276459131423376 -0.10468529342523261
Ni 1.6815085302661743 2.5833779709617843 6.872124443857966 -0.01706466879177061 -0.08990607823352904 -1.3874114888042428
Ni 8.317991180735516 6.379449631283512 9.344811164765906 0.16497791966770298 -0.22264236425870687 -0.11422537170518393
Ni 9.176236967539923 2.336274796279381 4.084321513871413 -0.6732816722198146 -1.3326318219602018 -0.07097273166413584
Ni 5.529058113750231 6.680124591366996 12.725323404370863 -0.06697055248327821 0.5208905880781868 -0.6716875882598173
Ni 6.5053282401957295 7.665044471864282 1.278184945566426 0.9495608479673711 0.7649265875213213 0.6959847702442852
Ni 5.447580356503426 8.692655368923718 3.3872025409154167 0.47188819003755506 -0.9577243576147699 -0.7295266107554726
Ni 7.3235071958638445 4.123171344728326 8.492349558102259 0.1556854386221835 2.2624512256345874 -0.44478027807716947
Ni 2.160536664275836 1.3275452333816156 4.781720278026126 1.637024982335155 -0.36681877380002637 -0.5215495618184243
Ni 7.484359704615477 0.7439172511672628 12.92461428633424 -1.290065666463217 -1.1017590993719026 0.040628572154639706
Ni 2.008516779640512 3.4572500047794104 4.109279620277078 -0.3517585370327942 1.6644113447679076 -1.283093348910442
P 8.155785433506438 0.11823189716432023 4.366502824330008 -0.08135433200877602 0.0586769450159183 -0.19466181988538087
Ni 0.40310871237393714 4.234356343956375 2.075349387770247 0.7280762514621912 0.5331213258164238 1.3641967412506764
P 5.714314632612033 4.256520195776177 12.940459063074558 0.5644561313739634 -0.08155539227598857 -2.1308714218113556
Ni 4.1515984962579315 7.425640126898163 8.176484496109437 1.337677097693593 0.03212927643437693 0.031075895469198096
P 5.478348244858886 8.928923492283323 6.9539843995396176 0.6377536545165339 -0.5479100540898241 2.325599576158298
P 2.378344054622165 8.830411388526498 12.103815716991877 -0.10029847721144662 -0.004962229101281777 0.7798166172592763
P 9.002464688729967 7.085126923259037 1.447297695132418 -0.40953765282479143 -0.08839195558184777 0.4747878801828533
Ni 3.609196741388927 3.9254065134533693 13.139041323537917 -1.0574420226220822 -0.7491109606453034 -1.6214289276691105
Ni 5.563858287028353 6.16206284208558 3.5977893067641804 0.014801069568574509 2.0828182750578708 -0.8256660714932231
Ni 1.0748736652345834 8.71199387824669 3.7092111227257827 0.23371816245689425 0.8258000259679262 -0.4357798743507721
Ni 2.881410458612957 5.498390803930258 5.172353594598521 0.3063312579379305 0.3325601097274724 0.17413978867262914
Ni 5.568850639789743 2.122673417417008 12.597146118747634 -1.1087237036151938 0.3188031651526961 0.08300240913516028
Ni 6.797874625911308 5.435236627148338 0.8722207171350121 2.975836193633191 -0.4601783577997945 0.7040084118797102
Ni 8.570534739837385 0.09092391042957589 2.004475351214624 -1.0142577739251244 -0.45698324790126454 -0.0318323140192484
Ni 2.56012604225809 7.629339091766788 6.624027370374897 -1.4582623501785337 0.8067340104754107 -0.9676688704219916
Ni 3.8953883923624413 7.488154258454262 10.539153843151285 -0.4514731167163128 -0.4828207777896588 -0.8963477542795014
Ni 6.296170603901187 1.0525360868534877 10.643229768621126 0.3529882956748372 0.8381120105660599 -0.05897133632788554
Ni 4.111321364547441 7.693910511548736 1.199844324276459 -0.04482049874880023 0.9272770968685062 0.9734037160232396
Ni 7.756744665717744 8.405668233169543 7.531744995733851 -0.4163626461664248 0.5922651831664316 -0.2480700603031921
Ni 5.729657431025245 3.1549200706120217 1.4502153870118315 -0.3487850562267671 -0.8784965850306935 -0.9938033627255143
Ni 0.4899793078234313 0.9175048312120545 0.04517804943962092 1.5823173063796299 -0.0034828163422778733 -0.4336795401783176
Ni 5.663760203275529 4.007442024396959 6.937002170997984 -0.7001407013941878 -0.5052323127156396 -0.622721956994392
Ni 1.4314794345514537 1.5168980416886604 2.0747870623218487 0.17211838736722615 1.0302076123861612 1.2089111091700728
Ni 5.599938550758113 0.747171423965393 1.3718875666263808 0.0034028550339618813 -0.10917675353768293 -1.1827519342762016
Ni 7.269194786701459 4.1683951116840765 2.8112898467231555 1.2585619394279808 0.6924780426426075 1.1880427503614959
Ni 5.007046371075186 4.037496719500791 3.4449218193798066 -0.902574966136136 -0.6104914763664712 1.076664875407436
Ni -0.09527987536643792 5.563721134479962 -0.038997955609173685 1.4571367212145225 -0.7410654646330076 1.1278357418542964
Ni 6.12769241345908 8.18260332846827 9.458187861717223 -0.5255895362157529 1.5230132693026739 -0.9697488928794717
Ni 3.2150294608196863 3.802920144237995 7.907350050404008 0.0593333476529946 3.2849005342315682 1.1589646020486168
Ni 2.26705847685863 2.086675445216282 9.421452923156483 -0.34356931635378246 0.36818582935088207 -0.37276522119144834
Ni 0.8134636510544722 3.945668516602165 8.717549470806802 -0.53344168527032 0.01924265027969589 -1.8354591247787744
Ni 8.26413594673443 8.924269449141294 9.97801522147158 0.7072955672714142 -0.429327433857209 0.24037063477640538
P 6.692642047283378 3.4179695149205536 4.821988266233388 0.12604164761382167 -1.5617112000935038 -0.31630739531403584
Ni 6.472082462466026 6.364161693889655 7.513919736194782 -1.5969350562928046 0.3580934781118865 0.7774288337533901
P 6.931068037404317 8.101564459376313 11.701606725335376 -0.1555954500115385 0.2971735026980624 -0.4422675389576448
Ni 3.2515211821946153 0.9874069133747548 0.556258734007994 0.1665709751864357 0.2778161812173731 -0.2530700846209448
P 1.4669379400618463 4.815105951355186 6.521076095801853 -1.2077528271959137 -0.43151312865461816 1.1758832321808264
P 7.971278681909169 2.6212412178206126 9.654574767056022 2.223656878475209 -2.683978446721087 1.4590431942086162
P 2.249859547290541 0.5000883649900868 7.633210451032672 0.08877942082825356 -0.5129574492740391 0.5082867832712471
Ni 2.225007505522298 6.03772034171533 8.613541207260832 0.45818780973232703 -0.4840716194776244 -0.7898583177659946
Ni 6.917096764475001 5.372685921579335 5.411591527805927 -0.23511401436315638 1.569527353703813 -0.4835825956563478
Ni 2.3866737860610425 4.369524752146198 10.452155238656628 0.3172417342028472 -1.2056038991737108 -1.0608104248736827
Ni 0.24762526871660753 1.4393885648419358 11.210297037792564 0.23124116167131142 0.9919570535453949 -1.3147806527113937
Ni 4.638919787693567 5.378857786256879 1.2625458976486914 -1.1422987113571617 1.0244439704295067 0.876904043732593
Ni 0.41819732139746735 0.7712663836665242 6.180104802651105 -1.2819108985665664 -2.0114624490227033 -1.7841185655232692
Ni 0.17562475256354235 7.228661636900641 5.266512476469452 0.6020628859831437 -0.2148724905053009 2.5329773009484504
Ni 4.475772259632213 2.809981411411516 10.051190677789185 -0.0367919720173689 0.7811307080850095 -0.18585322045481542
Ni 4.420865522760137 5.111163442309544 11.181886344568765 0.7429210297845076 -0.24372643862251572 -0.34821581398685836
Ni 3.7249260617202933 3.2478363503945413 5.483428375251246 1.2796714677130863 -0.8655186847137868 0.6787820332127537
Ni 8.109537594189376 7.018452497735111 3.477694877992726 -1.8812250181599794 -0.26891116541825943 -1.8771495625390253
Ni 4.727054015288894 6.888194150777645 5.734455941518245 -0.3137985128492531 -0.527069206085073 0.884897603461031
Ni 8.558309876024234 5.642245540184772 7.069475074436785 2.196567478457585 0.09518506724428123 -0.271545517717313
Ni 8.055609212162482 3.0915921672688094 12.504124688678015 -0.8142799411434687 0.1225341486811954 1.1219983092369128
Ni 3.0124460033446323 1.9158199439354162 11.793115819971415 -0.3862781680762186 -0.3817517409607748 -0.8459114520058206
Ni 6.670697639541 7.927243570372796 5.3515443134202 1.625432392401549 0.19738513235381488 -0.20094045380524103
Ni 8.404817887369527 3.121518853327477 6.393555313710248 -0.7086132576415731 -0.4490292831615106 0.6117901405732367
Ni 1.3097794066135153 6.434822686820113 3.1880323531946253 -0.5709000872270942 -1.0197933590313728 -0.28794555634189123
Ni 4.25908952018268 0.12941348725938448 5.278007688725167 -1.2606733293440289 0.5796981451346984 0.56113040943484
Ni 8.951517088754747 4.438384474941135 10.680245412730905 0.3931219304709294 -0.39686185712933586 0.8453424668762279
Ni 4.619736717925439 8.91034389372811 12.224846440493673 0.5751951150580223 0.7364112536904479 0.5757131923450214
Ni 0.17575916206096445 1.37524688971161 8.274323638028829 -1.0444867480129945 0.1460574286141162 2.2739360863457354
Ni 2.1126612813845482 5.57084392349301 1.0540548227393247 0.08140421141010497 0.28850451416915474 0.11004012997924273
Ni 9.000215386936373 4.585850894969917 4.650184583667988 1.022228965056059 1.6262731431352895 -0.14023645105696494
Ni 7.086553309762291 1.730837730170395 3.032876246952786 -0.10102969895051633 -0.14550387010349133 0.34975744744236537
P 1.7092133450409264 5.06936848906354 12.23209998160285 -0.13061306903458797 -0.0033822862086715943 0.7936987745580072
Ni 6.534496015486639 3.6934541236164327 10.714812426676763 -1.0069149604068077 0.825351625576598 1.2757916730427061
P 3.3021213290472495 5.452984166909987 3.028834818526898 0.01257346578963641 0.21154985388997113 -0.1971722450120604
Ni 4.147273619232037 0.6009649786811538 9.41778637836286 0.18661015322549795 -1.4544617454855209 0.46976317327475225
P 3.242962863175088 0.39182014329112885 2.622383241373539 -0.08763810813495874 -1.3993326657218612 0.9807218469512078
P 4.732951574869658 5.1853995450013635 8.620139159188708 0.06277296946216286 0.7758905427319928 0.6510179757256078
P 8.586727884050614 2.5569623901418965 1.363790994519766 -1.138126068036711 -1.4650122673078576 -0.17128740682549856
Ni 3.2231214611746877 6.658116179102037 12.629184039701183 -1.393424270657226 0.5062532977809862 0.025949629986226276
