# total energy = -340854.59403143596 ev
CRYSTAL
PRIMVEC
9.42356432999503 0.00000000000000 0.00000000000000
0.00000000000000 9.42356432999503 0.00000000000000
0.00000000000000 0.00000000000000 13.79233894542300
PRIMCOORD
 96 1
Ni 8.855577942916115 2.758409242240297 2.602807346164702 -0.0061115122143765716 0.13954251031373385 -0.7234076423419283
Ni 7.158799200081603 1.2893697812891984 1.588394558754821 -0.44508084003672377 0.8657703957132767 -0.12554593892432572
Ni 4.702914647140896 6.902025916150656 1.3804061255865752 -3.2659193651433753 -0.45384778759607647 -0.7899645043265555
Ni 7.642058431825104 4.567573414616811 12.793290676112923 -0.5032967862558235 -0.21470176925539153 -0.37959921339414626
Ni 1.3570027032934708 7.323419447328732 1.6655217219349754 -0.07958361326159843 -0.3433556576810797 -0.3363031217096724
Ni 6.9431786220713265 4.0019333825164285 1.2615947674511891 -0.5086192269100014 -0.4538740128483216 -0.4846948548839201
Ni 2.3268382614642533 8.833658732022714 4.980565838094343 -0.49311856017124106 0.9724032997831835 0.5988875735789557
Ni 5.176241441961936 3.130932168219243 6.6468320216202805 0.6058766033022791 -0.4523963998615306 -0.6637027702821279
Ni 9.040581360052506 7.44546403042436 9.912719998577908 -0.20799658932107404 0.36270989383797536 0.04726330386233796
Ni 6.921636353755629 4.497989814772929 7.94739417039791 -0.568154406161157 -1.6130605010997576 -0.8922481302888311
Ni 4.574188756855491 0.7681750485257178 12.958592247069248 -2.164325587704744 -0.177166748424411 0.2289780766687476
Ni 6.015786798149846 7.2606396610123785 8.167133788426032 -0.6773890095199688 0.6749510895024375 -0.000898086334237163
Ni 9.687141540021175 2.7451314399407263 7.682056751101561 -1.9081370120594752 -0.6860271448109412 0.032783879299240315
Ni 0.15422511331053682 -0.07935206674504344 13.656733249370728 0.09160994829851318 0.2562698225051651 -0.10850852382606473
Ni 3.292857276035798 4.096498851697545 10.724646772097557 0.5986983403862851 2.1313185366511034 0.40006725144051103
Ni 1.0477401654174483 4.4090879078217915 6.170154207283465 0.9561873521449532 0.10226074314414002 -1.2274004262235119
Ni 3.053828563950195 2.0855101996546654 11.350101937140662 1.4659882580678818 -2.204723017685184 -0.2869865348627315
Ni 6.011310605039629 2.48303384209973 13.348308466373648 0.8763106331229682 1.047854378933647 -2.1549492886961663
Ni 4.979609346303423 2.1955303145215845 1.4164870691242595 -1.393120109153246 -0.6154848158160044 1.5761026929284856
Ni 7.34896673053252 2.3784699710450545 11.381603970715705 1.4601824500193819 0.5963334396985343 -1.1783849155567576
Ni 4.795642521255713 8.110060912736095 4.986537550881595 0.3534091852623397 -0.2983927198171442 1.1359380592464565
Ni 1.904851045726296 1.4260114657063574 8.908996360315227 -0.006563255039814503 1.3689229430817522 -1.3009830847066692
Ni 2.9350351105872496 3.484061398575395 1.2869809077030088 1.8722868351300852 0.2962587041932769 -0.5961845728254958
Ni 1.0080575355498167 0.5498433110253155 6.733171661399484 2.685425206469943 0.32550423132195555 0.5619531624464515
P 6.665786579140051 7.191970146919425 2.0240534817860483 2.2181094662944187 1.3768283139717579 2.03108228013616
P 3.2062641423730893 5.639428481442778 2.7024436353723615 -2.089994481091336 -1.1560307162312735 -0.5901298819909836
P 0.5322089948839479 7.426711137183661 5.396362714349981 -0.6499018598432936 0.4712348727242723 -0.0636232332776001
P 6.660584771567756 8.575151512234335 6.377922129043755 -0.4050737035161669 -0.18347186470683238 -0.4528340016195814
P 7.822642197237934 1.2600153780506156 13.242535552000994 1.265138564204234 -0.9568265283908488 0.6617752142421119
P 7.951471746732208 1.9226144647005265 4.298547612197643 2.3082855103598825 -1.3890562234965174 1.172381132564839
P 4.039269544837861 1.291706825270954 3.3806820695711495 -0.4345745411887612 -0.17602954949617428 0.04086357098358124
P 7.411096290902335 7.458609902821736 11.560945710335004 -1.1759878760794906 1.0033318710412398 -0.09309913124953
Ni 5.819003925460253 0.8139650905085741 7.792588565517712 0.2175415526970318 -0.11729886842418508 0.09710928085018758
Ni 6.448262441112377 0.159436344447274 11.867245479550286 2.865941330982561 1.9563295126043019 -0.9300153217352757
Ni 1.2200594648141498 5.750739624638328 10.41616733242671 0.09322434397348461 -1.3147086618228776 0.9384454547804999
Ni 6.999352489713443 4.6466559674187975 3.4478645451950674 1.6257404105602709 -0.7102397375014027 0.8225398671594156
Ni 4.702198456243262 5.310235104770735 7.255874164473775 -0.6401028714750009 1.2015819224985111 -0.10672597800434523
Ni 5.106280899540351 5.964965515111106 3.352779837613166 1.8341715163156025 1.939528638996879 1.8190778552072735
Ni 4.60492842406713 3.735811922658457 3.2224557107983007 -0.7583005975643715 -0.9626755309724583 -0.4262801623904529
Ni 0.8936356737317762 2.0527915839100874 11.915850340232135 -1.3054807154667065 -0.3402636490193172 -0.5950337470505043
Ni 1.3819845726307045 5.973079204096153 3.983958875698684 -0.07404571416250473 1.309398562463874 0.12545209365893878
Ni 4.742154369479728 0.9941766251259219 5.618708890302915 -0.9098894975196782 -0.4821638609319502 -0.23812657593723505
Ni 6.888050770082335 8.85592661480049 3.9890758711909955 -0.3556558152046713 1.0669677027243303 -0.23735473076821703
Ni 2.0313058569810445 6.200564049739616 13.10812913706961 0.43249708983444224 0.2934402609078753 0.21231552841140208
Ni 4.939050324942634 1.0315787523984532 10.184511617160968 0.35288570865870195 -0.5417764303882604 0.2795555325059831
Ni 7.431809285547088 6.767363180266434 4.949532155672095 -0.8385717238112976 -0.44738377713828753 1.6814297337027753
Ni 7.783524981236855 3.4186147435217973 5.952538660680698 -0.03933479304388064 0.09077408266077915 -1.5774905744149477
Ni 1.0414169536764888 2.1753638866145004 4.965751994790634 -0.7002486877269617 -0.06186948381128699 0.7554975808979375
Ni 8.213569344573203 4.753575729584114 10.389920820741285 0.02825333841873844 -0.5802355056954072 -0.13949545912588232
Ni 1.8321293989230396 8.539605827156988 8.699048768099372 0.8603523100214989 -1.547447233975322 -0.8017363001505031
Ni 2.3699793394823057 6.481904566172325 6.23808208685479 1.1302757187543566 1.9279149660173507 -1.968536596193455
Ni 6.460277485776643 6.286733123002409 0.16637020316411164 0.7975109492152458 -2.0036406389854395 -2.54719627276131
Ni 5.298135248026484 4.8849496414778795 12.007362574533861 0.20312100639632757 0.5058403786132837 -1.5380804480484414
Ni 8.537824773477343 5.483949091704936 6.87564653220659 1.4255247507361966 1.1440159511585846 -1.121416468591514
Ni 5.05358432717754 7.986470865071886 11.541897859527252 -0.2003359874520227 -1.456981426583581 0.24627774428945967
Ni 2.911862565622988 9.323750047987073 0.7617802176949947 -0.18936200493902225 0.08514490939945982 1.2584508677714135
P 7.775486680767349 6.2123058110350495 8.766341499427268 0.4685326433017608 0.7199484801487342 0.12543203905428074
P 2.5793049764449507 2.053196797181118 13.486314682922092 0.700323249718639 -1.3802723066563003 0.5922405005760834
P 2.2201917826677713 0.1852635075150056 10.440827858216453 0.9338421516805337 0.2798218987934923 -0.13935816221706968
P 9.124535895671297 2.494954651119572 9.959875515048491 0.6285467912062852 0.7638552088340135 -0.3596266269269613
P 1.0380338940416087 7.5164140471124155 11.598639968105255 -0.16880860626770283 0.2390498590824528 0.010402940500878859
P 2.4418999833079438 2.882065254855605 6.919478357498281 0.22867442938539975 -0.2342609223342417 0.1148655763923441
P 5.93251075917092 5.232179720492988 5.213655819868242 -1.337411245626716 -1.1089131939181807 2.228318802727253
P 7.357919116752954 2.4221481922363326 7.757211562243887 -0.18643120444547248 -1.556290543298565 0.12077654256014037
Ni 8.424798541553246 0.049907197287812045 7.304877641931545 -2.6777268093844206 1.0452789048969868 0.5837890273746204
Ni 4.139573964764499 2.795349614855143 8.764686721511154 -0.6593900018393869 0.21715383034030988 -0.4728862922847662
Ni 8.862334638621432 0.04174073634188721 11.266562038357343 1.8067329604886757 0.48218340131597603 1.75731172974307
Ni 1.1868037058963459 1.67893993534474 1.3962395985629692 0.018753369348103188 -0.14841307333048634 0.21603411491356986
Ni 3.4798302181406844 6.469597391010338 10.914222502701477 -0.4343999632841099 -0.03764403560501904 1.8809365403852831
Ni 2.0209682067875536 3.7866237821327555 3.7018503387639057 0.6847529060842078 -1.8178938622015015 0.45720899075882543
Ni 0.1104422905539463 7.53459210292212 7.517376193042001 -0.278593682813346 -0.4985975810079414 -0.4492324003112521
Ni 3.550516375024347 4.79533154362911 5.074173873128095 0.8832865502201691 0.26433922977686086 0.7855090396583633
Ni 8.993962986755148 6.464414430566929 12.741086956170458 -0.22276603432076475 -0.011487174703993118 -0.5905679979696669
Ni 3.301715426611807 7.750429422914575 3.295679633586346 -0.8970951739684873 -0.5839870023180393 -1.4794914347606392
Ni 8.582709210917269 6.048222706961147 1.158533012568658 0.08367063884677849 -0.3014443621592744 1.596414407902644
Ni 8.355252635967135 8.866688325393897 1.6371228681308683 -0.3150316139254058 -0.9267140252761846 0.38989442467256724
Ni 6.00984052898659 1.9928859847487166 3.872199170835667 -0.28733363378950516 0.42400705008556006 -0.8265857550940152
Ni 5.526213778229829 4.779028777143476 9.529706760661503 -1.6158514335813334 2.4391927135961216 0.5542838188266519
Ni 9.243593208838634 3.189848293114145 -0.1861625155628261 -1.5841808419509298 -1.2154332265593069 2.935572718127454
Ni 1.0825979302904878 4.517129074155773 1.844876654544494 -1.3684238919581466 1.7979472438762452 -2.843930373929109
Ni 7.39272976380378 9.221334749625301 9.727544130212218 -2.0737741625777315 -0.35524135337507207 -2.457416178582684
Ni 6.116213724414237 8.52266225828926 -0.027888096611320044 -0.2742796288190244 0.22736779475883426 1.9302865515733207
Ni 1.7151358463686235 5.864397235380077 8.109633082910403 -0.5162466615482723 -0.7783359189486917 2.133136563696449
Ni 1.7434536575185247 3.7482698748515255 9.179794735206041 -0.6026457550698072 -0.061527527090835976 -0.30539434794595793
Ni 2.043518796498606 9.154493407034204 12.355176914544408 1.4234794381713936 0.1977386590384917 1.4011674049377547
Ni 9.117081856197231 0.1530688419534344 4.817139556462087 0.4463103415684507 -0.8511043090606696 -0.4488097109515367
Ni 8.789895698751453 7.4653383278337255 3.3356770105063585 1.6450712496783992 -0.7452172820178521 -0.2052164554727756
Ni 5.032013788168514 8.998231861447628 2.2713089656300083 0.711814023967058 1.6091735073405256 0.45649396696967187
P 3.4628772257085143 9.080593814675627 6.964041451390717 -0.4695184042537978 -0.059023272611743505 -0.6411235994300314
P 1.0518771102077333 4.343132380288296 12.537553041914212 0.6962169408597494 1.4180760077676353 -1.634571892808972
P 5.43042324567118 3.1070151616640187 10.640776106202303 -0.7635968129663043 -1.5333326489508108 1.1318104102313282
P 9.208245418614581 4.642679223224036 3.485020717435648 -0.6304290958306626 0.8645365233061756 0.7370167484849307
P 3.8530222171950523 7.639938129825527 13.402264026945987 -0.24966774380761517 0.9628215696320193 -1.5957983715852002
P 4.9745111979399965 4.420283102379557 0.14503619562259396 -0.009054911113416664 -0.8475536155949339 2.445223236060918
P 1.3180928057101295 9.247419176002314 2.6707484187262462 -0.19353541959042153 -0.23809597980961575 0.014438544022833196
P 3.5976247736727185 6.55391944564239 8.92989122975372 0.8259123831760743 -0.23300982353596 -2.195845512689896
