# total energy = -381160.44020242547 ev
CRYSTAL
PRIMVEC
9.33682941787208 0.00000000000000 0.00000000000000

0.00000000000000 9.33682941787208 0.00000000000000

0.00000000000000 0.00000000000000 13.66539363424511

PRIMCOORD
 96 1
Ni 3.711342892266879 5.876814997117688 8.943043686371093 -0.2132940902745875 0.8202017059445423 0.8191928050640537
Ni 8.227062950313664 4.264260576104795 2.728459558897936 -0.9103983188352965 -0.42448861770766894 2.1166236536430905
Ni 1.9381296525336584 2.3967733727161353 1.5962411131691008 0.05239753976510975 0.7103078717351767 0.4977015515562332
Ni 5.921687797883069 5.703177985916323 2.6199291908545113 -0.2974624946933909 0.838334410989511 -1.1257333507993128
Ni 3.246686254129158 8.53697098256595 12.736242559559754 -0.4333429827745053 0.28181347530222434 -0.8952789466953549
Ni 1.524900269205698 7.216827376028745 3.300014487348372 0.40699046092290553 1.1259434099275898 0.7538263638431018
Ni 0.26919852359287394 1.3206011111642346 11.904853013443951 1.2578587427133692 -0.649106874745824 1.6332840272354836
Ni 1.548466425912277 1.992656734612272 10.104273527551069 0.03158703077766173 0.702087026487281 -0.09224449655871855
Ni 3.490592241310601 0.9523005495763923 10.842464712726409 0.4148685781194016 -0.3933404742396387 0.48928401691649925
Ni 6.164043871430086 3.3296066335709673 1.0393338022469056 0.1490098263742208 -0.3271525655586559 -0.4292382165775124
Ni 8.079307629441393 1.9320233662871833 8.672003940075154 -0.2277514033504981 0.5666803927187917 0.7662419638986352
Ni 3.788558469114505 8.674297065307774 1.970140037499124 -0.726999987678877 0.3106946771129488 0.6993752839830729
Ni 1.5171600378626895 8.08844838515286 0.9229222167407146 1.3739381369081565 -0.2923254305771417 -0.2654710293884589
Ni 7.758989032716907 9.258063632568248 6.375301768216959 -1.2999083635852517 0.016352987436726675 1.6904689610869081
Ni 1.1412032763939461 1.9793237426245565 4.153144840077198 -0.3648133133342233 1.9890151757627812 -0.9844337485851562
Ni 0.6212212572875901 0.8298489693105 8.149343184693393 -0.6576457654547706 -1.3522943333861355 0.3474995046461241
Ni 1.716632055247536 9.020824141380663 4.82843474113346 0.6742597198623679 1.151110653221837 -0.04763122872471797
Ni 4.775778759611106 5.474659093129667 6.712413585802164 -0.29660323201688915 1.5008264487929892 1.1253044907920104
Ni 6.039023729472443 0.37379902025840644 2.497309547664404 1.2442432088124638 -1.690404940618192 0.4560291115181114
Ni 4.32292387348492 1.8214659726411448 8.530280210816372 -0.6639873914020823 -0.7736403132452354 0.33855797918212016
Ni 1.9995846618215753 3.9308424081206685 5.9840073975477805 -1.1918947771177344 -0.10072502322590396 1.9290156552806972
Ni 7.948283906357629 2.2940028945587203 10.934063674838093 -1.1075913897829632 -0.5133595698084643 0.21093998822011412
Ni 5.767312665162556 3.4576519081644794 3.458847955975142 -0.7242936444913075 1.0531163986635346 -1.3089452769765393
Ni 0.8483246867791919 7.075411762131026 8.762906374734259 2.1325675785668565 -1.1915767316566834 0.19418693713149138
P 2.242183492925791 6.050003840521149 7.48774761091191 -0.001082177320585233 -0.119962017078645 -2.125759297395771
Ni 3.8875288578188383 2.737334214979395 13.568915919679977 0.4103249246127772 -0.14163924494176253 -0.6341775071295014
P 9.300760952147957 1.1678692603693777 5.6253321731028905 0.1862337437226857 0.49514613212423114 1.2860413757951723
Ni 5.698584265987782 -0.011270486434434018 10.171562187675068 -0.5883023418639417 -0.5774913672913667 0.11946425150662006
P 5.905983251298098 4.262001063457016 5.415895891677925 -2.8930651837825465 1.6794371287527787 0.5847135960714188
P 6.212782119452409 1.8830516975367846 12.487764327156752 -0.2168982626860781 -0.025375502650311133 0.3364866984753882
P 8.323456374180036 4.4862716989926845 9.125366749705632 -0.5894207717391009 0.2707783005339853 0.41615772924447036
Ni 7.514298751889128 5.835779633121883 4.3899258929548415 -0.28971370398590746 0.8816132762828043 1.7089333384396825
Ni 3.4537677872492907 6.244461980666919 3.027075630008804 -0.46742886871462075 0.23824356113107356 -3.095159548686573
Ni 6.115772464863916 6.64058629304145 9.16522847428067 -0.5426459774774074 0.743757409642874 -0.07086705932420699
Ni 7.010614168017056 4.204206091185336 7.378437617636711 -0.2560744186649074 0.1871048334737294 0.7286172115673258
Ni 0.6676252980291502 4.979937865215724 4.610703620715577 -0.9781633421954122 1.0023540805090028 -0.6137999719144138
Ni 5.034586326072937 3.45214317898188 11.385704773178283 -1.7632666617749246 0.9840018032540601 2.7224208098576854
Ni 1.1290934090213498 4.40407025539335 8.796577781600716 0.044511195038497535 0.4242646746223209 -1.2705157693557474
Ni 6.417529445291779 1.8425485328009923 7.086189263987762 -0.8510055786992763 1.3538426517098618 -0.6117014375141724
Ni 8.383370806662649 9.027845436881197 4.316870807164446 0.20266437847488322 -1.0842961667004487 -2.9021943997773243
Ni 5.767555422719754 1.7870784309809504 4.919022524651119 -0.14082394812931878 -1.7942481977581037 -0.19805104807258794
Ni 5.633450546025383 5.242218732111329 13.100069846314742 0.6951597032398286 -0.7973610539009429 2.585734280935508
Ni 9.293198120558285 2.9157796931791324 6.936485346877511 -0.27273979513573027 0.5826934803175965 -0.625399246716239
Ni 6.690463634216784 5.153957686411135 10.74262506523072 2.0676467095237556 -1.2417950043822872 -0.31838793199214843
Ni 3.5275474109796336 4.66621106985211 4.6197089924047585 0.6921126888833886 -0.747016797120436 -0.4839070688753021
Ni 7.683566127060907 2.0328424471578805 3.0628926402077377 0.2887377132258834 -1.1085208435757685 -0.25854036370689665
Ni 5.1860203576196895 4.073247725905432 9.103406527608218 -0.6706030969463871 1.8319580536040514 -1.7299248530896851
Ni 2.1299921541832187 2.389602687949633 7.852831634866861 0.7693316585675525 0.438800920565283 -0.11335685305730155
Ni 4.778738534443113 6.471393612502656 4.589522090167025 2.2897879657763274 0.7371329623478208 1.5401586707337087
Ni 8.075376824380589 9.075939443694029 11.074502656409543 -0.39093777833541704 0.14522619096207245 -0.1251535885819135
Ni 2.2569076724528414 1.0523353368007533 13.278047549375415 -0.5067492635807982 0.5035994050979069 0.17477767936694416
Ni 3.0501833484054415 7.661120389849094 10.564223470127862 -0.20786623439079685 0.7595905200203886 -0.5467998517447807
Ni 0.727692854509382 8.276352071254248 6.792014722490729 0.6453314668637918 0.26108215629214393 1.0355264534959134
Ni 8.976203435001606 6.423122205936486 2.5788779542491955 -1.165843074336005 0.9727907650295892 -0.7329171244942603
Ni 7.520442385452094 0.9107161800281508 0.47940229237175463 -0.6682762485854233 -0.10295442677705494 -0.4253463377222739
Ni 6.149263670928297 7.542010460726341 0.5723242831701758 0.6943261515949396 -0.048671239953458116 2.067368259051388
P 0.9787051023363785 4.01205414783296 2.752948194321872 0.7449540010541363 -0.6518350723102645 -0.7006238116781933
Ni 1.593376573994149 5.60638307839766 1.3339210315911783 0.48094284404065557 -0.1824105133218536 -0.3315818049746031
P 6.592370907450019 9.559139024470129 8.330491674924255 1.5869789735213573 -0.6583168233798663 0.7122745085432443
Ni 4.6549601907588345 5.927392600477252 11.357294669522664 -2.2270257949474423 1.662958671481781 -2.266773250048709
P 3.0831143447224396 3.848295501843781 9.761190807741674 0.4222188478368858 -1.3984582335367077 -0.06364328788225813
P 3.270131032057137 1.2228445102458978 6.361076175365079 0.322640022400283 -1.0533681096630245 -0.06054048058721831
P 7.127744689365723 7.6811198778306675 2.919994337845277 -0.722169141949137 -0.32559087749849086 -0.6133621130460469
Ni 4.973878263114863 0.2816407820822508 0.19697441559443066 0.5196163493514534 2.0957360115608035 0.039158158256700305
Ni 5.971994633198064 2.297270784751788 9.934317094390009 2.046054070954644 -3.1578430437587226 -0.8583437642319023
Ni 1.9249927339575266 5.326773056649674 10.892534392581679 1.6144458114830582 0.6986399484789452 0.579413266904428
Ni 3.3494660691156954 7.773050297376221 6.145368345818161 -0.5084613611758985 -0.8895474435282164 -0.13077067765837477
Ni 0.15856830267967556 3.9645857085713723 11.030213407464354 -0.8249150522598117 0.03136925833990081 -0.5168655260791937
Ni 7.317123594468552 6.842607264776889 12.303636454752727 0.2601676148976745 -0.4388870525211861 0.4966790238289898
Ni 3.854765924426055 6.97845812851727 0.4424461890198092 -0.20096179396147973 -2.7008104306767615 0.3164112678817519
Ni 4.5423953788513405 1.9183915957675302 2.0637202747507204 -1.6735297621294078 0.1934433740972475 0.4490951034024394
Ni 4.047272667285106 3.306666044415633 6.744486527522754 1.7043598601363874 -0.593519624398823 -0.614431949071458
Ni 8.63366318496426 6.901998834828612 10.434989617186984 0.019056245300502664 -1.460432104136343 0.2094970851260005
Ni 1.116152563856802 0.3207518255957962 2.5502222919876423 -0.1037776940092987 -0.35517707579603996 -0.022230015042793972
Ni 3.9970872107487105 4.423033355342265 1.5428232463903053 -0.24583988542109272 0.1933662410024089 0.03449906221813413
Ni 6.7739909075515925 6.848386762004058 6.935146445581266 -0.5797917332897693 0.6213605578704913 -0.767061374476137
Ni 5.4356871683700545 8.243000917626711 12.158455297669683 0.011177099662742041 -0.8632548283802745 -1.2401808658176319
Ni 1.3840261913971152 7.155512419177675 12.265250882862043 -1.3616973718675902 -0.20391727704537782 0.3446491796815226
Ni 2.8184899337169482 9.011870122251658 8.342764003123591 -2.3784347176814586 0.29341994919290115 1.0992751566077843
Ni 8.28315861968495 8.157578267979925 8.329358183868717 -1.5598034415478297 0.036698898082930344 1.2618565510188529
Ni 8.790269819845182 5.718789164210063 6.75716780883768 1.3667236214375882 0.09542417983828082 0.1912221980762126
Ni 8.579192123860384 3.021874082504353 0.9544181424215001 1.6192038949933338 -1.575571245905048 0.18034925991745068
Ni 7.748821225801906 3.7676906560244876 12.663200545330131 -1.5844549215479227 0.28943988149923056 -0.15331719550032305
Ni 7.576696780918473 3.333976269600555 5.120012710451372 3.7211560626671787 -1.1119026155638077 -0.267758539871055
Ni 3.4069529260263165 2.35142439366548 4.45045002037919 0.24647674767414324 -0.22020238735864653 -0.13995157282669446
Ni 4.223206538450743 9.478935662303126 4.124584413472699 -2.7708897039923506 0.7793453340498127 -0.7310985832282828
Ni 5.691198834151448 8.404630766575837 5.085043484336813 3.0568226007795873 -0.34056523942013606 1.2940894429106293
Ni 7.560656108485073 5.32970482099431 0.8987799776772434 0.09092654907824341 1.143166972894728 -1.4092347553269213
P 0.30130881262995624 0.6389948452062287 0.545489302587617 0.28627742461084893 0.05338638604094031 -0.1349129819615225
Ni 8.658685887014034 7.777475954380547 0.4006648123770714 -0.5845068793772514 -0.06265212761358242 -0.03669195610439487
P 0.20897784311502413 7.23119675604912 5.159560717567878 -0.594237476401454 -1.8739372262493148 -2.1840770593000576
Ni 4.767132855843162 8.95794059723692 7.5493099937347425 2.046881451951946 -0.2707651879078627 -1.6888697349205881
P 3.4193989192473424 4.787739237717733 12.882571212942022 -0.3394290689331638 0.27943237666455745 0.4687162200674766
P 9.136862253721931 5.401467689634075 13.015043078222773 -0.3676052742570637 2.8256562582102696 -0.6493192478669462
P 0.874526630347208 8.542965226862949 10.362603982044712 0.10447137764221362 0.7026290150336801 0.561778327431484
Ni 1.0848368389780914 3.86944341980749 13.252384340847799 2.2089851353956473 -1.6686657491688874 -0.00031984523326396524
