# total energy = -381165.84407931 ev
CRYSTAL
PRIMVEC
9.29789118915050 0.00000000000000 0.00000000000000

0.00000000000000 9.29789118915050 0.00000000000000

0.00000000000000 0.00000000000000 13.60840360057485

PRIMCOORD
 96 1
Ni 6.35964601000791 2.1115046033596294 12.214086452408221 2.57424479223867 -0.8482390716977326 -0.2556463299885533
Ni 9.207692363118685 3.9556576429904102 8.328996084512632 -0.5476691417236117 -0.25663363360248703 1.7106423507109896
Ni 7.229872839514685 5.945768978768353 7.610404843523221 0.7677476019098842 -1.5358163346046132 0.1632506525639511
Ni 1.3393612281818386 5.566861316353453 8.187047039053372 -0.39830733132661084 2.747568512767907 0.6063957090305429
Ni 3.326236897820195 5.500000180693226 7.29953450000607 -1.7373656256384467 1.142075539602762 -0.9484804704189989
Ni 3.4620511946619312 -0.09342521083492615 2.0144931958866628 -0.5514214096771923 0.4802830989694696 -0.5110239796967522
Ni 6.870221109786801 8.234054387622056 7.278304625016082 -0.7693529987237911 0.4491650374084265 1.7323188072431586
Ni 0.8333551121414307 0.29310765215777224 10.624189826532174 -0.08575606062089748 0.11415775169204212 -0.7770760783996616
Ni 6.350478289279084 5.265061065707466 0.6836237317429947 0.33274857158919463 0.033426140868929526 0.007431773687696878
Ni 3.9662479410737084 1.7088501268053586 9.642832741756568 0.025557279643814046 0.04080315005929101 -0.763324276031208
Ni 4.55883044128692 7.533755817790749 6.327376748789389 -0.097675951986935 -0.3120121103727917 -0.03518966052725553
Ni 2.5201655176327855 4.747810080042879 10.075076827283876 2.8815343003248115 -0.10086617678945854 -1.0655427973523455
Ni 0.01902069603951119 6.554278766616937 1.9444772857403407 -1.4107301089255253 0.02388709103024273 -0.9857799782004054
Ni 7.872896399518847 4.691957647570208 12.415831166000492 0.3246688799048537 -0.6487212092716311 1.4456647160191811
Ni 9.082579939054714 2.2597315849609823 2.5994226018484583 -1.460217931243008 0.42539878822676414 -0.054509701012106115
Ni 5.146661719094016 5.650877061288206 10.387035953861215 0.6695918820730533 -1.8819045607255074 -1.5935010909105911
Ni 6.120541439761993 7.029503284031737 4.501060783647632 -0.5759191377082404 -2.1072206151616357 -0.21205121900642188
Ni 4.15730100956854 3.828332320819483 0.7556805290089692 -0.2781295986927339 1.1205903731457927 0.47056252924759606
Ni 1.1578199023904439 4.159718461282023 4.37776888668174 0.476164963036038 -0.12723052571560023 0.2920330961477035
Ni 7.83331527665616 9.269774382699177 11.52271199855615 -0.44297716343015964 0.29215676620976133 0.47391730465244186
Ni 1.1203215071578347 0.5384985266478652 1.6598167677429514 0.8958101366084766 0.8280214590992773 -0.9354066679541762
Ni 1.5634404062393346 2.4724859315299295 10.077281357288747 -0.041936492332785846 0.6451121517641342 0.7334208036035562
Ni 8.7655776362874 2.7671454017299335 11.291722627754575 -0.5292980954155917 -0.6411593377639732 -0.3466343284323514
Ni 1.4931762423978203 8.240339762077111 3.396956658330789 0.5850864060298053 0.6529164782999013 0.8001712696562284
P 5.517303556227043 0.14569144666955697 12.167545857978064 0.08975104071290349 -0.31579034646830134 -0.006839905739968865
Ni 1.023344501882329 8.517286749530248 12.655529871494453 -1.701868204062785 1.2266396367980874 -2.5135557018887296
P 3.122231866875816 6.075418773740706 0.723001230788277 -0.8877877805246325 -0.984502911260195 -0.4764542121416827
Ni 4.793630087904595 4.01655883038778 6.8633034787297555 1.13544106500538 -1.579112940509719 0.7584165543169454
P 8.834493605904088 6.4692402536495575 9.101654562863219 0.1001516672209372 -0.6956032185351504 0.3169422006845574
P 0.7225456341191974 2.4088883556829055 13.033816434776812 0.49319954992082154 0.5699698621033409 0.03947337550427396
P 0.4672459969711844 9.36353431761751 5.387797878568379 -0.09707277118529734 -1.8770582883767994 -1.319109619104051
Ni 3.627721020165187 7.565024625915536 4.294308225851968 -0.2908298198682217 0.639613076322776 -1.2303890765381906
Ni 6.18614736010945 9.104969261078052 5.388845750907262 -0.4330359930570478 2.329046139946002 -1.3848319010025247
Ni 2.1507974915949397 6.911280597351195 11.145772699709498 -0.25467830964832916 0.7722493464349797 -0.694124834217411
Ni 2.5647117143993197 0.14154923613741527 5.913531330379931 -0.665226406015506 -2.0886873322441386 0.4789024165718591
Ni 6.57416695590594 3.127196940779663 1.160281054192594 -0.9042891206137652 -2.217688062486284 -0.22866388786243844
Ni 4.476795147178983 6.069365846565792 2.3662017371575126 0.048437783786413356 -0.7198440933603861 2.5127483754960855
Ni 6.350255139890146 7.5048300782498 10.02092869826921 1.8370758344465907 0.6994004807940535 -1.0794717487286116
Ni 8.365070972601647 7.560989341132259 4.947226601677242 -0.19080465092281979 2.3745410390540074 -2.473859925961004
Ni 1.6099763517238892 4.281325580361441 1.1468167779376122 1.189600324656603 -0.8758097822271498 0.7499769081900246
Ni 4.212391014962344 8.404540520769867 8.381688163764483 0.9915083960437504 0.8381279514056598 0.9744105600211993
Ni 9.004421865579557 7.310067151163892 6.948233206370029 1.2283951860366134 0.359783978440432 2.845070401070823
Ni 1.278590211261349 5.683494063637819 12.999617861133109 -0.22813244083900064 1.6338694674253087 0.696604148995839
Ni 2.296551234135575 0.9646190210270948 8.125169573079404 -1.4557429261907895 -0.8658246459899799 -0.3525188122375864
Ni 1.822200718494111 6.01204434728262 3.0232297808957083 1.8078112811545186 -0.016024914673346595 0.5082204488096861
Ni 2.5060978082385534 1.3993326264586372 11.955717581373204 -0.05432998090113224 -0.7645905443381413 0.0006862274337472052
Ni 4.386001239555271 1.7568458412092092 13.422186561071756 -0.3396779517191763 -0.6291895669966068 0.7371332194581369
Ni 8.959884966704228 1.7615319783768846 8.904727086704623 -0.07876008891903855 -1.0202682417852622 0.19846473857123886
Ni 3.1574801724366446 4.118640377935217 3.1230333450977485 0.6274877538141516 -2.1201514642906907 -0.976437617753557
Ni 3.517355051553466 8.862619726801345 12.993861536687657 -0.024198965843706708 -0.48887315463132575 1.32015965763512
Ni 3.0757610066297016 2.772575370194066 5.73034892679073 -0.5820465907622169 1.8931839902940688 -2.202022845145201
Ni 6.722728661590698 6.711766447859172 12.304133739368115 -1.3962483703695825 0.8977451488476603 0.5487531188164098
Ni 6.99810430543007 6.9175752696974575 2.1723369863620765 -0.3017930037479447 0.7392199267838366 0.5202400989783814
Ni 4.29527241717 8.003308621570069 11.048553949262645 0.38606939449952216 0.1771883456909658 -1.2188437949027524
Ni 4.534098050679744 3.2059500792919864 11.23890874612793 -1.7718479756860324 0.4906384740618647 -1.1800394204410452
Ni 2.0020498280860672 7.861320524967744 7.73719367737158 -0.018133990596549413 -0.22561687350599852 0.008460472062527364
P 6.318633011899544 1.2907797466320288 7.575227201935555 0.5292975811949595 -0.05396874090697156 0.7256874395150406
Ni 4.2810001541692415 1.461953923729062 6.921329758166321 2.0370680654059496 -1.076486440848043 0.6795903880466618
P 4.46983102666591 3.95604815442105 9.075430790506648 -0.15763202082559302 0.2906953511728865 0.1654324907066183
Ni 8.71862328569859 9.066745630331399 3.046009614349686 -1.6490166074793924 0.3157911177992497 -0.10579549577027586
P 6.243896562388085 4.910709133966835 5.632123214726298 -0.027081172487508198 0.1867217391026978 -0.8327764572857593
P 1.1763041101073857 4.260647070319953 6.473272749065472 -0.14019351363417146 0.2271006571403766 -0.1262074837677246
P 8.337456235720703 8.080853034225651 13.332656236862901 -0.8641184619321505 -0.006773571278407688 0.8509047914553539
Ni 5.781363666469073 2.7051191694966743 5.132722320598424 0.7318953680979653 -0.638001765971598 0.23319648562546935
Ni 6.931131595075375 2.9413320955776157 9.18998638889566 -0.9967537036030899 -0.1638170665903824 0.4735015572712619
Ni 5.132454541331699 2.427102924554882 2.8875261289593195 0.2726464640909756 -0.7835619432343215 -0.47314803058658517
Ni 6.028510912607923 0.6265151541684327 9.94604162292022 0.5837435188486657 0.07962449380186287 -0.4730570135346756
Ni 8.745410510262225 6.971530932364165 11.308678262157299 1.4037130541777438 0.6273849096877001 -0.38874591289042076
Ni 7.640737354003593 3.463101856368176 6.953485585112132 -2.1768836268754126 -0.7428760354791851 -1.1293087268553972
Ni 2.1944882823705485 3.1964569323709613 8.046486168751123 1.5996473130176452 1.434737527583716 -0.277877887693244
Ni 5.436458392193438 8.83366609358678 2.9740485853631307 1.8930189254711143 -0.13750388261715027 0.3572689253280621
Ni 0.5929339605007872 4.931266771422648 11.01156600825723 -1.7627688962028998 -0.49596374292952 -1.0789037920402837
Ni 8.693937384547441 8.598931532207546 9.098470035125265 -0.7621122580009777 0.17161316559603346 -0.29126742162627256
Ni 3.8201408786672566 5.301071798347163 4.8418833538948425 0.8453023576669121 0.5152596150446546 1.2303083438989264
Ni 1.8471283648166068 7.824128960144923 0.7486299381076829 1.3276881048016813 -1.9370444391224446 3.660065880224077
Ni 4.130030294662206 5.862478469347645 12.141676335276431 -1.8370552656213006 -0.5464486390529493 3.8138366183220507
Ni 1.0446831621994226 1.92317581698807 6.207419075609862 -0.5592501616929917 1.38179517105873 0.7881912144762168
Ni 2.320307346166152 3.6730947292490286 12.19069388792379 -0.0915577549043391 0.32798663142417706 1.1307850542906075
Ni 5.164736819597907 6.200289452633328 8.228634646838248 -0.07846801159991647 0.7570901221960381 0.27421560835030834
Ni 8.304913616500734 0.9847861470522694 6.7087929822515875 -1.3694338212798995 -0.5762919476666268 0.3035138430937934
Ni 1.3969244726363597 6.7536534477408745 5.486718143105876 1.311643649744309 -0.4335774673828146 -0.40046063022418776
Ni 6.210135919420169 0.03887169376369186 0.6948844077822244 0.4607522280253936 -0.08276072543799941 -0.592066179781748
Ni 6.5000162735404405 4.516534334192167 3.2505985528617827 0.4293503166753444 0.5705828130969915 0.4528417149290653
Ni 5.073515208978733 7.070720835746628 0.5498642688577193 -0.07963606376608866 2.776816868110063 -1.4875361594419867
Ni 7.488456491836553 5.158888446029519 10.333853875742822 -0.2053046443112077 0.11715128710272728 -2.4256931364477903
Ni 8.309822903057347 5.414729220445704 5.453417745752643 1.0599467913218066 -1.9716666571820045 -0.6608784134594554
Ni 8.668033459648347 3.7992950065840656 0.8491912804429879 0.7133235186330489 0.7478647469430282 -0.17704564946551443
Ni 3.8826320054608017 0.8214045325747377 4.342577298257266 1.5384000361713892 0.4903044877612136 -1.177979966808855
P 8.80671150698144 4.667271746419059 3.1204066908321364 -0.669429131242944 0.027785654753700536 -0.9570543281309388
Ni 1.6280049627717517 1.6210780338235014 3.8278265155378923 0.3482376683637293 -0.15142409224266826 0.4029769688881382
P 3.0916696984826633 2.1278967855552877 2.179603288339335 -0.21484266570863 -0.5131986187505677 -0.556321675192287
Ni 8.514636850536622 1.2877858256637915 0.3881144342867889 -0.6131373986297505 -0.5504855281264842 -0.4833092873903031
P 7.112217324197691 1.1876475373783464 3.5389745081849715 -0.99050360892832 0.652074184904264 0.3216306072991622
P 2.794611372351587 9.156172747947872 9.840114467570102 -0.4298066874864727 -1.2425491089394922 1.2602830358841457
P 5.734269847512176 4.076744080162309 12.577594017619113 0.8467105508683482 1.8763378652710072 1.9088790324318223
Ni 8.520745565058771 2.7870614846925545 4.866950468585425 -1.1222222523222607 -0.16265647062337793 -0.7668186623377117
