# total energy = -340862.27105630655 ev
CRYSTAL
PRIMVEC
9.29587325436206 0.00000000000000 0.00000000000000
0.00000000000000 9.29587325436206 0.00000000000000
0.00000000000000 0.00000000000000 13.60545014903019
PRIMCOORD
 96 1
Ni 1.8845338333817665 7.569257917847743 11.694999882717154 0.5971407660911779 0.6608064225709395 -1.811595173676983
Ni 3.512297050244497 3.5573262612508767 5.615568363499655 -0.32503577632596925 1.2810135835632777 -0.7010714407385733
Ni 3.8933813824506327 4.506574378904969 2.2246270820095106 -0.10660462193513252 -1.3390858051156616 -3.6014892082314494
Ni 5.114338585262749 4.6986457161910575 9.505583710172955 0.4283437297877011 -0.030820584925282404 0.42878878774491963
Ni 5.345341040570042 4.460847977389615 3.6103015848848887 3.2704313940811156 0.7473461554353968 3.1115691003928476
Ni 3.750197043653923 1.8508734756084182 11.099218057240304 0.2753787754204741 1.5834128534366536 -0.2613793758175885
Ni 5.357081728741194 5.05887010836864 13.320335017433958 0.11493936705307302 0.10476319785101958 0.1577412927099477
Ni 6.624072096892615 1.3914900013075808 3.540818649173022 -1.3237915979607524 2.1738003599643982 0.8855684042758104
Ni 1.3048617565989826 9.25782544296661 6.338017619821907 -0.4825821794162915 -0.5673409091209262 -0.4720018327972839
Ni 4.577539076845246 7.365966461303872 10.464169532710596 1.343271046841603 -0.310487189087833 1.455649595146035
Ni 8.245746516643623 3.8744549841003053 4.430247821156997 -1.8439033988913855 -0.21085385626421108 2.5145260362217985
Ni 8.906859740748226 7.799981496951446 10.864523280997474 -0.5497275669145372 0.21796218517421817 -0.13405654749849816
Ni 7.769546807266292 4.131718281912351 9.56308054665451 -0.782887028654484 -0.11114493300764729 0.41031643997234496
Ni 0.3039750619134198 5.935368720379479 8.929365979965308 -1.006991579281014 0.5936810896773517 1.8471334757929092
Ni 2.9207169595684075 5.671960850214994 3.761294457382126 -1.3083868333699078 0.045823486092017855 2.4350347255636904
Ni 3.6341380635930958 7.022549008329332 1.327717520657898 0.6656133570412796 -1.0023036868870416 -0.20046582816166764
Ni 6.3497508712942965 9.20640067102456 11.364645920706128 -1.771936935855413 1.140665803739429 -0.4843899220489915
Ni 0.8926195157530487 4.992413909053073 13.182905753892006 0.3748074484324577 -1.6719107384687464 0.5932918246587331
Ni 3.6488534312692105 9.114641104169902 6.755160645152268 0.7522088828443368 -0.8330613355160299 -1.373385863949112
Ni 3.035883535777746 8.128358226679016 3.478505620655461 -0.6615589844662477 0.2906976651657316 0.3866039268467535
Ni 2.5900348532244903 0.9037689863725886 8.444345416268416 -2.682315457196368 0.5002613418636094 1.3996555962789183
Ni 0.15881163165856438 8.638841117351049 8.512290814511154 1.6357841679495184 -0.3706121794041875 0.6808168042545952
Ni 0.9519532168289194 1.8206990703799484 4.290872931301331 2.5700731773594834 -1.2232056714158739 -2.1645127640148853
Ni 4.401865660330268 2.2097313743884075 3.1140423101833066 -1.7938219088539624 0.26347431067340427 1.6604893840056822
P 2.6172345789479974 1.8338620271894104 6.3401259239210495 -1.729488793993531 -0.8435318960300504 1.41461093203717
P 1.3965655482129242 1.0152952985377282 2.237022199671754 1.598155301853151 1.0848841779934348 0.06125936103111385
P 3.0332620994639967 8.027944201639604 9.361094230743442 -1.3423804167065332 2.542760862697776 0.5282357155893483
P 4.2943217003523975 3.1005642232637878 13.04845674737909 -0.21301255447842668 0.6708445235332318 -1.1100871596216237
P 2.4776291514306963 3.285654359586666 3.6453767745977848 0.11204610466567798 0.896127153628263 -0.012010137086998671
P 6.785550714644847 4.733858484831059 6.101540824638136 0.5211687814402378 2.051345144150254 -0.2733033809486841
P 7.845178033679979 7.560092186623076 1.285395268001035 -1.8800590228763365 -0.9869225764452808 -0.5282812241153031
P 1.6936244802773046 2.764834457634887 12.611436355844159 -0.4114580097759559 -0.07541636925778625 -1.620203797012758
Ni 0.25748918753695377 8.484371588182386 3.9967236076277426 0.8128218685407034 0.9385542124442223 1.6944515998837402
Ni 8.855146796729132 6.845778678746898 13.070906281768108 0.7733433508301069 0.3332856750395873 -0.11882533237104051
Ni 7.416703338610399 6.03590359177378 7.873813971851976 -1.6072297533505933 1.6365421291614655 0.54938535308377
Ni 4.736080198586328 0.3831470865253588 8.923651806553742 0.7937532819450265 -0.10528616023402512 2.6972548521150195
Ni 8.357706016511674 1.0458229469574123 10.32684996047539 -1.9797435206528675 0.18893905846899073 0.24304175385066532
Ni 7.047982518096767 8.454197182953914 9.156822059550278 -0.3709320246374515 -0.49311804595060876 0.7220285026062145
Ni 0.3326974517085294 6.781906732251268 6.564466956311915 -1.4956348772897208 0.6438440836849879 -0.8738971385854692
Ni 7.48332686364812 1.3824451164378022 0.7699883531609436 -0.03562032030677091 -0.8704829706975976 -0.32286216571341814
Ni 5.397444411274162 8.90594874514983 4.850546795524655 -0.29779031034645487 -0.8727085175940067 -0.4837800563791346
Ni 2.3092622914497833 7.123316276559957 7.676684749820105 -0.18807233959332126 -0.4932460868880408 -0.13475640177900017
Ni 0.9236974798811509 0.9134143846674315 13.380171625263635 -0.16857952097603227 -1.1878033806571802 -0.42512008064408074
Ni 6.23672234597915 2.7627614778548653 11.59879595876461 -0.3267224199997728 -0.07871303773118701 -0.24636721867947245
Ni 1.3273484744818134 3.5044885165439688 10.478074300221607 0.6822507084876444 -0.08922113635136246 0.3266581424207406
Ni 2.5940878540500028 2.6221149125108276 0.9724078567749223 0.543906846467702 -0.052793746762263914 0.6269380519582687
Ni 5.286702670828457 1.1678777653954306 13.28857938413113 -0.35518890287058186 0.9721330768409321 -0.9118813311387263
Ni 0.44116077357090216 2.2676725536210176 6.228547554864574 -0.8847502792498891 1.8306323928140924 3.5381433969849514
Ni 7.471632654844234 8.725227669349868 3.104301164391898 -1.044929749087684 -1.905743057906002 -0.2511397003674513
Ni 1.5545675092937314 7.380244922927695 0.24833368177308443 1.285938788779037 0.4770357956767655 1.52894814672987
Ni 5.864878111985306 3.052318640042667 5.404846715304794 -0.6573570305697582 -1.8814008816162113 -1.2753962373765002
Ni 2.530689997100476 5.523496455296975 9.89814193898214 1.1125597895318324 0.8032632783179908 -1.4053086807996378
Ni 0.04885725169432879 2.9395782868045646 0.731422562966442 0.8461989013392524 0.9293275516396317 -1.0023990748143252
Ni 5.792100718721692 8.47617262779683 0.76424815130371 0.35023027331372586 -1.4771021085928562 -0.006557598612859673
Ni 6.851718741883372 7.263367906003003 12.424619975821056 -1.9888560244770976 -0.41972282088790946 -0.5867499097751573
Ni 3.590466050110856 9.222910142277106 12.211095621780112 -0.24980324094421494 -1.8232659251466923 -0.0001804914419222698
P 8.196971068635682 1.1304711706205193 4.924765049173485 0.9432145940343692 -0.3047400021914107 0.2670322032279917
P 6.5005671221959265 6.5122427392529065 9.943134896082054 1.1926972184143718 -1.3316835991143194 0.7225676629391362
P 7.847130167105111 8.205346650616843 7.2303034137179925 0.714045741511054 0.7772298303687066 0.14012795050355867
P 7.235712682480299 4.024750666088567 2.614546212345387 -0.11612747382390322 0.2548701139441611 -0.7100013962383515
P 2.244293431886698 6.809022795113696 5.544357324912874 0.20090471547129915 0.4234552913471482 -1.1346357954952653
P 7.410893417702269 3.445627045839511 13.526620674817044 -0.4224890707791369 -0.059458817487265336 -1.267976033653029
P 2.2531895827812285 4.999199896673771 1.269532789540819 -3.053736762765412 2.24787281359978 -0.8031493784479458
P 8.108437169869216 0.33671048027819367 12.359190970522048 1.480038822623677 -0.22382044372720808 0.674408072514774
Ni 3.0953957176239144 0.09659528022491522 0.964722958191319 0.18390586692045746 0.2487843127613973 0.9467264638423695
Ni 8.743354622583237 2.238613653206909 2.7736209172226713 -1.559413919418895 -0.6275779995351127 -0.6253064298921166
Ni 8.547481273054867 4.181795152203715 7.388385319310496 2.860957504614724 0.21602125939776345 -1.7478040473629513
Ni 6.785522827024488 3.0756419865362687 7.488916472355415 -2.6281636537443123 -1.8876874859558717 1.5578334623056524
Ni 7.395462267770273 7.208224784679748 5.538751913220709 -0.9817824270052382 -1.1096611278277986 -1.9985249150254292
Ni 4.673435307386496 5.756069913217826 5.839432517582382 0.3918440921997703 0.37546487951079854 -0.21757780525160592
Ni 2.661334202609076 3.466524169361877 8.611175668367546 1.4539958615926958 -1.6470044621453699 -0.4744765195900216
Ni 3.277492582694923 5.533052613206668 12.04750405199201 0.4955048010152304 0.14497062330784063 1.392892309413156
Ni 7.456870807800855 4.977717133123864 11.773735001276801 -0.7373862160092074 1.9906722517502295 0.20528227571370453
Ni 6.014857734276165 0.10411750102309072 7.117881908939329 1.4410521569478345 0.3054951351898803 -1.5714263704987388
Ni 0.5498379005226942 4.395358548913161 2.856818055039764 0.8254688678807526 -0.34728327487025995 -2.379855509288385
Ni 8.232202429022589 1.2802741713157717 7.858127185400021 -1.2646215153584994 -0.5327328321287534 -0.866173030468334
Ni 7.613915293916002 5.392089988165228 0.9216328663872375 2.2334980329353464 -1.8104895993176302 -1.478723446246363
Ni 0.12692957447677675 8.86452633304322 1.6249400600950512 -0.14530075295374975 -0.5954045001263616 -0.858382587889638
Ni 3.2761074975504245 0.8415359023667239 4.622397243780091 0.008811427644042889 0.18863463985469447 -0.5721136479192211
Ni 1.3401117087327958 0.7863704709471828 10.92845565067055 1.0106237767169628 0.04855656875246476 -0.10120144864169021
Ni 0.9756762858810004 4.799803411106711 5.0263568613793925 1.2051863520203179 0.06129484225473959 1.7907180731176577
Ni 5.5400431100433325 3.0489163503588657 1.384558998061017 1.825728784864888 0.7108519171641048 -1.6225337306975154
Ni 8.73904133730104 3.224543287506579 11.601789230016479 0.24091982241165602 -1.9908977374974748 1.511418879596855
Ni 1.1206082488868758 6.720953690019882 2.590518238644047 0.7729882814835333 0.38616658219901884 -1.74518280769002
Ni 4.719979745765715 7.427709652778763 7.79982811503947 0.9758506349018354 -1.502355483843006 0.9291380613366449
Ni 6.014597449819481 6.297294257398962 1.983837931130889 -1.387895627529513 0.936004449439175 1.2492470897849581
Ni 1.414534471597592 4.828174416885296 7.388099935995489 1.6843602770860089 -0.24582908678781534 -1.3658324770818864
Ni 4.507011284957262 1.9965862919843465 7.26125588355448 0.9844877417515432 0.8850624111736692 0.5706442624625463
P 3.732711505688812 5.300916061338109 7.95273965581741 -0.00494140316567536 -0.3308611247584947 -0.9900819480098689
P 4.6688152582803495 7.308508667490818 12.712021424955104 -1.0161341650122306 -0.5274520433457883 0.7679316928962323
P 0.5346530912372027 1.8342245662540775 9.036019395266381 2.261095997158274 0.6872383915102229 0.2787939717496102
P 0.844791317249968 5.718923602899599 11.22750297006653 -1.2258243399856437 0.7275391480117986 -1.595592169111665
P 5.396598486789938 0.9164039375699194 1.8430082370798264 -0.2472758465366709 -1.2470235997710784 -0.19849199226474848
P 4.70958695924525 6.744946339402101 3.5923419573736735 1.348866281541193 1.3316231781900292 0.4347738016837609
P 6.129355007596887 2.3374380838858557 9.414169020223401 -0.4642964937332262 -0.31225250851837194 0.21596443801789902
P 9.02701820100183 6.373222951763146 4.087893816105481 -1.0738713718226989 -0.5895141027838557 1.5648559163700728
