# total energy = -340893.49322889914 ev
CRYSTAL
PRIMVEC
9.08185190883269 0.00000000000000 0.00000000000000
0.00000000000000 9.08185190883269 0.00000000000000
0.00000000000000 0.00000000000000 13.29220827623915
PRIMCOORD
 96 1
Ni 6.392706515965819 2.1068806735424803 11.352915266050923 0.5931897518632301 -0.42518795776753865 0.14028067403133904
Ni 4.721999946722805 0.23258350425548244 5.989642119373362 -0.3607905653280754 -0.027518002914610675 0.4263405833147432
Ni 2.8590850625029263 1.6367041154878923 4.911843347448113 0.5380537301210346 -0.6135929981099304 -0.5498589502860788
Ni 3.5066483531283015 4.390739396317344 4.902657962371209 -0.17970108481049052 0.7018260595164106 -0.637813818330508
Ni 5.285292732969502 4.565973729972543 2.78526232062422 -0.3635326468495868 0.0016586186493455306 -0.1292688963018677
Ni 7.417729737940111 6.1528457237311756 2.6622032265051248 0.29706860168908195 -0.2880363162834846 -0.9515745359632902
Ni 5.299887269076469 4.623670735503068 11.411480496629256 -1.3356099307519191 -0.5566718594428542 0.005690108406241813
Ni 5.652172306779766 7.964756927318373 12.648028224523726 0.15765567497467686 -0.8362109368886049 -1.9052668896005316
Ni 1.9327270802710586 6.476250472187336 0.263259275636004 -0.340811036882355 0.4725006268105734 0.9169651734195368
Ni 2.9797465477033906 1.6801607771380673 0.5466166896694661 -0.06277374079311125 -0.6941343472991077 -0.8328116813990689
Ni 0.7245192714318371 9.027760454208241 4.854128178213659 0.08696447910670184 0.6547429899856788 -0.6471548932257758
Ni 8.669581294579976 2.258720156537104 1.7632115887979114 0.9440520023339999 0.6103276970950973 -0.829009019823527
Ni 6.678076468394616 0.9160319165482211 4.753254232073466 0.8613162165966651 -0.9178753439386322 0.2960627861323869
Ni 0.8179824263689908 7.337527903241533 2.335494500304276 -0.5932463161327783 -0.06821805173713413 0.7965221029394153
Ni 7.67144035442063 3.837055209449098 3.6918046100547257 0.894195226712873 0.149963962757374 0.48368338290027013
Ni 7.568978900557041 3.8780234436609975 12.63159915431993 1.0983210202246312 -0.2944483904574155 -0.3078993737559988
Ni 8.218948881953011 9.051427760427751 6.780368999811666 -1.0810858872932672 -0.2779552778983987 0.16203169255518546
Ni 7.06362832984391 0.6920289460288068 0.30416302869895545 -2.5890186081137347 0.1303983819206206 0.9830512664153329
Ni 1.71422680385694 6.593796882163974 9.463574008984718 0.4663289507822227 0.25399825286216904 -0.9183150025792121
Ni 0.040317065426044164 4.8406180152312555 1.4115132387315203 0.12629695815773734 -0.2284695124634452 -0.19565606547785014
Ni 6.192960263858411 2.16170781385222 6.91075169935494 0.7170752723659973 -0.6689928150364737 1.025586311564066
Ni 3.4096723378512754 4.389386200374633 0.6394432067839075 -0.1705818961180417 -0.5508267135159869 0.12858986795697208
Ni 6.234627800671578 5.991297740986491 4.655928565495807 -1.591501543982059 -1.5293615801182048 0.16331672991519616
Ni 5.132635883298073 2.915356217275023 9.3348650947585 0.17483912873249888 0.11329051859574037 0.02883877860856324
P 0.06684969594035678 5.574840337301973 12.503581369028213 1.2957267214037362 -1.1752839080339308 -0.2574854400798211
P 3.9727380777988603 6.158185852686307 12.669721136126151 0.4916969972333661 0.22299203428864176 -0.17358854415484942
P 2.331229662621743 8.577391415288247 1.1601184945019505 -0.05556308197728495 0.020204757082649072 -0.0755814340807408
P 6.465070712419026 7.856528497457321 5.764923498919144 0.006155992299066818 0.7030722732186859 0.03391079381483192
P 4.7733578195821025 1.0335964902287882 12.367070235779288 0.2111312782953138 0.23421952757334502 1.5504610811009814
P 4.01471439757882 6.060074605913718 8.183081923989576 0.5832053869570085 0.7159105626339348 0.8325242320656371
P 4.627575931847807 0.9468648039677288 3.459563491618305 -0.09521566337190053 0.7897305339388786 0.6663445787803491
P 0.3769004892679033 5.494720239271076 3.952278481693215 -0.025612301251465568 0.6413560271558115 -1.4138159469397005
Ni 1.7130461631015539 1.0280747242343669 2.6672409297898376 -1.4609206137369872 1.046860904672126 -0.3098858080584082
Ni 2.0561766940246273 6.847126060861984 4.9974180057688935 -0.887453537113665 -1.3206677076197901 -0.6586230417663754
Ni 5.89535705683342 5.801850309006837 9.316575153087177 0.6122513964803714 -0.7342327579818902 -0.5729631404037101
Ni 8.661471200775669 2.438568070990273 10.026232881964292 0.2333306972104885 0.11242817059544508 1.4295444134185509
Ni 2.4891085771727646 5.242290163917554 6.950323144734698 -1.3572172246090495 -0.2448579811237976 0.6038073794780763
Ni 0.36549459138567664 0.09817754429193008 9.175969920972651 0.9893818366190509 0.9943186117990359 0.36500691740226815
Ni 1.2931558193744512 0.8485846347485998 11.704467398300686 0.3478360620499364 0.47757727000253236 -0.8876993345758841
Ni 4.2296000969110645 6.678339842101586 1.583062156859521 -0.42836172750983004 0.48202990645724725 0.3015664895594355
Ni 5.768637976372629 7.761241706645694 7.874583219162764 -0.544566591538888 0.6556973834791481 -0.009932942842995795
Ni 5.2433981498572235 2.874914730477065 4.806369443287895 -0.07902465543433486 -0.36555507659625436 -0.7569206864977093
Ni 1.0153601314840546 7.649634827853845 7.07136152679169 -0.7515982458435314 -0.5521798851097716 0.48078369275497196
Ni 5.063704626887451 4.419565194452696 6.987793957755065 0.4108813113368795 0.645447937836998 -0.024512126208751334
Ni 8.139900442453927 7.379504223021494 9.152828453981884 0.31944388406048857 -1.6122547173690105 -0.633639118127528
Ni 4.6756734198518455 0.16277766550067801 10.308865564210985 -0.5000821359732679 0.10487169840442584 0.009156212577971327
Ni 8.275783111546907 7.263637955658289 4.610003456481678 0.5396658118031609 0.41124280844135624 0.3970706307060323
Ni 7.326048442358394 6.046297436483558 6.774826345557725 0.5872949836453499 0.9568812928881844 0.6743119132565419
Ni 2.3565771114546865 5.340128955131207 2.705416494522651 -0.5872721008272144 -0.10220237910237882 0.21747444690452222
Ni 2.4272430015905297 5.119140251278814 11.648068189415888 -1.28785657462704 -0.3082793828032368 -0.4333596949450536
Ni 1.2737479017262958 3.371392331820871 3.8486926945564197 -0.9101864599348066 -0.16826713194193602 0.4205463452304693
Ni 3.597176253510525 2.731475960549612 2.6921370105801454 0.3755088453748565 0.565549107327826 0.15787653273623134
Ni 0.942941443919061 3.4020254184971592 8.21312287391778 -0.016914516367151515 0.26666736368940525 -0.15651359095043366
Ni 3.4591321036499907 2.761436990180527 7.551954969049569 0.3824446532627413 0.36424021443957266 -0.7290388724857767
Ni 4.2820296283021735 6.745000635521081 6.117154045510656 0.26162594461075583 0.6125085067964999 -0.554126467313181
Ni 0.7560432877858437 7.453348761344914 11.597158960043638 -0.02058862278462906 0.11331880073051451 -0.24194414991111232
P 0.3566152647199763 5.742909089757174 7.946069200531002 -0.827121315882511 -0.3309346583089075 0.31231318655297824
P 8.19106759642197 1.8070070035263626 8.008714907196989 1.1591718329634166 0.1071070154928478 -0.7807188173585716
P 1.726687104752246 3.291544689348909 10.508461057575781 -1.0488630227038196 -1.0973409156995488 -0.14031486970338417
P 3.9115990503737867 6.4283073756666935 3.869986912857603 1.4549865076407396 -1.6172819953802726 -0.0830304341596183
P 6.9678057097663775 3.9892761302262305 10.18807874945341 0.1874809858662255 0.1601049078461178 0.5344937806839182
P 6.315565265379281 7.824106285944024 10.099606072170754 -0.2622494371273677 -1.3194250934619405 2.0296072382525305
P 2.5719078215331916 8.734997874280333 5.881163938583286 0.6302493757196888 -0.07194332310752126 0.5838383925553171
P 7.006158370612498 3.8648910857203176 1.4814035387095945 -0.261328210864679 -0.07626457619069446 0.7719379858421479
Ni 5.265812160505631 2.9355451741921263 0.3626901154990363 0.2971421352394947 -1.0010135073207083 -0.1326460403042167
Ni 1.5506263225682775 1.143904664189713 7.209108700092985 -0.24141861642494547 0.005381576026887506 -0.4399581740981777
Ni 6.871583488202406 0.5887156144509469 9.203445247720879 -0.5255625396325593 1.216073688356783 -0.31630251021802946
Ni 2.7728801236558085 1.4890695299528365 9.419164661063466 -1.0013186972659531 -0.17760949238878443 0.3493846374839789
Ni 6.450022083713834 1.966947498473328 2.583340964971312 -1.1424617192975872 0.01420843028989811 -0.4704640559965188
Ni 4.018955622446246 6.801571491408008 10.516994365681635 -0.11803188993546769 0.38405699205518373 -0.22764033169393053
Ni 8.165020844987756 7.033839855400322 0.3111306255261266 0.09809966978791493 1.232591226395832 1.0651144515656754
Ni 7.48264681578242 4.134876380921236 8.040815621150742 0.865197296818626 -1.1427375986667934 0.5646901017616404
Ni 3.260502919334218 8.422300629290328 12.382928057494517 -0.4168398429131595 -0.20516580474049825 0.260316481770713
Ni 0.040024629792786974 5.139792382646107 10.314142120202364 -0.42264487963071085 -1.3141869849914527 -0.3858457085244903
Ni 8.827015198384737 2.1636513301726255 5.7491991804277935 -0.059853481822522724 1.1109839604042804 1.063110019541137
Ni 3.6197174100864364 2.6994624323747183 11.463705686351163 0.1436184801553204 0.15439011684952766 0.5387993500378075
Ni 1.185880983969673 3.043074301451911 12.704027831922083 -0.7223871714972139 1.0738849986694539 0.23010036319864885
Ni 3.1065655285357927 8.254504332394063 8.094675544226261 1.0858874224469688 0.28552871937028246 0.3109702993718386
Ni 5.612321140359502 8.115779043636191 3.5291477331851753 -0.43617222469318434 -0.9727316296568795 -0.041298858748786936
Ni 2.969811001654218 8.27820796602143 3.264193783972594 0.9915780729394214 0.3302481737648441 0.11634936002672219
Ni 3.0783663781859922 4.488650842346715 9.439794087800847 1.3759083732606496 0.01473499221732946 -0.8471874905047668
Ni 7.216239770255517 6.161927575695684 11.586578602504986 -0.38317073279548847 0.38227367490251585 -1.331282507021159
Ni 0.22796447434633324 0.08425778978592736 0.6238242377753452 1.6052374055109129 -0.6112324682975538 0.22098451694030977
Ni 4.821709599441148 0.03173199076399394 1.2704175866109104 -0.8796700365135044 1.336633486920427 0.7376461545388135
Ni 5.81964165700531 5.353461113815106 0.3356479930895147 0.6309086065702425 1.1039725620834535 0.5207985425850128
Ni 7.839545434283689 8.828195839140124 11.516342283967065 0.18267919360220797 -0.2085275221238796 -0.6585911600871754
Ni 0.17430435201403266 4.651860804000903 6.001033486292446 -0.15264793734744034 -0.23418378923940314 -0.34338445403648604
Ni 7.7606332225640715 8.808951394827329 2.506524844685103 0.657744495816164 0.009345959991274227 0.5535988769444853
P 8.575375244152125 1.5006034819477625 3.7982747933754486 -0.08112473249647319 -0.6059879320691628 -1.6170215426300347
P 1.6635863973028386 3.2819542536743875 1.6433556638666988 1.0503007835916105 -0.38851168539242764 -0.22584184503261104
P 4.670732892383152 1.0226074493517328 8.215661251541858 0.4050431073885476 -0.27144704446623574 -0.35577819971514857
P 8.550917816811703 1.6043273132344182 12.587840975184532 0.17663478718034095 1.5089506205620207 -1.5206463117323938
P 6.333919688199553 7.511172912802943 1.3334347410222447 -0.1346849251111164 0.06343682829840688 0.9618576630568533
P 1.9686367229387265 3.1736985782574423 6.097814241752234 -1.0393815655759453 0.5853972524020047 -0.12323940227833613
P 6.937835598283498 3.9427770481679456 5.778867774425451 -0.1318816513343664 0.9658757830773106 0.2180408609309535
P 2.2626616802897006 8.55826503505099 10.261558197327858 0.3650948491303841 -0.06320697167578793 0.1941537699007108
