# total energy = -340860.06358313153 ev
CRYSTAL
PRIMVEC
9.35772563312172 0.00000000000000 0.00000000000000
0.00000000000000 9.35772563312172 0.00000000000000
0.00000000000000 0.00000000000000 13.69597735747809
PRIMCOORD
 96 1
Ni 4.891947675148979 2.3212681046763897 12.790618741503627 -0.826561586724299 0.986370817706869 -0.24655799453403993
Ni 3.7167857535034425 2.9343582260349494 5.402406003003378 -0.8595521827177067 1.4854024009284355 1.0552943801514598
Ni 8.40296639599596 1.7444017398967173 6.602145991467425 0.4215858422385772 0.7194242322141481 -0.7695990532963263
Ni 1.4647928929380079 7.2150779672599334 8.77210902765401 -2.6569499818483853 1.5533923958151634 0.3785203785076707
Ni 8.412960447152317 8.843537484471964 2.534728123714536 -1.0429358585861073 -0.3590473573847236 0.46434457336234225
Ni 4.773684736465439 1.9532848952451882 10.044177686158147 0.09778445254034128 0.029946152740129066 0.5230806537509701
Ni 7.008337731120083 8.840065768199485 4.911582991198961 0.4684051165849611 1.093640069809194 -1.8245645893534574
Ni 4.823982512650281 5.306756944492544 2.0814183631044996 0.08788339137654542 0.5571040618842663 -1.0806426291082616
Ni 6.305310507080124 0.5878280047839369 7.144985793686479 -0.48083922858325573 0.11318973135181797 -1.18947896858739
Ni 4.266149762151533 8.085889214926722 3.755998367703435 1.1119555802889303 0.14792456372984203 -1.288215757738672
Ni 7.165697248203672 1.8882206277450573 4.208034541831843 0.5681310091223893 0.6981151863237267 -0.2345889950976218
Ni 0.3477564851105436 4.6460827874316735 2.785925979366306 -1.2929064783461217 -0.6220642688057351 -2.3163716298021266
Ni 2.2098737367313936 6.376092345045174 6.575562564009584 0.02359552793175291 -1.5391667391340846 -1.5418663974534348
Ni 7.2821447880816566 1.3018280980991213 9.306485702657888 0.9193365018651908 -0.8922900392703601 -1.3778372148522464
Ni 4.967492595547161 6.293454268489206 9.542836590552472 2.053582775231521 -0.5002531143334933 -0.23284218760984418
Ni 3.057178377183981 4.67596200591692 12.241848012671374 -0.40085220923565157 -0.11138173160880173 0.27051450534963734
Ni 1.5620758103738426 2.7795533680952595 1.2487239399463108 -0.12830601816796613 -0.02965356120037474 0.058225202190480364
Ni 5.461683452867657 4.109810237180343 4.054680131391437 0.019776154185662715 -0.13531715937847666 0.8629709785912686
Ni 3.334429077240629 3.334616231756666 2.7530691325309173 1.5970612974580236 0.493530450897679 0.2909411486351054
Ni 6.8494809779081995 7.304556541377042 12.866508026211317 -0.1913265848645608 -1.2840107185183887 -0.12866674394149455
Ni 1.3497770851077033 5.176272815911812 0.42692658848435433 0.631449309565061 -1.5894346341507013 0.9469066981739754
Ni 5.676153170519821 2.9505190184947114 1.6027444867086 -1.1539779474673029 2.822338763801262 1.5014802803269043
Ni 1.0548683564630001 8.355663092067706 6.771112831635605 0.2341192545500549 1.1165267445993805 -0.9712661008549468
Ni 0.23588580892223446 5.23743491175258 9.79871892374064 0.5541156686799037 -0.614169953659323 0.3326534407722271
P 5.212337491152068 6.004581272986682 13.581246444092265 -0.6126092940404224 0.35336547650859784 1.3726433293561326
P 1.347475084560453 3.491096122614883 8.915944759408791 -0.8555895985255328 0.07088042906064566 -0.7858566528057691
P 6.17449885809633 0.606799858074569 2.7636021886934583 0.6044452701723914 -1.0212964259394604 0.09249543622726006
P 8.994767691155355 5.9621627019269825 6.267334048458554 1.276723440828356 3.739342760878534 -0.6632906224453737
P 6.698363063934431 8.284675384135015 8.59681449329863 -0.31950687608794004 0.35530923049853 -0.29149599269731086
P 1.7623311425330255 6.439079197417299 12.240068173223865 0.8156318271856726 -0.21385587631532843 -1.0192865945982832
P 3.0707190064192305 5.066806139481993 4.740232738269055 2.415255486054234 1.962280073760782 1.1926733071549718
P 8.925529877947609 3.846352824955594 0.06495852519857007 1.2263961533287138 -0.2710107282597655 1.9675636907572243
Ni 4.972124669819068 9.342397846967573 12.21240205689075 1.005913772835803 -0.25096255135963874 -0.8926903600325723
Ni 3.627363325741146 0.6946183716344321 0.6396829065422032 0.04064682698708484 1.277932887755425 0.5980149411660153
Ni 3.671475645170977 8.221463946343647 9.973177813181914 0.6617389616875378 -0.18451470414904997 0.6396092196680339
Ni 5.317106589229368 4.5867454481222625 11.932332809822592 0.5305895605335055 0.6983882374794553 -0.7503574314578948
Ni 2.249700217743986 0.5744464568873188 9.955811745638877 0.07326846967684801 -2.051056152154926 -1.8042880984926086
Ni 2.7565895089775663 6.08920318741264 10.016854998361962 -0.3153614864609988 -2.809764526680677 2.3396046321881383
Ni 4.322764003252611 0.3348409519588565 8.341480522842451 0.11968485215785839 -1.3461398837489655 -0.46290269870949313
Ni 4.125250484753364 7.019548286630675 11.985145006930386 1.1471539825669341 -1.5814264191342442 -0.5911256702453497
Ni 6.174414638564112 1.1681249118425603 0.6985205432937956 1.0933148252592912 -4.292737235121697 -1.151506345998359
Ni 6.195797042021297 6.596522934033104 4.429224042382301 -0.6979524354936173 -0.6415133786692824 -0.9361533163122137
Ni 5.192620762887611 2.5900032742533714 7.586708818208688 -2.3598376714055616 1.4876017225725993 0.14037271952451308
Ni 1.6776062931232476 3.7423229872166393 4.301591212853388 0.22617454578168147 -2.0584236482635903 -0.9580804554026081
Ni 8.241929292672252 8.860259740479837 7.140754230078891 1.6008840136382234 0.14126206410800188 0.12799414335450213
Ni 0.879332392781934 7.513636208967351 0.21422828832647683 -1.2402518282648836 1.7170449118032234 0.8188127960168156
Ni 6.9657975096249585 4.67417468028877 0.10565433893815279 -0.8900920031777768 0.041251293340303155 0.9755788692976876
Ni 6.982089310245946 6.850323173230364 1.879581575284807 0.02651064469601886 -0.1880224601919923 -0.11784599917690672
Ni 2.770317292728852 8.454396457002824 12.963667421666567 -1.0649126199675143 -1.4839168175218442 1.2622167625717486
Ni 8.820030877257766 4.4838853261085365 7.478620534789479 -0.4726335528440118 -3.0195611453249676 3.6063629913839828
Ni 9.320266825446245 2.3626011795430766 10.596933870409403 0.18168803333353226 -0.4841281837471727 -0.9252492678052001
Ni 0.9080147581371262 6.171906768049222 4.436058925307958 2.5927281957548383 1.6444505853752647 0.2749805115407909
Ni 7.201780638895531 3.7343876357366863 5.9658992418396535 -0.8040019562562282 -0.2273811644952729 -1.8029773501009854
Ni 4.368794656471817 8.078908351478555 6.145097819399556 0.14644180853672842 0.9150887823324304 -1.0619854190183904
Ni 1.3336724390027523 1.339876611209366 5.4458763824432035 0.6938178444999535 1.4330573116678158 1.6599304261784185
Ni 6.719483451069164 3.5885006904861414 10.390755097817662 -2.0719075416826382 -1.3033014484272005 -2.5501407001016148
P 2.795386640151958 1.2575847705080647 2.658307186426096 -1.0865211993762256 -0.8647419544487623 -0.10196840871470181
P 6.275375142240067 7.6934916988785425 10.717787027594888 -1.4240970171507346 1.0785934598887166 0.5755113607468605
P 8.122440491908673 8.472447510074556 0.3969303984265851 0.679552592830191 0.1469362316746437 0.3234501770064042
P 9.224443713235495 2.9747555283214533 4.734151152270444 -3.159529173211894 -0.9866816640790684 0.8355691895395481
P 4.333328875682878 4.120028873755943 9.838259058343697 -0.25852519419824505 0.1160562542663356 0.6514090405164393
P 3.282549845395278 7.697945976360214 7.846686092207737 0.47446777783927313 -0.16445367173311679 1.5122493459179502
P 8.341177332526472 4.012433742486491 11.388411254500847 2.575008666987888 2.541760189347403 1.3742512972732008
P 6.638192887028658 1.4842476048800144 11.23148219280414 -3.504721626991396 0.6573662865411388 -0.6910845047291905
Ni 1.148941573948807 3.310342291026716 12.508440263039736 -0.36730934028319967 -0.9554638437153673 -0.21187252733671252
Ni 5.08073979320092 8.062111233664268 0.636017485345626 -0.45092650018422337 0.18193408790606733 0.7654822029144752
Ni 8.138535780287821 2.480059353807659 1.5368941702411154 0.30446232304999177 0.4970811443634149 0.8280561689919546
Ni 0.39844635000648176 0.677915766850744 0.7388748000416114 -0.31543604845267614 -0.4772587103208491 -0.7946937914814249
Ni 3.0073391295634293 6.576488043091385 1.031225126452094 1.3105316476270528 0.4892930157775638 0.059426164477117016
Ni 8.920345697853394 5.874452737986421 12.933166850188082 -1.6593362442378456 -0.43541066393681144 -1.6387615054102875
Ni 7.505794434745416 2.390562064238948 12.816476945211827 0.9966356899679868 0.8834166480401301 0.8075238533665576
Ni 2.478215881824698 2.6056213186166275 10.615314315429359 0.8194679131023113 2.545141190004494 0.7847091694648872
Ni 2.1156975842617665 8.699737312075229 4.4727777055817635 1.1108883153666804 -0.830392530434615 -0.1535020578176195
Ni 6.603550586110279 7.336924914925575 6.510575029861027 0.05398673862910057 -0.16057799082779442 1.2017125345391046
Ni 2.7251756234608195 1.8826434231671663 8.19797418303589 0.4159777520231804 2.1446383936884614 -2.123697015550104
Ni 0.9530562997390791 0.37642668542219326 11.727687768489771 -1.8527662485986542 1.3653884475659324 3.2580263355485437
Ni 8.33243721662756 6.743822895879726 8.163158764190179 0.10413044936302711 -0.22711814064187336 1.0443756763564271
Ni 3.7196117866955953 4.980134883105435 7.901195780775983 -0.3459172477606688 -0.6081291467818817 -0.3638527491931669
Ni 0.4255837548317916 1.2410122381130217 3.1834796023312935 1.0897777586403103 1.5425150867810273 -0.5931265027254624
Ni 1.4310489336966052 3.617818445423278 6.596749390997509 0.7726735784565919 -0.2853034907333538 1.1388608893202063
Ni 2.083469576600261 8.612336153086128 2.017458307248985 0.012328953878998121 0.012599433931565396 0.32877081788836926
Ni 5.999771401924542 5.343776107764587 7.225559555930565 -0.007373409645935688 -1.1089841563654321 0.8333271875829067
Ni 0.06994057841546487 7.689065494574276 11.46064353996518 -0.9364680193391549 -3.242005020419623 0.8337398496402932
Ni 0.4821100333103318 1.2912725833946561 8.358997249770898 -0.5045735960857182 -0.7857910896751564 0.4271476525970708
Ni 4.593408148893166 1.3522568824451884 4.021727835752869 0.10164933481238624 -0.9163169983125767 -0.36267518394529796
Ni 8.233797428950462 5.330899877061268 4.507071899100313 -2.6506104127836028 -1.096079275378306 -1.8822855982140099
Ni 7.667589513859074 9.322437817832268 12.041503782117072 1.1491401597590274 -0.5180109525375466 0.4577571499528117
Ni 7.460418822332339 5.978941104289666 10.763805515770553 0.432122737214159 -0.6948812527674614 0.017687132867117924
P 0.7861696820166454 6.688350297326472 2.241511271894804 0.8497639929826913 0.279577386882854 0.054271359749054914
P 3.6640268954327193 3.7821775414066376 0.5947667584659947 -0.6115823954378048 -0.10834885831974889 -0.0771220390949833
P 4.284303750207086 1.0603894146860804 6.24129804796012 -0.19650298685917772 -0.6936962313204247 0.051308163355672926
P 2.931869070971662 0.8362307077387006 12.022123931981481 2.313736763282441 3.0089892833463923 -0.43707545323374397
P 0.11035004574551156 9.136219074375832 4.730672885589904 -2.6404622686060075 -1.1632945968825386 0.8309005804192852
P 6.99468480917521 4.710866323157749 2.624436897886369 -0.012115552316611392 -0.15728415056787107 -0.18118769665834603
P 7.1397763477326 2.963226810133598 7.934791887949716 1.5544588894064648 0.6541796612830412 0.6972453821242637
P 0.19728144689936095 8.94036187334351 9.935144272432952 0.3350877612453326 1.7863996482479623 -3.865918940839587
