# total energy = -340890.2604250656 ev
CRYSTAL
PRIMVEC
9.08922828006865 0.00000000000000 0.00000000000000
0.00000000000000 9.08922828006865 0.00000000000000
0.00000000000000 0.00000000000000 13.30300434115783
PRIMCOORD
 96 1
Ni 6.335710117439859 1.6740267758586758 11.447115743736294 1.0278640518546491 1.6060197922028923 1.4776821494660421
Ni 4.512729070403067 0.258405847825649 6.1276831345677705 0.6449334600944248 -0.5121763481336404 -0.38016099943488724
Ni 2.8659336221285767 1.4879430076240172 4.8955719053529 -0.6844598003238213 -0.1145830121549188 0.395652410202267
Ni 3.4894183173771784 4.106458749856358 4.9425314026705545 -1.0471522106602997 0.9825954098248368 0.23887579539843376
Ni 4.838868755441704 4.55261260359379 2.7909965715943383 1.1453503536992922 0.9299065640715535 0.315329861892115
Ni 7.135734891349221 6.150235327492297 2.5225425820316008 0.6251768462927878 -0.6257607438207159 0.07480496092603246
Ni 5.2596727518252315 4.412120403837862 11.5596722007252 -1.2475558181254642 0.11623083217098693 0.24516522795157128
Ni 5.550164483998322 7.947384788082408 12.491720740508589 0.061557094777190756 1.1848571535446626 0.5783642568146233
Ni 1.8712902947370418 6.540663123346335 0.3431838056948 0.440614576735254 -0.763927971053478 -0.8756503738311499
Ni 2.8570534462107697 1.8705631564837926 0.27638979467413705 -1.4288882678917907 -0.8827653876093765 1.0602218993600645
Ni 0.6770766023587073 -0.17023488108227355 4.644224752120667 0.9078387856382364 1.083980692342559 -0.45081311453481065
Ni 8.83163035017437 2.3070733391375056 1.5752623136882744 -0.44908713298263947 -0.8671050553643003 -0.6190923306616047
Ni 7.131099384984758 0.7078799966119802 5.0659440337804735 -1.0598148937296328 0.4645523184977742 -1.222235851303437
Ni 1.14652433003898 7.21102096824502 2.4356204752381805 -0.922839629922443 0.12932751745394502 1.1785345537607446
Ni 7.612973905413061 3.7945982422659044 3.585984095254317 0.2627855121364958 0.5161507594003563 0.5277837156535943
Ni 7.543713986791065 3.77941014200116 12.755319264385253 0.43830238366230967 -0.8191357265738731 0.7200595518053019
Ni 7.619654488114788 9.073758299278216 7.34707671573331 0.7661419479856612 -0.11546952852493016 -0.4075774437746271
Ni 7.299786370510426 0.5292539400872099 0.5616479492694657 -1.4596299199500216 0.6834308448386746 -1.8135103884218253
Ni 1.9723988688513552 6.709986354843598 9.063948295319067 -0.5581697841446193 -0.7630424831247311 0.39882926526835183
Ni 0.17468587611497574 4.570927398347506 1.5084146762214343 -0.6559488373683219 2.0467428694915526 0.09526914231765526
Ni 6.338264190554397 2.251465441220266 6.8302941056121425 -0.17734286899095908 -0.48369392442323156 0.44367418949718423
Ni 3.5740753885117265 4.466573969778068 0.8782030432074602 -0.23484507697248588 0.9349703517477058 -1.1699136448609528
Ni 5.718496989625532 5.677495481370437 4.754280762441213 0.5387548699531174 0.06468766998637246 0.5969649026349461
Ni 5.571351474852373 3.0464093365850498 9.067274043904867 -1.085904391727833 -0.3801522576841388 0.7713594876308587
P 0.09359632703543173 5.618742710507895 12.762796063474289 0.45939082890149274 -0.850317037272684 -1.0964410295930989
P 3.927473668819046 5.842010511168089 12.669142474301415 -0.1811308752784816 2.013628860546403 -0.9231962419309132
P 2.3657624854028887 8.6194059617354 1.4063799097570446 1.017608435564912 0.9226727653272756 -0.7183176294135306
P 6.30578837831865 7.940686026924348 5.904206281659767 -0.46112220977030266 -1.3115449193829154 0.21682395780471692
P 4.617255194307652 1.1584039512514401 12.651116717003363 0.4282264874835464 -0.8503409485320839 -1.1095228024777215
P 3.9946794218756114 6.140864333253546 8.264637934743522 -0.15090652917630137 0.3058915992973506 0.23692509942996615
P 5.086795632115214 0.8274642448185415 3.80524445521629 -1.0139890936447697 1.0353860712633072 0.4411452524277435
P 0.02037623170167816 5.823886590205851 3.621929265880879 -0.20390930662557785 -1.219178552534352 0.5982149729919632
Ni 1.6766262951140416 1.227136694639829 2.659789018409587 -0.5396915228347738 -0.8733217256979734 -0.713581657390442
Ni 1.8241262897856598 6.392672310353774 4.97509719826514 0.5569608514381827 1.3807369049975446 -1.6002651491073023
Ni 5.88716579669487 5.614043579546271 9.313779365293275 -0.553976314888562 0.30215990016906025 0.37182805408915964
Ni 8.469115574016937 2.1341962194274875 10.262509365529016 0.6270984887955329 1.590200051561816 0.5725916159969042
Ni 2.3733338124648466 5.228405806935513 6.9120280809686285 -0.3457835503962819 -0.8005988441119503 1.4306625861833941
Ni 0.4884542126973924 8.995654561651078 9.244470364839186 -0.5457595834057246 -0.21815090414625654 0.10834500166500695
Ni 1.5323347979848863 1.3810082382555438 11.4707150157455 -0.4620089832506301 -0.8658516425731734 -0.5059825606181028
Ni 4.150850540217227 7.303403883320342 1.2276156969641572 -0.6544041185890214 -2.0977936654207805 0.4137691744076358
Ni 5.600400648069682 7.978424502267987 8.165597160036885 -0.0375393917063547 -0.8997328687016504 0.11051526984344838
Ni 5.401092052854053 2.971259598111736 4.614785651015054 1.1571411756866328 -0.896844491410262 0.312762615385571
Ni 0.494121346458654 7.484824877506039 6.879528636739652 -0.18041610859964413 0.00767397160549001 0.17863202011602786
Ni 5.1138724428205835 4.517255506029543 7.017294976968711 -0.8564180079640993 0.4796788897265674 0.3746210434532645
Ni 7.893312969725158 7.049941666693972 8.989678394132184 0.7363698589295511 0.5004030096477963 1.0723608487154437
Ni 4.761637583718463 0.3642062815190535 10.42813146331724 -0.9713404057363079 -0.24725527771138062 -0.24862696124792666
Ni 8.026833731478058 7.557693219709783 4.613881272812574 -0.8208203133651477 -1.8747532943927068 -0.2358722326854196
Ni 7.2561035399464755 6.155916095095806 6.891967245484297 -0.061683078832093764 0.3083084362689593 -0.6181096550333612
Ni 2.370016244184397 5.088913422277803 2.752644573349521 -0.6160144630672293 1.0427000884262172 1.0816211909714468
Ni 2.3875857222285326 5.2774603713453425 11.23079484016308 0.1278560751147411 0.9320531781009109 0.6501360873412868
Ni 1.0063775209533454 3.2595517370687475 3.6732652265602783 0.054659339216092964 0.548353826495462 1.2473619569471035
Ni 3.664131461176651 2.5352493230071316 2.903273989278561 0.42183163970079607 -0.06820596755227608 -1.0153376372528644
Ni 0.963221865623 3.431710807753682 8.198309292204938 0.5586955747411023 0.05444362366086107 -0.4500965480837603
Ni 3.852869284035669 2.404682560408057 7.036530510535604 -0.9492461449404297 0.8897536460017514 -0.17205976621514882
Ni 4.04017100884452 6.8374991367790265 6.196153199262173 0.4729564834010694 0.8491379293629182 -0.5403695227384049
Ni 0.8934765822169616 7.430098634720864 11.380121769695988 -0.16538698218066356 -1.097409307043639 0.32736930955515237
P 0.19641458496769756 5.612525678442615 7.969417077155861 0.5226422806619709 0.07563362747491491 0.20798141981242244
P 8.729958243913789 1.6731996560956046 8.201581414344561 -0.7577904906971723 -0.5012337330792077 -0.5667690957778562
P 1.672145305628393 3.3582880226318346 10.34589303579756 -0.15610581398905374 -0.4766316182598114 -0.8782057932631522
P 3.730800949771445 6.413550267450195 3.749278441709326 1.247434719166568 -0.8611354680444266 0.4122056865752579
P 6.935608265598686 3.7958980018935873 10.565791459576761 1.4506182033697146 0.3952063238037839 -1.0749404365171615
P 6.269722320957485 7.518418664806156 10.549800780464993 0.3960445034343631 0.37700677007662164 -1.4787622699040985
P 2.3077277635654294 8.40956295107582 5.988294367111148 1.2744744968931794 -0.21342238832233568 0.03972251540060256
P 6.6000975863213 4.11806569422385 1.5848269084869524 0.9756092083149908 -0.5835625131861111 0.18014614276770913
Ni 5.09683922923822 2.9744226495133703 0.3916203025893682 1.8322102788241736 -0.8311602618385749 -0.14410621842501634
Ni 1.414129385691049 0.9080111669765982 7.124197934038605 0.40780421507345255 1.258156733569762 -0.33630389304062086
Ni 7.058358291975332 0.3571239549324054 9.631587863795307 -0.8035982930599063 -0.18993947470904707 -1.715110928005304
Ni 3.018423603063118 1.6908054910524029 9.320443587384304 -0.6563702411764567 0.24456950334910135 -0.04672260086751954
Ni 6.4434265604305745 1.89708552427106 2.4471138042536023 0.5127538179036653 0.5802293350478201 0.5178106636012824
Ni 3.9627671417861334 7.2560217368929845 10.785902571295036 0.19845831081333562 -2.3129371501992813 -1.6780394770743037
Ni 8.27706018287747 7.263502171673287 0.45241542302072457 -0.06104184570366906 -0.3782306151813937 -0.22618765840780397
Ni 7.593077584958527 4.093542956633018 8.274375224877346 0.6703675838968132 -0.39799674206472746 0.2660826948305289
Ni 3.043509872800218 8.46282582812633 12.514628322254389 -0.28621546102466194 1.3368085790457105 0.5372597734648296
Ni 0.1673281459149095 5.043567262959543 10.192987677135852 -0.5137701749833217 -0.30644335803576256 -0.09366554527596126
Ni 8.592683630928489 2.419525270002508 6.11582987211699 0.7813032291071318 0.2804741876655105 -0.5649284430246916
Ni 3.389754930541198 2.9711050812329205 11.523833374068175 1.4379462643290009 -0.36025680431179247 0.1623569371050881
Ni 1.0550776054647164 3.603997127632935 12.444388584836142 -0.8744622670603198 -0.17130694720952433 1.4057858775463725
Ni 3.2823293428517815 8.584866894706058 8.285044160898146 -0.2460795122357246 -0.046093709034269 -0.5462349803802463
Ni 5.627841027901677 7.773135194919382 3.534329102666304 -0.4431579119823981 0.7036682549314721 0.0388586247384105
Ni 3.1451183544636403 8.527086671257237 3.4533131763349014 0.5320345205101481 -0.12265833296388554 0.8346947573543947
Ni 3.3366102134568405 4.226636524662134 9.173525303315285 0.559206967159882 0.08915325922790451 -0.3499225122653199
Ni 7.342051281480542 5.915805954644726 11.614227566020862 0.5820509616375912 0.5543357551105098 -1.2625335224812193
Ni 0.722312782016162 9.085210726766892 0.15795078921644337 -0.2604401518327708 0.5032165678371915 0.014634462083723184
Ni 4.665864386537367 0.4735951424922432 1.5215976927528438 0.15025501163523156 0.32424516210387383 -0.0022965093436605613
Ni 5.998681537058814 5.755090222220303 0.19333879015645308 -0.5512943971810247 -0.25256666262196503 1.5342225077549319
Ni 8.069625817681779 8.685511918183925 11.507909955244834 -0.18760928391397366 0.07920360421436037 1.1328288241935134
Ni 0.3266468639702781 4.729243574536207 5.687007358645755 -1.8713892630164801 0.4587064012399584 0.10042574681793028
Ni 8.314671409026788 8.739338327380704 2.323183087138243 0.31046842003475567 0.43626041353161643 2.388518584280022
P 8.635839286258834 1.6366155127289996 3.7927658538677163 0.007462626925632309 -0.4732860988263462 -0.9514485519083872
P 1.9776524427310813 3.349716880471659 1.6022273268872078 -1.6337913058892055 -1.9262494053894696 -0.012367263316101282
P 5.131396474723892 1.0818362931842902 8.28279639477279 -0.5653827569532909 -0.7245070460536942 0.205379206302885
P 8.609735022967184 1.6409056284231704 12.480771856260287 -0.019040047350586564 0.29756842414363593 0.4696281903587848
P 6.2732943876265725 7.792177127926347 1.3072264286211552 0.7146923739561176 0.2555475996271599 0.5051626358199687
P 1.7571932135740629 3.131002783122439 5.965932139055282 0.9590132516295226 -0.6619505634777116 0.37942823503392076
P 6.976718844591768 4.190688627267122 6.024424957992289 0.4308942641236966 -0.5873875433591561 -1.493647928766679
P 2.2940302967198463 8.65222716464144 10.302059324046061 1.238863689668105 0.7214425481957575 0.11153651201911115
