# total energy = -381159.58590334194 ev
CRYSTAL
PRIMVEC
9.34354001790829 0.00000000000000 0.00000000000000

0.00000000000000 9.34354001790829 0.00000000000000

0.00000000000000 0.00000000000000 13.67521527571644

PRIMCOORD
 96 1
Ni 2.275890165808741 0.05162492802797637 9.89534533636715 0.3197390467034042 0.6970841739560512 -0.3119869135618111
Ni 4.667182395990452 2.826476956133899 1.0779408680713032 0.054138947936248696 -1.9242431735927181 0.5133199748197804
Ni 4.609476692033893 9.406795915211353 6.036308152308744 1.1557782339008353 0.82258871811948 0.27157817072746127
Ni 2.3574312406838858 7.125617305678614 6.587009868177728 0.31257646751669393 0.18899150897348094 0.4274970655166896
Ni 0.5682077726910383 3.3109862305295255 12.857095263707636 0.1821184360027315 -0.14521642077005958 1.3649145932533073
Ni 6.5769085669232865 2.3928526013864957 5.079221304287008 -0.4999337833208616 0.0512845092065891 0.19866399906623852
Ni 7.396832245566414 4.924157780692081 10.864069563643728 -0.056295846378251434 0.38509443218076256 0.8573004105690526
Ni 1.4560692661072456 2.0831329325471124 8.72119123232566 0.24879254029151346 0.30213213225491836 0.2648755618963051
Ni 6.880274628461753 0.7489183796393266 9.646469866620176 0.48471876614332005 -0.04794284642786582 0.10388053813575013
Ni 2.3456116623961516 4.744518877798814 8.069115843262523 0.6251855880435362 3.265275046691157 3.4429174492004058
Ni 3.549012915810185 5.573374980823819 5.22700901316837 -0.25637086685940363 -0.5204642991740456 -0.8678475899572796
Ni 4.12125803219935 8.437048570288525 4.195172909605365 -1.7931433947296989 -2.058777174948267 -2.7917909729213917
Ni 8.737901219527071 2.9271162270723874 10.674203221704015 -1.102456382549243 -0.40354466846615017 -0.28909663922719886
Ni 4.997551288557815 6.252977373518176 11.810955134531435 1.0539658911480236 -2.754013754172618 1.3197943038759012
Ni 0.7576536553240718 5.570347673815736 -0.05753471717184357 1.1278084881607866 -0.5143065071027659 0.9550249564057358
Ni 5.320903182473724 8.36982179892074 13.221813812922587 -0.9058099281336659 -0.39647027811787205 -0.030704113952076156
Ni 5.685871204210636 3.4677241165190473 9.764677796099713 -0.38230452814045124 -0.18807439647585028 -0.35414606342836424
Ni 1.0138955721240497 0.691559321022273 1.258694455304274 0.7261055008890656 0.12779539708013476 0.6901583933704953
Ni 2.8705691220942304 1.613862972133537 0.23382302656789103 -1.102153506596844 1.5328698503817795 -0.5132204731274387
Ni 2.607679276478661 1.3244468160366412 6.404527726017302 -0.6666070884131166 -0.23610286063898694 0.9055296778890857
Ni 2.8776982432274645 4.22029955777246 12.489245694188956 -1.7048396279862834 0.34024565129718826 -0.615813917020649
Ni 0.14054553091233268 3.906636914990449 7.821635364059707 -0.8039839585340993 -0.979432952936455 -0.47186299322657443
Ni 4.09703957613468 2.508647094445699 12.091228636593115 1.460818026720852 -0.3810452018120534 -0.7519918817375243
Ni 4.557732166692017 1.0323864380777465 10.168138400186017 0.3353127327719451 0.876321945976878 1.321691006677982
P 1.3692117168876576 8.630684096324105 11.872835532226304 -0.37189258877850784 -0.3133405993762281 -0.3126967951446421
Ni 7.0091594212688735 4.127378050996556 7.436076048543736 0.6241550898964927 -0.09146776629369409 -0.7307530269634059
P 1.288436812304682 3.694921638767703 1.43892013251886 -0.8557158396907522 0.04562268293512142 0.049155635789044375
Ni 8.896049980079002 2.088972645139866 2.2819008651862114 -0.30675369018732973 0.8727447701485809 -0.23219529805446462
P 7.614256424819837 7.006262923822868 1.7449575121857563 0.11069396151315773 -0.055934863494406885 0.8836796718935297
P 8.813350306225454 0.6851421776483473 4.022728532626372 -0.5834069614448533 0.8222650162314742 -0.3562299425405865
P 2.0147382186607756 8.446747164962572 2.7451629292843607 2.5068934593772054 0.41902322371772344 -0.13850095642309693
Ni 2.727556896582718 6.493984648106177 1.4201844658132752 -2.6038263625505285 1.2393411435251558 1.5972749561307267
Ni 4.847391254832772 6.935962127746256 6.506434915353929 -0.180719755882992 1.1591240104446165 -1.1961851769629723
Ni 2.8824541051630037 0.915982746200867 4.27454441445805 -0.17657282359415397 0.22717984711774425 -0.7194951946613996
Ni 6.517203345374968 2.538144650694219 12.016384076942334 0.5954646639403357 -0.3199457633975716 -0.6907862567624813
Ni 7.887713814343253 7.98378409414917 13.38777657610063 -1.5601986201037195 0.16324705301952533 -1.0541456112589975
Ni 0.6503262783473545 4.806382457121415 10.823140186023634 0.23715701293511415 0.8821796903092355 0.634456728932817
Ni 8.087189052971587 8.173691547665536 4.837498314523638 1.1986205258773421 -2.078118812699673 1.0339470248239355
Ni 1.5745827293496355 2.134167348837709 11.309007076802823 2.656059865933948 0.5098363871465542 -0.4075203652844465
Ni 3.9639315031804783 7.7395906723705625 10.713136819148414 -1.899005224961536 2.0873948386849595 -0.16995351850542342
Ni 6.027910178423357 4.128564680595404 13.606689181299693 -1.2447548583415593 -1.8851932587791078 -1.0035352453012976
Ni 1.5531860224097842 7.213334460591855 9.745751521175102 -0.7642863828341612 -0.16135420687218663 -0.3506976998684476
Ni 6.063985586936355 5.394306033879606 5.045196802836585 -0.6066348216245423 -3.1691684960738713 1.303196290307904
Ni 4.461054556776453 5.918544040986258 2.6738193941271873 0.11136810476204691 1.921743032878684 1.4503572363988442
Ni 6.4665800448509 1.25543542850051 0.6699103384984149 -0.7235253988667153 1.0192135752685028 0.645135805913218
Ni 2.759764079474276 6.53173255030574 12.705218821657331 0.09617468485106018 1.14765766167623 -0.3476288311351368
Ni 7.225808086689979 6.6753147317663055 6.573156201199686 1.024049306094249 0.21751404189320606 1.40262547754052
Ni 5.830621328189751 1.7398979851953942 7.300321885019507 -0.015064607642606311 1.8562146121585708 0.8599900415860737
Ni 5.602003587838537 8.224193382167673 8.198045485062357 2.7571728686268906 -0.6596975057774769 1.0037848994182583
Ni 9.093077211188453 0.48897455223254993 8.16630547917822 -0.43828284327828393 -0.1713272589244985 0.1697645424230689
Ni 3.9071134355380175 6.927310009568831 8.630017901911524 -2.2925601292048263 -1.2126795750735697 -0.034423471785192325
Ni 0.8073061620267196 2.602316084433476 4.326263712241524 0.7554893533678215 0.01770050260355661 -0.5408464623748234
Ni 4.475695884189007 3.808576461132921 3.3030292717391423 1.6381169298477531 -0.8994346207349412 0.9848569521655038
Ni 6.436185508748133 0.10379178138456031 4.375152851714048 -1.5441245973599922 1.3920867827927252 -1.3638892373125866
Ni 2.911484484404103 8.453446483248978 0.44092820008141326 -0.4250876847442486 0.7037055359273108 -0.28757068950097575
Ni 7.775114812014806 9.177094324202924 1.8566838278643436 0.6158283151983523 0.6278929596723701 1.0109068551750202
P 1.905101118559372 9.082939470127432 7.681874690519841 -0.636086037006124 -0.3236514943839329 0.2597364408975269
Ni 0.2318216402681023 7.514458072494705 7.524937787125158 -0.7885203156808614 -0.279475314087351 -0.39867628463025534
P 0.41990336603946865 5.294311467211358 6.072793742234258 0.4363149209186357 0.595499116722697 0.2110502885457333
Ni 8.85782555733187 5.715079110714554 8.941758578485008 -0.996931881052167 1.3352769728925327 0.49805996333691643
P 7.548860987321138 7.784327542601134 9.006264510961577 1.451514489931739 0.38388061437831955 -0.2025743898642382
P 7.655433406253865 2.6191624873210526 8.81073598369193 0.09855346949588188 -0.2848242371040901 -0.35075709235147334
P 5.218993190075053 1.7304983838060972 3.28284442195654 -1.1329051859574035 -1.0398286804156929 0.3535359406481911
Ni 2.085244572620652 3.528615967666213 6.466297869938419 -2.005051917510669 -0.3678724118755213 -4.273267813543176
Ni 7.07362984829288 9.284731906712569 6.9025374815733604 1.5791376231000676 -0.46734633630314354 -1.0919189733530292
Ni 2.8678408083708957 5.59312722469755 10.523953489993549 1.1327766307993394 -1.7792064729336328 -0.5849737917113409
Ni 2.384798469778569 4.42389529760624 3.2972998129201394 -1.919473777228533 2.497335383375125 0.3023506760236277
Ni 4.925250974889444 4.982554906619622 7.6064695184601545 -1.7091732223646305 -1.6630252630536586 -0.5598178612710036
Ni 3.777023326051752 4.793665898979434 0.747925161321551 0.8520815853722745 -0.4761773043312122 -0.4926691313386483
Ni 0.47708022562362823 7.91887452073819 0.704987856923563 1.570597189729224 -0.8875589523432778 -1.6260779964053478
Ni 3.5981505934506557 2.7610161138541622 7.927535982455763 2.343232201638397 -0.1901968421354918 1.211056694758166
Ni 9.2297264858589 4.772269192039582 3.1567047612450203 -0.2921269414130904 -0.550613054843284 -0.04334417131358987
Ni 6.653572313840962 5.247715232491253 2.8456209355439697 1.303480397207226 1.5519849739446754 -1.2052110346106664
Ni 4.148597230673587 0.3121545954020581 8.15859238678571 -3.971385078294902 1.2716503971808228 0.30785849321573433
Ni 1.5228382040077595 6.520725860010917 4.375097724827172 -0.353489660791288 -0.018438152100529532 -0.0017331806410228214
Ni 6.6617292243905215 3.0668955876925503 2.6372375657381455 1.6767171587184542 -0.8373766750619319 -1.0565030557475805
Ni 3.2959898485913333 0.29652845885786283 12.178134772221476 0.17064360259391256 -0.7717909187413224 -1.2732305971837492
Ni 8.169253366095043 3.9691265115029926 0.5398716184829654 0.3704504570153426 0.17914264120385923 1.0168237348800875
Ni 0.9654680035348583 9.151418275875104 5.328260285986579 0.2826706810961971 -0.33264135658736904 0.4118251633073875
Ni 4.278911585123415 3.4087103169417103 5.648397067737421 0.5890009105928631 -1.021221606837467 0.4763572815525023
Ni 8.90497306092073 1.9291046732006287 6.118250065056256 -0.7608493321281542 -0.1427209080417155 0.5775168212126635
Ni 6.1793969948494745 8.02542825259062 10.90549228018366 1.599535212919813 0.7987911014792501 -0.161694878041057
Ni 6.492003817594715 6.144424124073987 0.14137710598554087 0.023231716834430958 1.337343368503258 0.17147638290785308
Ni 8.761914117708475 7.658264498918832 11.026230440335386 0.1449423411730665 0.02615686090102592 -0.6577655788620865
Ni 2.7242212527497367 2.385274990326138 2.6137030568123385 -1.0921431735486933 -0.20507118814416295 -1.5670686077506752
Ni 3.8744203885587427 0.5307149491375269 1.9248963427177863 1.3944218586838049 -0.7277597486630369 1.5431920582433938
Ni 0.0794144851373674 7.817889538814211 2.879001667078167 -1.2638476133069525 -0.8682707935376273 1.5746402494503462
Ni 5.549464861584047 8.112603482175253 1.9273434158826541 0.22845228607226462 -0.647623091111446 0.3532865436415464
P 5.753097975578421 7.270339399037285 4.460431342648556 1.4596114080072604 1.1064174240795204 -0.7782708700387112
Ni 8.607101000989525 0.8470348947377446 13.120247662801377 1.870166703463289 1.2415777461651585 0.022783316443102695
P 7.835959945461229 4.080277265108438 4.91864696071255 1.2006727804206805 0.5340659491178802 -0.6804128839479573
Ni 6.110731318298833 6.083803235591126 9.161833520078533 0.7035109034180013 -0.2553707077296634 0.775901084254954
P 8.442439792954156 6.036366082257666 12.475926477707404 -1.0389385645012559 -0.9479323112250125 -0.4168979498446046
P 6.712782327761415 0.40931806940533877 12.44043877786974 -0.845398516925144 -0.3868723500167918 -2.2425136061703963
P 3.188940909111038 3.221054656601112 10.002326068004361 -0.0020427414616416436 0.2636943971040104 0.7640516411155358
Ni 9.372131381260767 0.7630523528218213 10.552972656986471 -0.8213440470791016 -2.004023476246155 0.10311460650400306
