# total energy = -381168.0938237372 ev
CRYSTAL
PRIMVEC
9.26634321885004 0.00000000000000 0.00000000000000

0.00000000000000 9.26634321885004 0.00000000000000

0.00000000000000 0.00000000000000 13.56222995711202

PRIMCOORD
 96 1
Ni 3.928994401586459 4.041747266229033 8.476596905533846 0.19843954176025824 0.24374083680021896 -0.6202696387991576
Ni 0.32898761750802424 4.8252721859132475 13.651876481979048 0.47248622863287015 1.3813030619136597 0.11757911866876525
Ni 4.436771478894462 2.41094498531385 5.268695435997697 -0.23854669419378918 -0.5199372230259819 0.03065397744043108
Ni 4.483075396105092 9.196178497000394 1.3054693091841996 0.8753919779634408 1.4082435950582457 0.23200297953800045
Ni 8.348067164877099 -0.04344895685589801 9.850844720842554 -0.751517513204267 0.42711062871154826 -0.06818025652066322
Ni 8.836894570242789 6.292189920142979 3.3752460687904313 0.055340681553833725 1.0948446316402562 -2.2460846113511064
Ni 1.9247677541171087 3.6669978125903913 2.270412550247872 -0.5670832845841653 -2.1110145349864284 -2.8737325448922055
Ni 0.07599606088043599 1.84192664547932 2.718942482096335 0.14331329021007577 0.5850848633679084 0.22488770864945784
Ni 1.368944687067837 7.7004146362394055 3.9012435568271244 -0.2612955578545306 -0.5887283736577668 -0.9658117626085949
Ni 7.27639603555075 4.903183599943061 5.018486562247505 0.5434237361836963 0.8287943327095598 -0.18796023949548918
Ni 0.1603373904900882 0.044797209798492894 0.1948359864026707 -0.31107417193955456 0.41474465094702767 1.0013140692802627
Ni 5.217998345453154 3.7445849046065223 3.6312056351603776 0.3054653103932094 -0.21897057183407448 -0.7961703760269514
Ni 5.795032072197269 2.8914048827265293 1.1759239773074641 -0.38656227497554074 0.24515211532544878 -0.47027045192847394
Ni 3.2757357352836807 7.11833075242509 4.795821893802216 0.8543654963104447 1.1759364540162651 1.894846465598156
Ni 0.9155082264695183 2.4911359197826894 9.207668762628007 -0.3732200493406798 0.055381819204414304 0.015437674711308896
Ni -0.043243244035790745 2.803921336121455 5.568719244415214 -0.9546662875147366 -1.1124682582592906 0.9012464771326995
Ni 5.3527865743396505 6.805128350640161 9.340267354604984 1.1448698145184475 -0.8600766877626091 -0.029275094815033452
Ni 4.30076009269922 6.27793828422744 7.173904719421094 -0.38649542629334727 1.5518253084383595 1.3807088799730864
Ni 7.755160192149032 2.3137410446415454 10.103359987427192 -0.24178551284606098 -0.3176163439334465 -0.11934186699614285
Ni 3.801081799390034 2.4411810633323183 12.448187760397378 1.1094040175116702 -2.6078928193104183 1.188242782187444
Ni 0.22386929306753875 4.332645579815845 3.7633427632435996 -0.10742840338800855 -2.3921122151685514 0.4902191271362589
Ni 9.182204851382297 3.3360966952016398 11.68330487005964 0.07038806280525942 2.5616592422641755 -0.6985409610072356
Ni 1.0606163818313954 0.5737043296150817 4.506131911374952 0.3126476870742616 0.6390865143953445 1.4065898615049066
Ni 2.3824973115422603 7.9495310081206485 7.022658538291692 0.23072154172241555 -0.8450077092446285 0.013964689710208207
P 3.775692018890309 9.361879246962468 10.41019177822907 0.07996182253662358 -0.7447411137123818 -0.630587475785398
Ni 6.91973448393235 7.910399240584029 3.1250900131967536 -0.7419787204758963 -0.1546351429807982 -0.6523672906646507
P 3.2312480213496735 0.18090589259783985 4.415238350454587 0.5849529657757344 0.02357367355488198 -0.10479096576516145
Ni 6.246154726886544 0.5405382338615724 11.413973043748399 -0.02002015187566875 -0.3102254507860141 -3.038467495311167
P 2.3292621695820706 4.811613595965585 6.660180503016475 2.1501644657130132 1.7190210616929875 -0.3323351382008599
P 6.371963869165655 0.7765362436065162 9.133930909597126 -0.5098890947613606 0.5092049242101424 0.24499399248102968
P 1.4749238547960686 5.762034623890875 1.9242228931341216 -0.3946730770081332 0.8212116352662953 -0.3993308874951187
Ni 7.202552546206841 1.0068623246493136 1.3929222768565552 1.1647745238621747 -1.2133436910201296 0.704343940842258
Ni 7.945565013210473 3.3428518594294863 7.917331391967913 -0.9400302827691166 -1.775034086723498 -1.830847851259008
Ni 5.718686670176381 0.378964713182191 5.781497651249132 0.03739335304679366 -0.33785452535719235 -0.11355585644198507
Ni 6.782518473114859 5.139206628814774 2.6885498028769748 0.23328030358852728 0.6467003221868605 -1.367603195829064
Ni 8.287622807869907 3.6039310804439944 1.4744855567604347 -1.4662494821490684 0.34277201726346773 0.9634028960567861
Ni 4.130963619021498 4.616019622685222 1.2873054231493235 0.2941231459075128 0.2710564938960364 0.555697668455043
Ni 8.47479367513777 4.673276357615076 9.678305409563402 1.2737874981284836 0.747362610495629 -0.013655385999905515
Ni 8.619969474805357 6.068194604807267 11.735858935791098 -2.690824265998327 -0.586245716445229 -0.4438780779778742
Ni 3.5713784166135074 2.0504934993069877 2.9482659447996906 0.5475423863377602 -0.5656239264298195 -0.3392496059325061
Ni 6.92859310807751 8.050469285121927 7.052251532088744 -0.6637595916619924 -0.12077474278792749 0.13506262016550935
Ni 0.6166575371072077 2.6391286877976925 0.2936031591809258 1.3954197038207 -2.3556606572097367 -0.586969224874815
Ni 7.876641952131292 1.8574570367630932 12.755440243182719 -0.5834552981842855 -0.5860297437796811 0.1925540295137587
Ni 7.619056142521308 5.925650446622131 7.152517072570212 0.385071292252311 -1.2708099035573985 0.43191293519619806
Ni 4.134512628485511 6.527267782003389 13.32067328180041 -1.096785814527027 -0.4022632306505653 -0.046783793122758134
Ni 2.67249678983401 4.444759066774303 12.824770096730491 -0.29973894943239343 0.6807550977787244 1.312607813429791
Ni 4.722276780710895 8.881928998428434 8.324673354713008 0.1924738110951266 -0.590052491785829 0.3234085251351914
Ni 2.0449800250743833 2.668957046713245 4.739212876265402 0.7096797512328745 0.7352167191617144 -1.1673659387384347
Ni 2.0956947216710966 0.1390868855192782 2.362255911351166 -0.30697891882425843 -2.34477409220422 1.7923599795964549
Ni 4.2029353070292945 4.926247528287519 5.461116613349919 -0.6296752483837736 -0.7039809010758844 -1.5410421017799265
Ni 0.9906647566516787 6.139063597968543 5.597241048932787 -0.7049815744262569 -0.20331075380963048 0.34395626737955604
Ni 8.914370466139943 7.101827395100268 8.872532926374886 -0.16884691570480598 -0.8569949635134919 0.6507467243420921
Ni 3.916744295812504 4.151006719467083 10.7422762076506 -0.8750685331857511 1.5658308786888322 0.3276801559273518
Ni 1.164492089642314 9.033405911504712 8.880059976995296 1.1071270485520353 0.4811439043078682 -0.11170646193807213
Ni 5.805984889916494 0.8727218131558576 3.409965203672318 -0.18215468855730566 0.5199729613599239 0.2736875037609803
Ni 6.252631900816948 4.375168828981261 8.858360054376954 -0.04748056207946661 1.073672882658648 4.061698676379495
P 8.127620859005399 7.26479457380416 5.002061968840292 -0.6591789142698454 1.338958792619494 2.3509380549230867
Ni 4.215908187576599 8.865777762147038 12.43585981734014 2.6360600257732534 0.18381999207487051 -1.7904851311712455
P 1.9869449173116907 2.896603301288699 11.402702390455765 -0.1736890742884557 0.5597957497838166 -1.4924603362164812
Ni 3.0467736599669997 7.237857313982007 9.398611958232161 -0.5814932893619081 0.35267822063358617 0.5652117785930653
P 2.3121379672596283 1.5843223031828397 1.0956422326747934 0.8016833354253806 2.4037695969018213 -2.12090196930347
P 7.246993928424609 7.3410843777655606 10.461171492242677 0.09368637121156768 -0.9759449943878548 -1.3652555215324937
P 7.238793214650062 2.5831414418928245 3.042700175475146 -0.6861024781335667 0.11487046148835056 1.0502053956643267
Ni 6.7923778623308095 2.728372839619901 5.405132147348025 0.09445590238774054 -1.5202349352265885 -0.23531173219625925
Ni 3.5330898863124625 0.6198321863039982 6.60353071356937 -1.1418739651149175 -0.5050857598354462 -0.9429333153485245
Ni 0.7058572104818255 1.159895983391269 11.60907868073959 -0.262321942236516 0.14649451615153478 -0.1507286088375404
Ni 6.320674659287562 8.098274349938745 13.576199183306347 0.6581275901871956 1.00053322525018 -0.14854574225360867
Ni 0.06158875039832926 8.423726857497629 6.806977912752477 -0.48320747170511624 -0.8849593099369019 -1.0917274261675134
Ni 7.007913006281029 5.07280401309907 0.0921222780350606 -1.2577106471712791 -0.3454894161946308 -0.5715302646119254
Ni 8.082679094252235 0.40752358307275754 4.986791035167465 -1.0405676154642467 -0.4571485698345353 -0.4559692048144534
Ni 0.503083674452854 4.330032471019889 7.3551766325772325 -0.8783145509268744 0.46085095838678697 -0.10738700862711184
Ni 8.290689967485019 6.790367065845977 0.9559076297624749 0.03637879573935025 0.7354594313001398 0.5021670435267545
Ni 1.3654327429768167 5.345086243100501 11.112714958410237 0.5122570807729049 0.3963926308024012 0.597664499805132
Ni 5.705204140750432 4.311268125942537 6.937596287177339 0.7840879909411206 -0.015009843145270926 -3.546303564198241
Ni 2.4144383967183742 8.877740611280304 -0.12695260903592423 -2.295160028721518 0.3974092449923736 1.4029124126533195
Ni 3.2724925151468542 7.3382303440451535 1.7563630851952465 -2.1658466523349604 -1.24853103755454 0.8253243718830883
Ni 3.183915540038507 1.5219876121530407 9.006351895757632 -0.39144557120977097 0.3673826167232963 -0.12403721558928316
Ni 5.251811231965379 2.081721076053 7.557403454354567 0.48817535723335287 -0.26749397335575864 0.3742045247411362
Ni 8.021854817171873 8.447986144121089 12.0687977220601 1.5399295854420383 -0.01837001786675546 0.9739891562130646
Ni 2.762741706727011 2.7658737307448593 6.9201681487963596 -1.189016427128675 -0.4338325208164141 0.6958112207808984
Ni 4.614972525898189 6.149126846735952 3.32064414120115 0.8257187791080296 -0.8802511058279551 -1.0235337999104115
Ni 0.8539009433846929 7.00343736249221 13.069554453143258 1.6757542805845527 0.8557338374128811 1.3222921305970905
Ni 5.7686693256564965 6.520151230388867 11.854542260112442 1.3238234796399522 -0.645095953814218 -1.6429588313210866
Ni 1.0422412231704632 8.281312428117968 11.131973199582712 0.10089265915201978 -0.9820588205950765 -0.7106817101348277
Ni 1.8783526407875017 4.926822041568899 9.059474914964522 0.4547224768915459 0.25078771634467134 -0.8284217798614895
Ni 5.869783663179489 6.971876197389268 5.064882216256291 0.0920596342414221 -0.006303316510208499 1.4764948140261602
Ni 2.5251897312193643 4.959152313161432 3.8295535656540687 0.5974752666124613 1.634677565148901 1.4288921245465327
Ni 5.204923535130121 2.4757259909611413 10.021239800294104 0.8244928771207285 -1.02773781068943 -0.010736669691213768
P 5.480059798851958 7.051928136709385 1.5132466705671315 -0.23983790220138693 -1.3084161439459465 2.014697925240866
Ni 6.751457690547312 4.229223922824083 11.199214419362367 -0.8737873524804822 0.17132623048323398 1.1525535563159504
P 4.990389156250692 4.244050072021002 12.663460666833679 0.9637083431123469 1.3297262182776324 1.1370732012921643
Ni 8.970932225326191 8.804036117085117 2.584567532118703 0.04636238931462338 -0.2151031184588683 -0.21371626541367067
P 5.876501762034343 1.103779008680928 13.270628541820534 -1.5919365746369487 0.8321894744340379 2.531487346666485
P 2.7581363341327174 7.10697021560295 11.668983736569741 0.20205425569471006 -0.5870389017704858 0.11806685693846118
P 0.9962152962572755 1.065397814947402 7.1450576662555125 0.37398135298673657 1.3413576318689737 -0.30375064169494786
Ni 7.659123810725983 0.8969134554736066 7.531499391804575 1.2158590012428157 1.3956680723860801 -1.058241635705242
