# total energy = -340871.9030889014 ev
CRYSTAL
PRIMVEC
9.20529079045110 0.00000000000000 0.00000000000000

0.00000000000000 9.20529079045110 0.00000000000000

0.00000000000000 0.00000000000000 13.47287355688049

PRIMCOORD
 96 1
Ni 2.0554953390748185 0.32853957903303704 5.045119622915221 -0.7724365227451213 2.416301153709929 0.5425912129800721
Ni 3.9605394104462013 5.150792675578484 4.287647566808663 0.7549262817754998 0.2592592441507922 -0.003825544393677282
Ni 0.7409614470908411 7.498077312479021 6.559241702687936 0.4006064117734327 1.753394396966535 -0.07371224208248596
Ni 0.439031601265729 0.33717414150891956 13.034102189606765 -0.9198404380848029 -1.0119473806243928 2.4904592250805817
Ni 8.071704989115073 7.174207577309539 2.7129381061150903 0.13387297073278234 0.0878211706800423 -0.41855733982489846
Ni 1.0816768638497307 8.795931218102337 2.0725453781130163 0.9175094759587811 -0.25526992048574104 -0.531166258972582
Ni 1.7816287418253731 2.8218541826165766 7.3174943674277095 1.100988282644149 -0.7642519300517999 0.3529749259383985
Ni 5.071627177398751 6.9356064479120185 0.13782437074376902 1.2869734006911384 -0.4977804844232846 0.0986786822198365
Ni 6.158505030373081 8.761374557617835 2.4616824638864445 -1.3623113513025056 -0.26231962824367083 0.0677143726278382
Ni 6.99405083720773 6.456922137348728 4.9753168256888145 -1.5429652869445685 1.8518725331397914 0.4810202342458103
Ni 5.4062210759844405 2.060245268965603 12.098599815500666 -1.466514562884997 1.428799050612094 -0.7423623290675603
Ni 9.249567933253179 0.881371583932132 3.865394448511794 -0.6065656589495038 -0.38177668066143927 -1.622289218786877
Ni 2.649788892851976 7.987872408658929 12.508525208778662 -1.654320536190809 -2.0151674086781166 2.1691003833855675
Ni 4.01374598945537 2.665631197778408 8.250316160944278 0.575894198007576 -2.812287550212847 0.9223007266998374
Ni 4.970230902695291 1.413214605994063 3.3751565778595065 1.2435322987883681 1.5068595423609468 -0.42278063387762677
Ni 3.2427292689276888 4.737668443856597 8.32112969906605 -2.8388179924032078 2.615309937710096 1.5802180006484399
Ni 3.481937947497286 8.255387355473024 6.358926296950804 0.36578699010140225 -0.5760060409950919 1.0409795061906846
Ni 0.36184616106953815 3.5123246113916227 11.454219355660051 2.7026533974227713 -0.4846123224724428 -0.6316164312705445
Ni 5.98343881591004 2.6532132609127737 6.830019004450276 -0.17557883511200087 -1.0015362125933978 0.06724977428659387
Ni 6.950601866113738 4.986901683765465 6.808327657949029 1.1025358296369272 -0.10110323250092909 0.5124560841575885
Ni 5.425414106647783 6.35693427208963 3.061831502941756 0.6718894198579783 1.2156384005915775 -1.909977921922956
Ni 2.290616868668625 6.053417434184729 10.3244374847885 0.589288617036611 1.1767352957684767 -1.4869985417709615
Ni 6.121729894881449 8.544415066152938 10.624855821915808 -0.42312001949491646 1.1014713929281545 -0.6121482952436039
Ni 7.338512807194428 3.994184747172587 11.232684834823603 -1.4330552547852868 -0.41945542615913567 0.16085155620415525
P 0.8347440260333179 7.090080427557843 0.24652964609312544 -0.37986120880628127 0.8328746734265204 1.2480237589008183
P 3.633070406696688 1.3431991665574294 6.30631530023608 -0.15279500444826588 0.5677152617412093 0.17032658557412603
P 4.772795832351231 7.203738149188676 4.985946174613017 0.6284678583392338 0.5007832758053504 -1.3396463056048218
P 3.9977287840097033 1.326648054263574 10.328371825942224 1.0364314818086862 0.564573373678118 0.025797163568762025
P 1.9451607273094376 1.6477654075777366 2.9059638423163485 0.08277126696096068 -1.5016520300180785 0.8529233645472794
P 0.6966361323425796 0.7421305189825651 7.715497068468219 0.24013486461651548 0.17443597975680925 -0.9286750056572974
P 6.620573791609112 0.5165861736104091 12.697401200028827 3.244694651436644 -1.7883223191919717 0.37163779245522444
P 3.9328130755023225 8.289345672075935 1.3758227160398684 0.34355646083797603 0.05908832152172404 0.07211044481300484
Ni 5.616792095852044 0.11634750751084641 5.245852028311371 -0.16754028107824048 -0.2300610253202812 0.9853225789480128
Ni 8.12565719665361 0.07809124078001481 1.3918822658217709 -0.7553566844446992 0.4021932966445783 -0.6006559783332881
Ni 3.5042147504734436 8.677560387742666 3.501478017611951 1.4640972116927558 -0.5022184655899802 -0.7760921172198376
Ni 5.553910756542072 7.6724991566080405 8.311145641004916 -1.22372194893066 1.4894292626996413 1.0332566836251302
Ni 7.234244481859331 4.590531080728126 3.639764493938118 -0.11264825702605116 0.8356193260511932 -1.9409520017069672
Ni 0.9284179825480597 4.05549198180945 9.043477128265119 -1.910916374576825 0.15086847684951435 -0.0432032748603514
Ni 9.111930429906277 6.215614652548321 8.308922563352544 0.20343339543042385 0.11331880073051451 -0.11583359673256825
Ni 2.9261777396945896 0.5387138508806931 8.499496930697378 -0.6394233289094731 -0.18872951356134593 -1.4112304456007114
Ni 3.2718456027349556 2.848521909154563 4.208386333607875 -0.25722550155021506 -0.8869889387724208 1.8246242389467995
Ni 6.8853823830203185 6.5435899472745644 11.45081063659308 -1.0421509007909666 -1.9193843028385202 -0.7648828787675795
Ni 5.216951098301476 3.507620707953269 10.302086118959407 -0.7441605586185636 0.548419389626075 -0.6428436674449316
Ni 0.842051185621117 8.415200403600739 9.226641236768709 0.28512299929143153 -1.2509345047897102 0.2699223802915932
Ni 9.089276210020191 5.7410174909608225 4.467618360042653 1.2776806625353028 -0.3882139516463508 1.049009832694329
Ni 3.3582832803986404 8.42619152044104 10.397500795905053 -0.08662972147510242 0.2534467512340732 -2.09820349926469
Ni 1.6232701295944494 7.442854774853413 4.242419213063723 -0.5120256814883891 -1.007353590606123 -0.05209852046745221
Ni 7.346696310436497 7.595598159887868 7.107182936751812 1.3193829273700954 0.577923826843095 -0.9746571288143665
Ni 8.344107945177242 0.4767576432645661 10.746812112919784 -0.7908844450376638 0.16420864560184625 0.4734887017554555
Ni 6.1831199771326855 1.8103952745941716 0.9471323381061291 -0.4583752431527848 -0.3010972632325008 0.6597764386445282
Ni 7.72122275915052 3.182020378172417 5.46536506735709 0.4407107359934862 0.14102886505127324 -0.6147348250238575
Ni 2.365437469738959 1.7486645965949519 12.648562531355273 0.23411462656436455 0.925591224525651 -0.7030876998376536
Ni 1.681447565466067 5.480342074977837 12.466813275999382 -1.0416150828921547 0.29579976227898735 1.2859133348577403
Ni 1.1751381781542456 1.5753565926147393 9.873137072363011 0.18312425155942658 1.6003919044931536 -0.7334094907496467
Ni 7.124508213975542 5.200851045241436 9.309391275063694 -0.32156967215423976 0.3195225598172239 -1.2899731067494107
Ni 4.041960204795008 4.068738394818826 6.360192944921679 -0.12202841268937048 -3.1135851023816117 -2.7687106940631607
P 1.4152765910629306 0.13837576764388138 11.350194970522834 1.0849751950453443 -0.84139942306808 -2.145294024994589
P 5.703064078286981 3.476009740424292 4.519353933632157 -1.7521106451581052 -1.0966387474262016 0.6793011389410172
P 0.9104299244093369 3.680983943676398 0.056504834590308604 -0.11602848635219373 -0.68624903101376 0.6927253827667231
P 8.655090273666302 7.974174936415739 4.7739372883714974 0.05957271735731031 0.16292155135930653 0.29304688212419855
P 2.7132593707530526 6.939647570435379 8.058852562538497 -0.3457760941971142 0.6101515765285492 0.3525851466991476
P 6.878644110384555 5.698802028791956 1.3853612380414775 0.14786131459207438 -0.4424315753393348 0.06385951765812228
P 4.559739384052404 7.080470104290444 11.442821364980267 0.30485004540671373 -0.8729165198397547 1.7657210368526883
P 7.545143962734016 1.7072407894078823 2.720011451324545 -0.3959293180127375 0.1169481699529857 -0.05051317825820333
Ni 4.826968966861433 6.053076838436746 6.749936659338135 -0.26778630778519685 2.416704816906251 0.6212129765490334
Ni 0.23115404939433384 3.587375344724107 3.5491457733356846 0.9528215209965138 -0.5164991438787104 -1.2704106112364508
Ni 4.644998784533879 9.043525916304695 12.560867411011197 -0.20382343177999093 0.8841815512306127 0.5575861437270074
Ni 0.33958960973244995 5.220568777462481 1.5044353525942817 1.2034189757072502 1.0236333016027532 1.4585549417182881
Ni 9.098076467724823 7.613438012849766 11.745354157332212 1.2800743595784598 -0.3888654691874206 -0.7070495126988791
Ni 0.4910534593893481 1.9225709444567558 1.2702021335323757 0.9717186150113329 0.4384324814822707 0.6818807267427353
Ni 4.904735260887291 5.877393869511142 9.77783009731605 -0.6337059668097216 0.4138799889538872 0.2724310056460598
Ni 0.6311754706384266 2.426993247218944 5.509354389002612 0.7480226126771311 -0.14905482067954332 -0.19431112141418147
Ni 6.2874711500821565 4.077078387999157 13.367421155460141 -1.805378246232994 0.8259956869185001 -0.15962154045179605
Ni 8.437486411867383 2.384667321564245 7.814428166379525 -0.053339077742772655 0.5084433634537695 -0.5747382300262618
Ni 3.579596874263424 5.420305170428045 0.7942766485277454 0.2380219320385707 -1.6130332474062479 -0.1954110393465796
Ni 7.960440643010604 3.496335021817414 1.3838791862732291 -0.53402146903319 0.23580975487860034 1.271227193600475
Ni 8.383147582128434 5.162934453729538 12.972746166930326 0.03209096699727376 0.5063003489688377 -0.5797565091764596
Ni 2.0334026419083817 5.460191694103949 6.299241955026625 -0.6344742124343138 -0.1638134670459566 -0.4755756661914713
Ni 8.173064442656589 2.2454557135442337 12.745822869043364 -1.2379059537405261 -0.8664625366842948 0.44192866756098725
Ni 3.764558775998932 4.704989662631242 11.990910804220968 1.531703340877504 -0.43888499563865707 -0.4191090985633104
Ni 2.564796445794595 3.516577455596162 2.0852772153842243 -0.41474542227797606 1.0017550134724234 -1.237063917455205
Ni 5.220614803914911 3.9180938160151837 2.341882051914294 -0.3851427689201948 -0.13807569596022026 -0.5544226583973614
Ni 3.654868534567572 1.2692622733737535 1.1072399555293957 -0.2974437256403135 -0.2655579326753104 1.1638563829232793
Ni 7.534336951703435 7.371596621201167 13.412042880562051 0.19661431562606138 1.2277817208223307 2.472370485899671
Ni 6.35938287935891 1.5985999510919282 9.35098261853761 -0.36548488547995117 -0.29034002471599674 0.03223931964967996
Ni 2.3994786339562437 6.80258079509861 2.0232749813156676 -0.4858371960184794 0.20534681040305278 0.6014782171242673
Ni 9.119515589266753 5.6102839554784305 10.564389950829367 -0.38833453638461507 0.4660558996264942 0.4698451914655973
Ni 8.238532468593132 0.765362831111171 5.9156961626944025 -0.9519062082710961 -1.4106326641157123 1.5305525151025126
P 6.137885179684406 0.5234091349186438 7.472271201130525 1.288575969291568 -1.0025692818436023 -0.6018402284493763
P 4.163331959853121 3.2625482593440798 0.32670864675536854 0.38205975911949686 0.5870309313506858 -0.2476005768659413
P 9.222044114699992 4.55589157262925 6.958591137726551 -0.14342127654284975 -1.1019092517965217 -0.7926654481974865
P 5.287187464709775 4.420417312546561 8.187154980803532 2.72739280915098 -0.8121783214194335 -0.145067296786705
P 7.852886028971999 7.4574083391118045 9.644354305797876 -0.04124975067840638 0.22913517107190215 -0.10923948845481832
P 1.9447833103995111 5.185146819672293 4.020898500163004 -1.831307050283614 -0.4273715956824188 -1.2129734521649047
P 2.583621264838497 3.9154058711932676 10.268498775563083 1.0713447487461032 -0.7031980001632728 1.419764708323968
P 8.25479821688192 2.5375856071179337 9.946523489175624 0.14830791521118974 0.09893347854311994 0.2760930278786793
