# total energy = -381169.0015835299 ev
CRYSTAL
PRIMVEC
9.29038185426138 0.00000000000000 0.00000000000000

0.00000000000000 9.29038185426138 0.00000000000000

0.00000000000000 0.00000000000000 13.59741292989909

PRIMCOORD
 96 1
Ni 3.53037289888272 6.8289414851678485 0.19294450422385118 -0.519867289019995 -0.08041870756838408 -0.07025205144802739
Ni 1.1108044822143839 3.961121444174988 8.008481785072286 -0.5012319333069949 -0.8782412744867777 -0.1453020385053304
Ni 2.337116279507356 4.589485697585702 12.775734290377063 1.3756612902468501 -0.2268000951808223 1.017282676794377
Ni 1.6831570246455427 1.536731319429293 13.378643827099621 0.9956913237768465 -0.42517253114857095 0.16187948324803733
Ni 5.7977277025656475 4.518163437643747 9.606449726122188 0.4111857299511757 -1.0884965779350415 -1.224043593936137
Ni 0.3026806342202536 8.459347722793668 7.166135887225065 -0.846938350608438 1.953662764405416 -0.9006049868939585
Ni 1.2621819608511184 3.8717479726833104 3.5959444125821234 0.9384215435211001 -0.2658623512896066 1.3843575324692674
Ni 3.4416218829617233 6.866753338491251 7.653249177999661 -0.04652308326220375 0.10958093095463708 0.010234790354130762
Ni 3.7864251075918793 8.62095391162919 9.384064002443335 -3.3114353472973037 -0.43200215247589474 0.8885598828039664
Ni 6.670549768383899 1.6375319603528582 10.008171402981127 0.1889061483485263 -0.1301818950344403 -0.3503981663501578
Ni 7.66515944727745 3.57329446211469 10.988354977245544 -0.19659837478646142 0.5280107440627357 1.0747658586125102
Ni 2.5626867460164955 9.253768257851185 7.146568485389746 1.1873488096182647 -0.8810373491746762 -0.16868493620564498
Ni 8.069950666234194 7.002234974121514 1.7564590649175265 -1.1651501620340385 1.1119486383103947 -1.7008647024989352
Ni 5.13814776680441 8.837837871293765 4.1025024721542325 -0.550811029786703 0.07248351188170742 0.20346579133025605
Ni 0.2144201504504791 8.788515235103606 3.0304964817946876 0.2331131818830437 -0.15649610744893694 0.19231337425786235
Ni 7.14496310744029 5.0674293816698315 2.996257709254622 -0.40985852649932 1.125193676245759 -0.08899333661127254
Ni 5.664596533493326 6.530933912918521 5.195448982757254 0.3554673533429491 -0.4033772896503504 0.037555332545954674
Ni 2.387748859510437 1.4368039743810104 9.817522552063473 0.7931914959042856 0.014898514378387243 -2.0478530718365957
Ni 4.965328087314995 8.341387746958967 11.826064045610282 0.8297510401958742 -0.28631084895194564 -0.5126471171224719
Ni 3.162213654779583 2.411430042341236 6.99125931723791 -0.11765959419771349 -0.5614775083616137 2.9148982204972382
Ni 4.328258746296411 3.6777369326458165 2.9959855010722203 0.9718777662970165 -0.6329366927438648 1.0180218689532465
Ni 0.5690721086698586 1.0628754032720176 11.323503637263004 -1.2449831723022817 -0.17980290049567743 -0.42140740767918394
Ni 7.524568101738619 4.457422922403354 0.6211939368517458 2.3044386258099667 2.0711326111898267 0.6727548531820671
Ni 8.691179906536215 2.5906693755521433 3.709415276002606 -0.5821463495648749 0.6959053231566015 0.7049026415592053
P 8.72373340384462 0.8887095474812358 9.324615779290726 -0.14277181588430896 -0.12582953160301555 0.5948820519639884
Ni 8.709472668008889 0.24653607078307563 -0.05375693535262902 -0.2974444969712619 -0.023527136587662707 0.6618078672522603
P 4.442549021378595 2.771209362194322 9.61846962190347 0.2525859458956746 -1.732403653647481 1.010852347788001
Ni 0.7288360148238007 1.7692974433223443 2.005781321158019 0.18598691781920226 -0.010702474019168665 -0.7724812599401276
P 1.2606769190235039 3.2562044459522754 5.758504640269316 -1.4470168591717014 1.0399250967842413 1.3773525619063438
P 6.773180614492896 4.152679823456369 7.4824928922751415 -0.416532853195702 1.2108674615654953 -0.26336246768588834
P 1.7851003825122969 5.438700903626369 9.814816263888261 -1.170595758529642 0.648920726876947 1.0501125788402044
Ni 6.2028069233536005 9.001924592030354 0.6783697326522894 0.537196781437378 -0.6104130577200519 0.03369019316359359
Ni 4.3029889082031305 4.474786645710832 6.369408550403372 1.7753796429883748 0.18852022576401728 0.4231094779719552
Ni 7.7394732101113295 2.1514665829566093 1.3532063331623454 -1.3387122238263267 -0.48224073691647273 0.38400119911658387
Ni 1.3654538432941 8.156183988727513 9.757258633401822 0.5902311834555383 0.7853773991765054 -0.23658494248172804
Ni 8.303752410886952 2.9846930421742854 8.359866316064679 -0.944903551701018 -1.3507177329276352 0.8808501728645345
Ni 7.237448856785368 6.9464462323016045 12.815262077191578 0.9340915486871784 0.83898001499331 0.39306870863549076
Ni 0.5790899272051471 3.3203173697323236 10.170769804577077 0.898300507130498 0.368883626748855 1.1617069406804443
Ni 9.029526315918272 6.674414567151106 11.113627412478488 0.7749407772242137 0.25288959317902254 0.17357697419062362
Ni 1.546634866270263 8.725554318648399 0.9424748441773516 0.8682517673742337 -0.44464735204373096 0.46653181082164813
Ni 3.916713419878707 0.44955971006111806 -0.17892438927290627 0.010844913134303902 0.4208427934249655 2.2947728205854285
Ni 6.777231220893143 6.421158763319181 10.666014037373452 -1.0730007962922876 -0.5784069371271006 -0.5791970371285637
Ni 0.21094926386531376 5.9571599420946155 3.0320331109199183 1.6018121818794477 -0.9513338807073939 0.064072919220509
Ni 2.2579715182144664 4.900379029186272 1.909947318265582 1.5305887676570866 0.43569528505676575 -1.210652774451528
Ni 7.9271482098622 7.122629029949023 4.202375932988934 -0.3553699085331363 0.513716953147883 0.14150914712180146
Ni 3.082836633945395 2.6451667543224318 1.3581070094837444 -1.3189831208285154 -0.8177401317779271 -0.6236280137484291
Ni 1.364487643602298 1.3817027208033454 4.793278580464525 -1.2054799720013367 -2.1147547187551514 -0.17365462150609448
Ni 3.179345118545763 2.668058254712816 4.8593341230479945 0.9754665120895393 2.178588268271345 -2.656636821483341
Ni 5.6793682403199135 6.205008743805111 7.984141914182365 0.7938550976302133 -0.19621193798132014 -0.9764666712192795
Ni 8.369844185958863 6.3090795990701585 6.997704054989861 -1.1732097991137214 -0.3226297379876379 -1.032150337934829
Ni 0.1654031678166706 5.042456835789413 12.563247468348353 -1.7450596518485946 -1.3507447295108286 -0.9084712770159129
Ni 7.125620532840949 0.9614430163961204 3.658492836091985 -0.76248866750379 -0.9003501905706752 -0.3987030241031327
Ni 4.161524266789017 6.479530231238329 9.945134305396374 0.06309410024700748 -1.027427992758495 1.3855592660868525
Ni 5.924950188907334 8.229262130801684 9.402679140159329 1.8040911519904543 -0.018972941558077 -0.08093087131811223
Ni 4.521898171067828 4.143677443635638 0.632105490101951 0.7996483072732228 0.38514945378841414 -1.236670024450896
Ni 1.1225753957673936 6.525796331864997 8.01960422998599 0.21988922699360194 -0.1978582153354915 1.4712399933851243
P 7.0177406210986035 7.8640014857739535 7.4775569125034655 -0.7448449862800979 0.4224787863664918 0.8090076370009358
Ni 4.245676543792303 8.470942119095291 1.957306896812684 -1.370716544647065 -0.7576513940161468 -0.8426800895527164
P 4.92568602880616 6.269753413537491 12.169684604656146 0.28991784957691363 -1.3472038062371057 0.2937822176283263
Ni 2.622591126908214 9.262380441642534 11.6032974162837 0.18281674762133676 -0.8528207775311443 0.20767083055053914
P 8.79604044424168 9.557851739700881 4.9740694074113065 0.508384485191376 -0.3549611031304919 -0.2180809701402696
P 6.5316399819240685 3.1318155260144307 3.3695879797852295 -1.0739454195937441 -2.4539349049023023 -0.7534921204321346
P 6.362592197385342 3.136256328444059 13.282224530163113 -0.9256148786747349 -2.0822168940284462 -1.364439967609734
Ni 7.7993125583314855 8.748473690183738 10.963362921563657 -0.14626337397733521 1.0706415520314916 1.4547664212101332
Ni 4.975854089726644 8.692842884851913 6.635891070593165 -1.3905986282829728 -0.5930714811178109 0.3763192570912938
Ni 5.413078031030315 2.0749138381446115 5.261858488881663 0.5318288322572454 -0.9812808047784712 -0.03752062265327732
Ni 5.816178400526404 6.084308105383087 0.7412488937489597 0.3019819798302993 0.9272431583067773 0.17539988633197534
Ni 1.0111186870890516 6.29209678141041 0.5428695162587228 -0.06010493571169647 1.6176545482283429 0.6135382336125949
Ni 6.711464609179049 4.105029455963561 5.263122909824492 -0.9661935714280457 0.4003919817697814 1.2703982699412766
Ni 8.74402359737246 4.974107497976079 5.107786799565865 1.7399467561020614 -0.48108913981053286 -0.2242233355925816
Ni 8.41203180904033 5.245776838242152 9.05677407626525 -0.26364606036457816 -0.18171811524051928 1.0628572801003824
Ni 3.357525348248349 7.1682262230967515 5.134084153869851 -0.06349442100921969 0.48172780183579617 0.8181170555013716
Ni 4.9601068928266026 0.8282579631102177 8.511218710670953 -2.947801913203794 3.1513134701703214 0.6651999236529448
Ni 2.881699871180862 2.7090195474162257 11.582330882971597 -1.0000534574002842 0.3836682412571973 0.4630708488562412
Ni 2.0761680396676234 5.234888510946077 6.517552976225231 1.150109465650832 -0.1540417323711734 -2.914287583496433
Ni 4.996525188902214 3.9462475431502293 11.721472928972725 0.012293215545056246 0.36657554744096865 0.617319297921582
Ni 3.3374581238801553 4.3967009879262635 8.869524575994042 0.7393695649878235 0.11929790113208487 -1.194365093035098
Ni 5.197569047850227 1.4104285808711488 2.0388913123273738 0.07314608516637079 0.9388928267305637 0.21441971923859848
Ni 8.268894898928867 2.0986043113570623 6.179575394994756 1.0175223036090089 0.2579176425212332 -1.21675528780484
Ni 6.717856391755585 0.9803396526761695 7.482465950168351 2.7581522018210243 -0.1687047336999869 -0.6265577858007145
Ni 6.945024803908858 8.709045310452899 5.586564759922339 1.2712439057710234 0.4747979074851823 -0.5064679848949535
Ni 1.0034912837528076 1.4096853503389934 7.888389666648465 -1.413194511305618 0.8991875377211418 0.15126571228793304
Ni 8.46145663942866 7.82110779368694 9.105208551969483 -0.7064684433844285 -0.5709466241943135 -1.4958912162749012
Ni 2.1339449231610477 6.763555779101485 11.640745086646346 0.4579636095366629 -0.36446261486302395 -0.219103497867513
Ni 4.718073870030223 1.3730440851037362 11.495511337396039 0.1166121267698056 0.5917795017792646 -1.4398964460768362
Ni 2.670910401879962 0.7911113011130949 2.678812800513103 0.7673141139168914 -0.8111501372652353 1.2194955695541385
Ni 4.313914397025813 5.880170549344976 2.451722427565706 0.578519294335249 1.6101186448626141 1.2809055972305037
Ni 6.791306149095834 0.9576246695371725 12.432086789224408 -0.10134311642587708 1.7563089995101686 0.3993064620150865
P 3.4267386915553133 5.113193801687295 4.544391114085343 -0.05806553668416451 0.3055463001427899 -1.2270633545990672
Ni 9.084674021404197 2.6888594192315125 12.962685569397246 -0.6868812652811203 0.8575192114480779 0.053973883113294145
P 0.735225939324006 8.221959890823259 12.58285574786294 0.3033840023841485 -0.676649560250783 -0.9546369769386978
Ni 2.316287243843703 7.064722081112472 3.035486345779945 -0.46193827791369474 0.911321087759882 -0.7229492146482711
P 6.136575792556909 7.6893237299541495 2.5063563749462787 0.6401290967272459 -0.9462634081630221 0.39107507524422974
P 3.5630750422975543 0.6105007075703612 5.281860680578292 -0.04735869178962166 -0.4560867042289242 0.09504108546724922
P 0.4921440324391223 3.8926792025451347 1.3544874767921482 -1.0847857047423577 -0.418506431982305 -0.8216314964125333
Ni 0.9158560426682089 7.029130629003884 5.481375342706397 -0.24385833621468966 0.0427301918786748 -1.3219357756989363
