# total energy = -340876.0353261163 ev
CRYSTAL
PRIMVEC
9.18085558110122 0.00000000000000 0.00000000000000
0.00000000000000 9.18085558110122 0.00000000000000
0.00000000000000 0.00000000000000 13.43711015804371
PRIMCOORD
 96 1
Ni 4.579640358728966 -0.015912259148497056 5.184869910913579 -0.17871918051319544 0.22725312355784086 0.14267051441975429
Ni -0.127445884965204 4.035500220561258 12.606226574094105 -0.15786187744821198 -0.6666788221913164 0.33789694855935354
Ni 4.601013390864727 2.9022521128680414 0.09153037735562607 0.198065189139975 0.39688705394031654 0.15831464871491444
Ni 7.6457799272050275 6.059080174229433 12.36930357499536 0.32501057951498863 -0.7180260663150407 1.2637941343611976
Ni 4.83570360585032 3.377875524734553 4.383951336963273 0.8682067730689111 -0.08313739205112779 -0.1496855122850067
Ni 2.6544424550465364 1.498728793385877 9.902492104641684 0.6779399969274325 0.12681015034873 -0.3583824701072151
Ni 5.849637312496994 7.623176660401659 6.667561585513052 -1.0273081793511791 0.31765876713560776 -1.2673132032580496
Ni 7.397134811512236 2.6721982300253 4.655031709799602 0.68213809416918 0.18815795732859206 0.27981855635938263
Ni 8.523937958484103 0.4032571527583892 4.513875134889577 1.0133355192211708 0.47863270785024015 0.0626968648085888
Ni 8.297657407345742 4.347263719386935 1.3622673080953647 -0.16505762386570286 0.9804038014901568 0.6216590629475165
Ni 5.217434406182284 7.933241700917577 2.975849524729345 -0.006058033268621824 -0.08250952865914177 -0.10083969442689729
Ni 5.109421638537426 5.587679955997994 11.847849331332577 -0.5242903577883551 1.5745664587896173 -0.14555786326987835
Ni 0.1507083372098739 1.8188193283572305 11.677131319062614 1.2797568283380412 -0.3410159538043095 1.9483110131751995
Ni 2.7215728721327412 5.148348466825926 7.455164246314859 0.4011293741564382 0.23624992773981246 -1.9006602440664557
Ni 3.8185290571315145 6.142552514512225 0.44568096899384385 -1.1033876361142612 0.6651217621168416 -0.09601527645506044
Ni 7.927448580952945 7.158129594334286 10.246361055949645 0.71039066125697 0.7597668976972528 -1.2717617259477065
Ni 6.169939007150101 1.0959738334358322 3.4982438880187186 -0.5741000822216307 0.0908491588730887 0.5109051947307007
Ni 2.6847668215175067 6.792015429596364 2.6934822078604954 -1.0593153283853949 0.41925333745065857 -0.12085984630256605
Ni 8.90791806846953 8.654599897210971 11.9938570704095 -0.5909114973520146 -1.5582582085478969 -0.6253709645814649
Ni 3.69881987928865 5.510928002108406 9.521549939816792 0.5434455905605673 -0.2046742098160604 1.7450575949660656
Ni 7.1285029728986755 6.207837579597018 2.6559527058138617 1.4537755180517737 0.4295063826372345 -0.8029164365015333
Ni 9.584629763355617 0.7717601761568454 0.309676690318607 -0.5060139280766704 2.2193970747575906 0.8218829503017071
Ni 7.0633739823612665 6.371679130926396 8.191840700391122 -0.24551901174656424 0.11966505466351648 -0.1665259808811132
Ni 4.278379758856602 3.4660025588716543 10.90937491408893 -0.4394292981779013 -1.130708435416401 -0.4091892683464372
P 2.6605936283845777 9.011019078299682 8.150682006075044 -1.7705289997642928 0.6188560462810826 -0.3602269795151215
P 0.5616131427900367 6.858191037686813 7.5583212593649565 1.4048026876974968 -1.5093504271036005 0.39535596200777073
P 6.3505631627510315 5.232876605517485 0.6361855615296987 -0.4205232053020177 0.14844881166442822 0.027641158756036267
P 4.776872682342606 5.74648121753247 6.568045699844847 0.03987858136249261 -1.0704188944977242 0.3201990170589582
P 0.8247383041376916 3.181653095251039 1.463569788288321 0.26484342310678904 -1.7775967052443515 -1.3322582406708667
P 2.9920041584690726 4.467275865468837 4.145631011622662 0.4628574472938545 -0.3505110377789382 -0.24728510250805155
P 3.6201583074075496 8.425445738229616 1.4921773347380767 0.657012759856462 -1.6417321580028372 -0.7032597066391436
P 2.1738705619424064 -0.40797703068836977 4.403770968309785 -0.19716453170257656 -0.22229680799383003 0.20205322725344557
Ni 5.371883942101489 1.0502531719083021 12.088682456886056 0.4402091137667193 0.0981804024271793 0.0485020613654455
Ni 7.645385150408705 8.741074377316957 2.2151880850625862 -0.0224038216164969 -0.8454041733520988 -0.552252647329236
Ni 1.1064767323891445 4.484370618835155 3.247359561613766 -2.578026370768289 1.2768396546912464 -0.6759725887884165
Ni 4.241243197435144 6.233360358522025 4.4960303056102475 -2.137815971449989 0.12403875825117994 0.94850695278156
Ni 1.7961242529965769 1.963243369821001 7.521999957932182 0.2284252894890711 -0.7020554019183973 0.8173554947449987
Ni 3.718476091403197 8.320848248915729 10.036191070443515 0.7888954396320929 0.9796059881792095 0.9468305935204017
Ni 6.368006788635028 6.078112088154447 4.835679735625426 2.2640887612380105 -0.49601747898559084 0.667629873250676
Ni 8.40823163373883 1.8640166811082406 2.5594738472206173 0.09752759933452881 1.2213408502929932 -0.5342135304393381
Ni 2.9566762256261137 7.443452228662114 6.066465254577373 -1.3907960890057596 0.8471363255518572 -1.7340226773081426
Ni 8.231555246101118 7.627087704941966 6.3606042646612035 -1.7260057205409371 0.6092162091984733 -0.5616045208577812
Ni 3.479314799677863 0.845109704913482 3.100035287825387 0.730546824489871 -0.5838065108761171 1.7417490994181228
Ni 0.7892184914100084 9.276336627995283 2.4476372531648725 1.662543952541866 -0.8178951692985528 1.257884710855298
Ni 1.4109689934779128 7.85886758866165 13.423874503352739 0.8528997103981956 0.2863219046955391 -0.26066872290380916
Ni 5.870771642383816 7.461015205670582 0.5137441610220563 -0.004506115400469659 -0.02070355109593854 1.150858685112031
Ni 6.468482073726854 8.714495799983183 8.634135769792325 -0.13843822150596158 -0.5258556453929459 0.36676580907490386
Ni 7.450126710776676 0.6193386912680485 10.415480681237291 -0.9163208549673185 -0.21705047199322622 0.950562292648692
Ni 4.8045805049309775 5.528399170559588 2.4707353680920034 -0.007032481366749179 -0.7110815166764076 -0.9262998205569015
Ni 2.1577122558603876 2.6332989443039856 12.642453312712878 0.04971665049883695 0.19774997189240137 1.0081691445288832
Ni 6.443996731499158 3.803343921756708 12.227582377458036 1.482646435449853 -0.5358466951673868 -0.5148716355776165
Ni 3.545077269260533 8.426473994071198 12.598594528727071 0.98470114331393 1.1488593952938149 0.4253095709470675
Ni 3.1237218956047106 1.161001834560229 0.9094867833667339 -1.2932726034362887 0.9065792021995225 -1.5748924746704684
Ni 0.6766134597297949 4.65432662007966 8.405759229291165 -0.7138647358484996 0.2617704406084201 0.11763773982084258
Ni 6.682735703860985 2.168352867649626 8.673561118546877 -0.6031175524999032 0.5175890345087796 0.14854908468771835
Ni 6.376645973875472 3.860513110377578 2.5731799467375747 0.88620732341139 -0.8099926266220244 0.2926727866142314
P 4.653582970765658 2.5921870723521225 2.2770661345865624 -0.3131266835932091 -0.562199988349935 -0.4195485000935742
P 5.313282539986986 2.1620180771970166 6.208509618236338 -0.790107200552007 0.4825117311896722 -0.3065210053512334
P 7.275617005090873 0.17783868397292701 -0.18361711456839439 -0.5664358808081535 -0.05902070150858222 0.6762628663353256
P 4.9564869438134105 1.1434939426861328 9.943850941612641 0.8537363473668781 0.6324949772207559 0.4344938085494969
P 8.225009295966757 4.633100481635554 4.137057928543464 -0.49157692671573394 0.5442683435721788 -0.5636333783623518
P 6.873862758415226 8.185146020393958 4.451015651888233 -0.37776473128856874 0.33152164116062904 0.030500739692018435
P 2.5394338753366226 3.6521352279096355 9.087705848113599 -0.006610563337982164 -1.0598287776867037 -0.4952260934325471
P 3.322092645328675 4.469571079400942 12.633181566512746 -0.8104608245076945 0.5998946746872313 -0.28387010072093694
Ni 3.858254619868387 7.201261254546402 7.9816707148849915 1.8435467868829154 0.5639691644352157 1.9683648465022812
Ni 2.7926418763264382 3.9481902825839863 1.8111211808289505 2.0081452117240124 -0.38855976502154377 -0.8132054771323672
Ni 4.518192891338653 3.426534060095178 8.119925221299265 -0.01612415925537223 -0.2397096041536388 -0.5207478918527354
Ni 8.516547369622725 5.273566158105842 6.225225202261072 0.9480058447754254 -0.08322686644114052 0.14803486405546118
Ni 0.44855090449454793 0.08741368164700267 9.78378823050108 1.086832302858741 -0.6976325902603533 -0.8023942454494762
Ni 2.6743557311214783 6.617670979313674 11.526904058692907 -0.10242992173215264 -1.7472792852077328 1.2158368897556286
Ni 1.5910239360236804 5.664872590962547 5.187436878175245 0.0854776101485302 0.2230956497460416 1.4554955860666738
Ni 0.9399727328985245 8.896919403306882 6.415669201149119 1.207552024039017 1.1601640216733569 0.154584749358837
Ni 0.32638125731646667 7.32653403096069 4.217143451148042 0.011708803796495965 0.2524087968878621 -1.2862506635925008
Ni 6.531214860919146 4.0787145084749294 6.311746504731273 -1.7550278188049 0.1304325775926657 1.0012827018216948
Ni 4.619320017187197 0.7277177750564704 7.773650885790458 -0.3771684924654666 0.2872716702033181 -0.3672661457500901
Ni 8.466805493286147 4.782656621451512 10.415936969766992 -0.09354187521390342 -0.17457713332036384 -0.43946580784279154
Ni 6.831566556074397 0.6027002264314334 6.206521044885562 -0.05751429216638482 0.42026763764778585 0.38038134297580944
Ni 1.5297325431807502 4.2358448542668325 10.912357774115096 1.1814265305965588 0.6839905739968866 -0.07254958923295247
Ni 1.6094590943263472 7.140309553365423 9.589300064664664 -0.9806377718778337 -0.6908268801924295 -1.783646510982857
Ni 1.5090756177918059 2.17175896512487 3.5333285281848745 0.1172171073436562 -0.1853551977724743 0.3045571967566432
Ni 6.211115145092064 4.702011984733073 9.780456497957237 -1.006401253995183 -0.31274796009755174 0.42099011763610716
Ni 7.141007298400783 2.2668359070483843 0.5048065979704397 0.515090693566958 0.008904501578481439 -0.36801150855654685
Ni 6.365436149031071 7.831462734312317 11.790433177692615 -1.585942818947359 1.560123801001726 -0.9334837398998503
Ni 5.548275723211616 0.7320612379015858 1.2580361349250428 -0.8350433989430651 -0.8796471536953689 -0.3627497459369753
Ni 2.9234966130236044 2.888655265534252 5.736020550515509 0.5201963902246396 0.3949816093874875 -0.4678723840099426
Ni 9.583711677782775 2.3682200968573235 9.431238780101898 -0.38739685506169413 1.5568649277447961 -1.0836924716781788
Ni 1.211110945125944 5.689559912016269 0.5772793550050122 -0.00254102125429885 -1.6351177380101132 0.3539097790478421
Ni 8.389557773187223 2.444981231602641 6.988332421893881 0.5125267894945237 0.8238516439923037 -0.008459957841895106
P 0.43589234061620274 6.46345096478768 11.451803740748861 1.0814065038574794 -0.19187371561728245 0.6334863945997476
P 8.412445646518172 0.42297579469188906 7.94467829289847 -0.2548588010902514 0.07091436762237464 0.22998003557070068
P 1.8760436021124705 0.5959853485516673 11.73986869668277 1.2007424573163514 -1.8969537417491458 1.106034329708489
P 0.37753698543522135 7.2712836411870585 1.8167646528452102 -0.7997123277419388 -0.5231765558988861 0.8190367391021637
P 7.877780151462194 2.668838036828699 10.731722601487292 -3.8209814568969485 2.6270017722257273 -0.7913873528160112
P 5.486543649293723 6.891535905692435 9.948353233261859 0.6007781057334493 -0.31501130221043167 -0.5741327352317789
P 0.8012692826391321 2.235290486765534 5.581749123197435 0.018065856362775336 -1.0042808652180704 -0.22747758086382114
P 7.6661247034992055 4.350963604245488 8.251662238231932 0.6857414952497223 -1.5579977557976588 -0.6959734573903755
