# total energy = -340888.0316542207 ev
CRYSTAL
PRIMVEC
9.13636327604592 0.00000000000000 0.00000000000000
0.00000000000000 9.13636327604592 0.00000000000000
0.00000000000000 0.00000000000000 13.37199117224987
PRIMCOORD
 96 1
Ni 6.513020846114929 1.9691329164734739 11.306606491219004 0.4367103565848414 -0.09830150138607585 0.48292027948200056
Ni 4.668827694184992 -0.09184237580237255 5.719307529922489 -0.11107988409766677 0.9443286530341541 0.9721934977652225
Ni 2.9743978051726154 1.7435469767042266 4.731464771900354 -0.8875990615525939 0.40647598318033223 0.8265106788817056
Ni 3.592993537380967 4.4130734836645376 4.611571934298964 -1.4813133184607263 1.0005591933921092 0.1240431291265541
Ni 4.013302782577373 2.9668968511184843 2.671415906836552 -1.8322498738128574 -1.001540840579088 -0.49660471894762864
Ni 5.488624413214386 4.6277962877817 2.3738628354176208 0.0845224453241125 1.2440753157760316 0.6238591559226287
Ni 5.164292661731316 4.805617321588708 11.139630320338004 0.5710309563780037 -0.9551020895005744 1.0191151020174256
Ni 5.701647853806495 7.980165431833005 12.266327523810425 -1.2510543181970262 1.818502442319778 0.9355336804503436
Ni 2.06563118287997 6.663186109006158 0.15926599411330014 0.6700590515174589 -0.01923005187420559 0.5582507738941999
Ni 2.7806520905905145 1.5459183078310101 0.30444006187691475 0.4161461592802446 0.6954476667938926 -0.5425202505328205
Ni 8.267001549408459 8.998668910574091 6.664292522570051 0.04357299949494431 0.8772280027309151 1.0928078037158857
Ni 9.006517046423664 2.1797352208605347 1.3165371228558116 0.3066891554979815 1.5819115863007789 0.8608526466966852
Ni 6.948542135769469 0.8587486892052567 4.7560562066532155 -0.4946275406165998 -0.04025807618909841 -0.23022557592260348
Ni 0.8542426349549552 7.87155234803823 2.44722143515798 1.062262326828861 -1.5587978831014508 -0.7054263752731593
Ni 7.8578660762074275 3.966944876522974 3.522248851105757 0.2915749255643624 -0.17831628864782195 0.0356120927766548
Ni 7.944414843265631 3.854348338443666 12.45338816155768 -0.3427853869999064 0.16324216792351887 -0.10814754094222019
Ni 8.39776117720715 7.399869333479608 9.412664928911296 0.008278180848392195 -0.6942009388709851 0.062385761326073194
Ni 7.076816672821845 0.9329962570692056 0.5166366616140923 0.04794850285482065 -1.042030316052702 -1.1810112974360112
Ni 1.8693912411885167 6.633173156426596 9.142108896633108 0.43664453634391254 0.5549677322675538 1.3418052609293536
Ni 0.19460544634396915 4.912814269112607 1.093082696583311 -0.20698074646204997 -1.2478841479991605 0.580547123398555
Ni 6.404563080491798 2.44075197649083 7.019225608412326 0.9851924811280517 -1.052923308816122 -0.016603412884635925
Ni 3.8440242482108173 4.41508348353288 0.12553362814100105 -0.7877955216996948 0.9085795204590029 0.9437534972569748
Ni 6.384691490884325 5.962975245780081 4.491544792160916 -1.0050375408784369 -0.0019879769643062536 0.8443515637178685
Ni 5.16875120689382 2.693710459921681 9.297732222803191 0.7164054999924824 0.27252742201460806 -0.11515765371146619
P 0.38209549315400737 5.476564414004334 12.30589528485504 -0.34906350669913433 0.5405232747074498 -0.06329156096979423
P 4.286352128328607 6.30315858713394 12.419463931961584 -1.2756695456425449 0.25195345451799833 0.8238315893876457
P 2.628166191487654 8.667347841367013 1.3547161567186659 -0.5088498548635688 0.18141472506748757 -0.27871889553730067
P 6.53834684445604 7.9629890693217185 5.78809337996237 -0.1370670521900478 0.2643608270434157 -1.1813897638213524
P 4.560799337624643 0.9814372538962498 12.462120697349324 1.6933750789901096 2.1990727613779417 0.8426996299367422
P 4.442044890857777 5.959046609673775 8.123096522470812 -0.2600624567783779 1.5429308341622074 0.11608350795984525
P 4.776362687141293 1.1045406094691645 3.8869569317623007 2.137279639330545 1.449861013488716 -1.304815571078882
P 0.3565602720993287 5.8409225719565265 3.4613266687326116 -0.43844842232187076 -0.8710190457067256 -0.42704763668409684
Ni 0.7285189704627655 -0.03974043830603437 4.443940686188145 -0.7168338457791525 2.110094080054689 0.04921322849985718
Ni 1.7547664305147908 6.8200483260041835 4.738819544145879 1.3791050258210766 -0.6744587232470513 -0.06079501980018562
Ni 6.519991891112861 5.928933157100796 9.575655818235155 -1.0042350995817995 0.9200952344080864 -0.7659570856683647
Ni 8.817430876990901 2.58683328510411 10.08397838948474 -0.30629680515556923 -2.9326110643959686 0.30560954928055756
Ni 2.4108395239046847 5.474956414109661 7.063834814581267 0.1883860141789981 -0.5371625857653329 -0.4307988761964129
Ni 0.6155332233180417 0.00500124512695662 9.031376176613536 0.9490666819397718 1.0744925503464655 -0.6909744615138874
Ni 1.6522473008663066 1.3995080901483654 11.242474704510638 -0.7656701505555652 -2.2767594147271435 1.2191713534455002
Ni 4.218542041861175 7.273422069034815 1.5221738139317638 0.16600764648379798 -1.0747483751110136 -0.7184523552191819
Ni 5.794646893169469 7.9307559805239425 7.942895466092424 -1.0259856038850137 0.4381787136002518 0.5894002029138107
Ni 5.58091995262344 3.3445392809278096 4.724163904196754 0.9721045375958419 -1.2982276334487188 -0.5852836096422759
Ni 1.0805119746794387 7.615944319326383 7.017847844866209 -1.4111047186561245 -0.21161130325552588 -0.39841506054906867
Ni 5.072983849530357 4.63446583279938 6.607943089897384 0.6522415637200638 -0.017134859908073716 0.5700575367211408
Ni 0.9049823407223397 7.452805420921308 11.484200029586367 -0.31823700823658096 0.9372820306000181 -0.6029602009864325
Ni 4.765307687865413 0.4663190558190596 10.389528519470764 -0.4631497817232927 -0.9247851836845881 -0.9077963624360752
Ni 8.482976035261816 7.346165791542724 4.961356679569372 -0.5926554766263148 -0.18446970984372746 -1.1291521466728747
Ni 7.298857703732381 6.331335130742881 6.907288715744356 0.788735517015461 -0.47158171454072983 0.709690549866152
Ni 2.2637623517202714 5.537275546391303 2.378114898775468 0.8371910414136872 -0.45166929188751886 0.5409289947863007
Ni 2.339155619509176 5.39379810124383 11.336346266543732 0.3150791793338896 -0.5378009906802802 -0.060032430602548224
Ni 1.168888014345225 3.496202907357258 3.8496495069332646 0.5868003033971184 0.18640395075196284 -0.2845046489811423
Ni 1.8385468795725037 1.2626179627512313 2.506392176736756 -0.34124503909598003 0.573906735263902 0.5661972824347862
Ni 1.1760966047821428 3.591467764753635 8.20486605802388 -0.2598320859351267 -0.40601909814857173 -0.4864632596382525
Ni 4.032863735841556 2.4912121095492545 6.989219051286891 -1.2652357519037305 0.2671597299447915 -0.5356664608357806
Ni 4.081496596292397 6.695263879632291 5.745168919137621 0.04785208648627243 0.44661578862401147 1.0384798796972825
Ni 0.8549909030877607 0.11792669227563005 0.163480598382692 -0.7775054526275964 -0.813682930989418 -0.3417034667896373
P 0.21503983591457781 5.922619930241594 8.083929847763558 -0.8746784968361839 -1.5285606814834642 -0.9181563655141608
P 8.711549565744463 1.722770887156 7.896522028220861 0.28694899675657676 1.0092726620057069 -0.7206110534333976
P 1.824184516876896 3.276244967219369 10.42060494470794 0.5238141894828849 1.632967781546646 -1.8524656866391
P 4.251231948810847 6.505309755710926 3.6799589225936993 -0.14669454797748283 -1.4732315698938563 -1.5843705893642326
P 6.958007407876753 3.7993474329553965 10.195380804914993 -0.52218076764452 0.06418681909055399 1.106105035045424
P 6.451058031991765 8.098252924098103 10.111832419478445 -0.0988432328221588 -0.7656773496444167 0.8699034440450437
P 2.3710232537854354 8.695615748606333 5.66444184260718 1.4927454715570678 0.9399102122514846 0.6973016892834959
P 7.189623347251026 3.755849208531866 1.3516143614672924 0.4302381185969365 1.2368533441062957 -1.1447937098648735
Ni 5.570979589638185 2.8289925874241413 13.388571663938164 0.14700847967347586 0.25846168795016133 0.6690761187788993
Ni 1.33728945786014 1.442302814617976 6.667729622344916 0.714357359214202 -0.6667502988592001 0.576238468720872
Ni 7.440297739922398 0.7280237795861102 9.185621739237499 -2.0901415481921615 -0.4655139110800951 0.13997856940988798
Ni 2.7921913171074055 1.6643073000763589 9.014714191341284 -0.04127186216559344 -0.13454017200313603 0.2580377130388653
Ni 6.317539222555624 2.1829146751977304 2.5361584475142944 0.7164502371874888 -0.9727830517201054 0.6235210558569196
Ni 4.033722553967121 6.936125818400938 10.212992058306885 0.7063555719556481 0.8394312435981156 -0.12394439876516074
Ni 8.743837472720466 7.078863218142339 0.2941232807344971 -0.5649382132167045 0.8856447660397005 0.4598299733214404
Ni 7.408621969269935 4.343079806431043 8.192323658845424 1.0958967270538544 -1.1257145817462355 -0.9791012806286492
Ni 3.2728827856214147 8.514213260488459 12.342989832425294 -1.3427406282594294 -1.3536217939483075 -0.3000595659966058
Ni 9.089484359171001 4.725610190465655 9.969782074237493 0.2419541772134414 3.543579737509175 1.273526274047297
Ni 8.62539366229689 2.7390176842267193 5.58886402028491 0.3224965548438833 -1.2827228529449006 0.6361616274390657
Ni 3.6397717161351104 2.8999912645918067 11.641494396556086 0.8340578951013443 -0.6062373290758075 -0.8023230258919086
Ni 1.4401923147562166 3.3681385066547533 12.635408267816915 -1.4118606229855426 0.4671612168755309 0.37614750740011993
Ni 3.0342958012492094 8.543604940381444 7.825917128300131 1.4008902400169678 0.18696316568954252 0.4883026268398365
Ni 5.681374264225354 8.211406780322726 3.1495848255157926 1.7363778078038807 0.06703457295199422 0.6804280534566087
Ni 3.364575325069965 8.645575888247652 3.586006960565871 -1.3746577886830005 -1.0475615302835766 -0.2498220099972923
Ni 3.592198673796669 4.50080997791767 9.38719092148897 -0.9991296600344342 -0.5741116521858565 -0.25714991111727326
Ni 7.337111655772145 6.597943340552383 11.826108316281786 1.907241496828399 -2.077539028936803 -1.4219506602316931
Ni 8.13500851259965 9.14330667382738 2.5044534405001095 -0.698079705100101 -0.012521529505778435 0.33874232727878434
Ni 4.819248775241283 0.6604859567372087 1.3330218626851282 -0.46474977922056093 -0.6394564961402536 0.22680266628398357
Ni 6.086307010428943 5.933208975002542 0.38548234293216377 0.04352260587298311 -0.2664241373303476 -0.20403914733522277
Ni 7.8710133026189935 8.943001050584053 11.584971372985699 1.340296023373679 0.8786837613408351 0.2540818137149108
Ni 0.08514268078666687 5.171683979428991 5.671890719391995 0.7901647932628199 -0.36971126485647293 0.5754565962495252
Ni 7.578540049049144 6.17792645897319 2.4971260773436987 0.3458992500385397 0.936004192328859 -0.8722020102712333
P 8.69602688494304 1.7752044746306146 3.5302459096728462 0.4355528459416306 0.6368270289372064 0.9307167186776745
P 2.072410364254105 3.4422070018031596 1.344593980108956 0.5314272259434525 0.18113164660942999 1.4809543924594106
P 4.843816455450246 0.8370224179010863 8.127883976702682 0.044313991426026905 0.5921368851186833 -0.721851353598402
P 8.739552518455683 1.7238763870835878 12.618505996196767 -0.12541095600835822 -0.47051522094942844 -2.080786332229507
P 6.8769313222782635 7.911441709061782 1.200297916833285 -1.0978258257557674 -0.1421426669407423 -0.540799668297288
P 2.0054865050013517 3.4883730442337617 6.123261771644716 0.2728084435901366 0.051264968822563324 -1.3100418524748279
P 7.222550799639685 4.291367991636425 5.956847487090548 -1.4315406179129735 0.3079263703391923 -0.8863039968902542
P 2.3986881610642534 8.766705789404377 10.126287973077037 0.7513352219901318 -1.0179817597439307 0.28346926573809245
