# total energy = -340874.8622781884 ev
CRYSTAL
PRIMVEC
9.19005841120805 0.00000000000000 0.00000000000000

0.00000000000000 9.19005841120805 0.00000000000000

0.00000000000000 0.00000000000000 13.45057943014475

PRIMCOORD
 96 1
Ni 5.3532456151749965 0.24209921509195476 8.073938427471491 -0.43612645905691344 0.11796195592948072 0.8775499048467079
Ni 4.640299286335973 3.910167548812415 13.47519382527156 -4.211080541381154 -0.951084483700749 -1.766568729564964
Ni 8.279148749269474 7.5808881333063285 10.29850319513841 0.6386705099038485 -0.9401701507810906 -0.11645194704285751
Ni 7.8660004964234735 2.384277868729856 12.182122320585496 0.011945345287334267 0.3286890568078404 -0.0440468538075693
Ni 4.987389401414891 6.330286644210555 3.4313774678321685 -0.2206968104965618 0.2838492747853305 1.1514312697860494
Ni 8.874554234752763 3.144865458863337 3.6945108879493467 0.5143563865040949 -0.5024953734004507 -0.16739398530836333
Ni 3.5269696953797314 2.135291624082719 8.301657039617156 0.3310940667049072 0.11143469633392422 -0.22319412299711883
Ni 3.202441172985594 3.3700862132119656 11.60924810059519 0.7800752702373016 -0.0574052773923463 -0.4704532573632414
Ni 5.293611328033843 5.6087935613198665 1.2924502567571488 0.1963525773242425 0.6516268129542002 0.5127754151702202
Ni 4.3944192813334215 1.2021239325123874 10.411487607678215 -0.12479569102186251 -0.2847923554248902 -0.2368860186619146
Ni 1.4142948043305126 3.236959031284588 9.996080438546299 1.8017226517582778 -0.952683709867069 -0.7069880633333243
Ni 5.468737075569954 5.697110019853768 10.434905713779782 0.5663530912863601 -0.42114721203926175 -1.603342245370729
Ni 8.742483909509193 6.361266330133321 5.107157914858929 0.45377528248692817 1.3983589889546821 -0.6064805554348652
Ni 6.4133831497322555 2.027060309602619 3.1111462166149773 0.09300759997698821 1.5262754849937132 1.7148350486360981
Ni 6.3538223830560625 3.3546193453958826 1.015086031641038 1.336279446015118 -1.0724909465354047 0.4317499272557725
Ni 8.355757073758403 3.2289177304295245 9.546589181858657 -1.7264605486901685 -0.300519793462476 0.5484944658383845
Ni 3.6877497621904087 5.227194778000075 5.50513338174869 -0.07434421923953002 0.8473630968506827 0.38213972042781286
Ni 1.7977499793905578 6.491406743171675 6.382340052408462 0.7126028384169405 0.5706401486974882 -0.8452331949918734
Ni 0.4712487192869147 0.7234432132237697 13.512317065047595 -0.42331902287959994 0.09027657419907033 -1.3723653931043978
Ni 0.30673932689111216 5.299401064649488 10.167198401736245 -0.6481015734097613 1.0942046840634123 0.43408808847064595
Ni 4.407570254503245 8.854161495784322 12.554299456320587 -1.9603903129372369 -0.3060438086044987 -0.17077190064166073
Ni 5.100077894083226 8.182257966509544 5.9995235863877605 0.8494307780129887 0.24454610631033366 -1.244888041485314
Ni 7.890593091952788 8.140397251772612 0.49897604364098697 -0.2333273547763788 1.5098093690178902 0.5424199775095303
Ni -0.0244014423204178 1.0890035071124091 10.771223242730349 1.3576630538972168 0.4844259174932496 -1.7465784024859663
P 1.1543907706367282 2.6746193749173224 12.099252809499362 -2.2220586807501532 1.0937110322564454 0.6152053369023728
P 3.561064811005202 8.055508684917498 2.3879888141987418 1.0451958582648773 0.1430952606619987 1.1668110946762293
P 0.3930220255630414 7.118784440854698 1.1990719142107111 0.5442014948899853 -0.106467582136636 -0.6911487823082226
P 3.6535627459837374 6.527836133559645 0.08270409003997285 0.8113542828562413 -1.0148483563212716 0.9223881442073212
P 8.08341889142816 8.166138604566937 8.319007869347855 0.06411277131950893 0.6133813963197565 -0.7062100475167192
P 4.495785622397826 1.7673125068968762 12.526605216175748 -0.18016594026205102 1.0463824223738107 1.2418052887949325
P 3.5831944709583383 4.396211342666835 9.794388990002492 0.35097692167176325 0.14530383827754328 -0.5739116203599083
P 7.585042039576601 4.807163171622139 11.043543963950166 -0.42477426726888773 -0.5029733414781338 0.30274971123425926
Ni 8.272651378178583 1.9853282556793677 1.3833380935530466 1.003378150898143 0.8838802179401101 0.12149773699688106
Ni 5.1777614553722024 3.84155457488795 4.473232300765355 -0.05599451308774873 -0.8473908647648245 -0.0036833623888581726
Ni 6.159452653816519 5.248956835628408 12.536774015485607 0.9267623620156168 0.352467904394993 0.9572322484696998
Ni 5.5735404983712655 8.78222172082039 3.4158554596673647 -0.49326922681649243 -0.5557652884681847 0.6873967714649581
Ni 7.252260844990638 6.835638750175249 2.458295515834736 0.6373193951925926 0.8024585230285083 -0.31222859725897195
Ni 2.231934275273406 3.7137760067864556 3.0009050364240175 0.036469298570627515 -1.3564271246075863 0.387220734495146
Ni 2.7833929028265056 8.720721851880862 9.974384549336431 -0.9994952709039691 -1.6255776597301617 -0.566586804563721
Ni 1.0344513221116556 7.106276771753278 8.3942781213745 -1.3556725058297492 0.9312581930034413 1.4144893188576415
Ni 1.8626869300669937 7.69832788602274 12.98734142797911 -0.5999869772907215 -0.4905824240129486 -0.46497732185033464
Ni 8.06570964943078 9.32506007385686 3.7709372492874973 1.0048012564979147 -0.7294325083797695 0.854283992340232
Ni 5.569368211984753 8.034858624321695 1.0745052714221819 -1.3515944791056336 -0.7985738432621216 0.05125956950592462
Ni 5.7200208347471095 2.993275450172733 11.08132704989922 0.6824083171114311 1.8557027055191588 0.3122034004479914
Ni 2.5644673382901275 3.0556759448080286 5.391328297018767 0.5791060200766543 0.0006672012703536896 -0.08897868132325322
Ni 4.8783493618202245 1.2394355684798837 1.4919921507066696 -1.3655457990794029 0.4212829662861777 -0.7559894329326915
Ni 1.3961903898339687 1.2177929816071118 4.153929245418291 -0.44268997120704406 0.3926048816251948 1.6286483282356854
Ni 2.687807108319627 4.271382783221884 7.617587711403028 -0.15686634630416207 0.9171788320922398 0.3128574890922225
Ni 8.524808192877146 1.5643041230244639 5.777064444504214 0.6631286429462128 0.8055744429496707 -0.8553101196119012
Ni 3.6811237302858357 6.7626237384112695 11.44513847572761 -0.3124332570706103 0.45847885861018456 1.0838194841743463
Ni 1.6622333823519617 5.208731951236849 12.37020145504185 0.40486724393231566 0.11327072110139849 -1.4673969654899501
Ni 6.4262676112165975 0.764159765724753 13.183006955413585 0.829156601144985 0.591911913592071 -0.46915176494299843
Ni 7.485109347578927 3.7841350917537344 7.378651714316002 -0.5310230485264983 -1.1946728540835039 2.993163629168045
Ni 1.2836121778630745 8.400172624652715 2.8129058554733084 -0.4427645331987214 -0.6249151079909688 0.6083777724575781
Ni 0.3899644932264931 5.698047405782014 2.7180791597671474 -1.2489084754986168 -1.1192875951739691 0.41026141836469343
Ni 3.107618153302681 8.662217941888477 4.753152281044658 -0.8324177883947599 -1.1454413707512014 0.00483393105353361
P 8.076507967721865 -0.24806540082350617 11.916688628920863 -0.42986350886633706 0.22764161724551119 1.2973845687221335
P 0.6214363251083955 4.527647553900119 8.187071718952838 -0.993382987358644 -0.010553607146130212 -0.9412659549484305
P 8.01295871582156 4.14373287593407 1.8819244787297424 1.4257139839288673 1.2116305649837649 0.7032910740977113
P 1.3251971908564049 1.6114399311223182 2.1538684075666343 -0.8722148657870398 0.9897142802578052 -1.3249516797071248
P 1.4195974678657945 5.020712552158275 4.733527830935054 1.1036771423302216 -0.18390560981014134 -0.6286892303214205
P 1.3494589442933975 7.028924052556624 10.897470747149042 0.589674796731436 0.5654745453361487 -0.432966573271693
P 1.8180508177777992 1.1598129049275714 9.012815902151825 -1.8541618433946003 -0.3735059560122148 -0.36235071072634367
P 4.853159412513104 8.231314496754495 10.067583685749526 1.41433865221239 -0.900155815171682 0.047283872687628244
Ni 2.627235435250226 6.262932708248541 3.3570087605071013 0.3146518619884839 0.14992128244489664 0.038078552039276355
Ni 0.48895428526104734 9.47494992179525 7.196329232266062 0.9137839474780779 -2.1276459728955226 0.944486261657941
Ni 4.979660562535909 4.941889423662409 8.014002706424 -1.421180871945204 2.316346432991146 3.312267613390612
Ni 2.504511399114771 2.8027563552854997 0.32601639280377726 -0.5192371116351638 -1.4296534281925894 1.4069012220977382
Ni -0.1102090149875393 4.170301333959201 5.925181530231243 1.3517947680418976 -0.003791605831948309 -0.45649165297682676
Ni 6.351828140444007 0.9715729444541163 5.381495853836101 -1.302894699907085 1.1664190014441331 -0.015102917079709472
Ni 6.277747081938099 7.649776808974396 11.830792831695788 -0.3463340235831132 0.083187785673089 -0.18688243305027816
Ni 8.398711405411623 6.504190114016697 12.539140455451527 1.1949214797592 -1.1180436954645392 -1.2468276817101882
Ni 7.171039111325433 4.941457490930765 3.800380357492587 0.33207674233315065 -0.8562557713546222 0.0981166390687794
Ni 2.085968582152287 0.8370929859714642 11.653675598565059 1.5799616616632597 0.04767879413320175 1.2970737223499338
Ni 1.097835152965799 2.504070276325008 7.121328248942334 0.0422239416662176 0.1248180596193657 1.624970622273782
Ni 6.083303832233594 6.879502897582358 8.137532710656584 0.8807344732222767 2.461696294015277 0.8795921320877174
Ni 8.809249681751524 4.214919066132156 13.195071663713616 0.16179669372624392 -0.18381356431696727 0.9183024041737219
Ni 2.468863163667008 0.18566123016496253 1.009435983908817 2.1380422285281826 0.4463113700097152 -0.060004405578090204
Ni 2.1382783929717424 5.018442607802617 1.1275852091120995 0.6333917780034124 1.8448881314021581 -0.16509824729565115
Ni 2.969243448188742 8.94845149209627 7.448446529714709 0.07110977146263237 -0.4218704633585315 -0.42041496185892757
Ni 5.162974651857005 3.235157779893054 6.999855898722834 0.3401109254915368 -4.153332535937409 -3.4096959681431147
Ni 7.656926674191812 8.35431423463355 6.200878678804372 0.10983752705013342 -0.2435392623123741 -0.18442908641377914
Ni 6.34983389783195 5.348448404836318 6.1673597798230295 -0.7137138120929322 1.1743079172739068 -1.5771406472746967
Ni 3.931323062604823 1.414092623051871 3.8244298205870058 0.19595019967950125 1.3487397832656578 0.5539583171664331
Ni 6.837899504472787 0.7824231682267742 10.307797100915241 -0.5588359569737086 -0.47510386876137534 0.6444524066929482
Ni 7.500686496092451 1.2328554868659114 8.099212006307505 1.2212937991051418 -0.25280988898102263 -0.9051540397172217
Ni 8.219735023523201 6.035396059253653 7.510184421159546 1.2166848395782206 0.37085412021166453 0.4150716952691432
Ni 3.070067575824063 6.446329508092718 9.303241037868185 0.8146039001417905 -0.7704200065357248 -1.9740886363599355
P 7.154533766941782 3.160516127841821 5.437947623850273 -1.2360125933725554 0.1679917667933623 -2.130342545891079
P 4.170705696516484 6.770499618220173 7.127676741091681 -2.396506744691821 -1.0501264627972753 0.25500869640455437
P 6.677339999056992 7.049215700885745 4.602949971130185 0.12284602349465941 0.4234023266220256 0.3427043972503259
P 4.350058870787828 1.2416319923705812 6.264970144133762 -1.2813563116146771 -0.6556755291022772 -0.6197420484304617
P 0.814519446211129 8.430646857378877 5.122276479472262 -0.19690767849676408 -0.2618709707420264 0.4296915020648471
P 7.034529988009869 0.4036576798254019 1.9526474899985762 -0.9242079710248794 -1.7124027850455217 -1.2908084581665125
P 6.053445333401477 2.654833179784805 8.942025803458714 0.29488444955356957 -0.6777057694294393 0.060823816155592014
P 4.375974834686434 3.27992255299593 2.566962439069727 0.43044123574667803 -0.18572697928959628 -1.331784643468558
