# total energy = -381172.8283716003 ev
CRYSTAL
PRIMVEC
9.25037398918728 0.00000000000000 0.00000000000000
0.00000000000000 9.25037398918728 0.00000000000000
0.00000000000000 0.00000000000000 13.53885737530535
PRIMCOORD
 96 1
Ni 2.528580410985407 3.695404053584711 13.203228643525433 0.10218643826277886 -0.06594828186635095 -0.7067268392521376
Ni 5.655604500595173 3.589385520170271 8.240141347360815 -0.1054514821672958 1.0188176253816648 -0.7756745700664448
Ni 2.869724944079476 1.4003400772484729 1.1913991105097959 -1.069648334880287 -0.19744658171936963 -1.8163799966601364
Ni 8.885973765609014 5.478580098365686 6.405680305537436 1.7408934362860469 -1.4042974659263041 1.4164562127760252
Ni 0.725891627840901 4.145952756881432 1.0074249024907393 -0.716718660357527 -0.1538923512775027 1.0862013541429616
Ni 5.377936032093188 1.4841392129435618 7.514567007339138 2.7451100239250854 -2.204843602423448 -2.585599298019541
Ni 5.914180197701345 8.118322250564017 1.3829262486861589 -1.4761338311423158 1.0221384622247818 -0.8173256699483278
Ni 7.654860025528657 4.26602260800432 13.242166241701979 0.7051209282175985 0.0903969018270185 0.2618935964498457
Ni 4.229048864172411 2.3173573770454956 2.7152992048926112 0.4207366068644045 0.08332765368506294 1.1773582740644561
Ni 7.95250005093159 2.4227098835507794 8.150892816496505 -2.0945065100290763 0.3769916005679701 -0.8282052929753091
Ni 2.9213420295390846 0.5201799665742577 3.554843699594156 -0.7699818905570416 1.4192072931586008 0.4107455570899636
Ni 3.4088922277889298 2.5070917927913796 7.052553390831191 -1.2954917225747946 0.6596162589175801 -0.06725183116912288
Ni 5.679257706243957 4.500575084512176 10.397490384668394 -1.674510895095755 0.27144190225991316 1.855574407471411
Ni 6.597431302758265 4.854050365799375 1.801480684334286 1.2201301178143438 0.5020238330806709 0.13130932377066418
Ni 7.199427124898124 0.12708810967812287 8.543208567035999 -0.8508351145596831 -0.3273523402742879 1.0752299427331224
Ni 1.159377091739988 7.833493992788603 0.0835456754546598 -1.2215547660760124 0.5141764092828048 -0.5860551977009777
Ni 8.762943794889877 8.72950369382599 7.227840572872628 1.822229513462378 -1.074281462776924 -0.858240920105451
Ni 4.734082268787607 5.802509685932814 7.885206357097717 1.240365213914296 1.3404137798984657 -0.4896650544050018
Ni 4.062495885014659 2.6836999282026426 11.174106436903159 1.1576345703832835 0.4559290956051374 0.11653679344717995
Ni 8.157349577365824 8.434342768584916 1.359720761126307 2.1446365939162484 1.1963834090167074 2.175506801132544
Ni 3.382833924968192 8.044319260657769 5.264070406636564 -0.20719929023075928 -0.11103720378518941 1.8799857464362395
Ni 1.2215673543824521 9.198469891235627 2.163644841673852 -0.38482883722420175 -1.5349889536073114 -1.0571064936595342
Ni 0.4101301202846748 3.4102427823547186 5.064601822605886 -0.4220658671987892 -0.5973307706147971 0.5761574789712915
Ni 0.23028435406501324 3.966079239540555 8.593640679619734 1.53296678097096 0.34221537342904934 -0.27721839973237417
P 0.12744517410442052 5.259577500111881 10.293917650070355 -0.2875984574151176 0.5507524086346257 -0.6770210846575889
Ni 5.78521148704223 6.066385847191023 13.42958528890117 0.6148757214770959 -0.5131549099968259 0.8161424482735041
P 8.453398538485775 6.031447185581534 0.8696387355842944 0.33706519668667756 -0.5747318022683586 -1.6458001574246237
Ni 2.867967373069203 6.477740716958645 13.005142065331253 0.842992735697129 -1.330115226185935 -0.7754992208308451
P 6.54213256855082 2.7322921414498333 1.5783061675245158 0.33228757279237614 -0.5038644858338355 -0.5025586225382184
P 4.142058349537615 1.649341637535524 9.013440215573032 -1.9762133960124222 0.03313766309423325 2.64465805185491
P 4.334780636000964 4.757430212103028 12.414658333308685 0.31225096585647516 -0.1660454417002689 -0.26934362496998776
Ni 2.379806650152631 7.142953593225918 8.246761839845304 1.1635864170913444 -0.2241323185406721 -1.7437956975345064
Ni 3.9578741580346994 8.60944309307684 9.679592004774742 -0.24243625905618246 0.27998310696170486 -0.6376202142624632
Ni 8.749651007827966 6.630862153448414 2.819209578132097 -0.18126071598812654 -0.1614526801232639 1.437382421405731
Ni 7.5700155976011425 5.093940307954219 4.401645112493381 0.17468074877776368 0.27509338296957137 0.7678468464919098
Ni 4.93981058072698 0.43785626549042483 11.726504530170477 1.6315852993768223 0.2691273951941236 -1.2466407625103628
Ni 1.675270435123926 6.286581743657066 1.6729828176984494 0.4780094724439446 -0.30464769958792054 0.2623602516736191
Ni 4.917517180017722 7.084074964381759 11.65883804627495 -0.3404281996216395 0.8966722274984559 -0.7031902868537889
Ni 4.570332152872554 4.27081430160075 5.917523282770359 1.2002855722845909 0.3121992866829333 0.5372433184045974
Ni 2.8215767487717227 0.24243471997024552 7.299718751931193 0.817623917915037 -1.0578171465733137 1.565552942437097
Ni 7.342696913356622 0.8194147564096708 13.498646729156428 0.24072467568171443 0.49892668221258596 -1.061680229073146
Ni 8.057556545477249 3.508592755940124 10.481742788676657 0.4169262319793787 -0.696759957847413 1.8645352162091242
Ni 3.897052950705501 8.638970286049432 13.365031555768576 -0.792868565347228 -0.47190850175252924 2.3096682496400227
Ni 4.721187247796443 1.6839935375591255 5.024039858800898 -0.7097355441714744 -0.590612220944041 0.42618580290443375
Ni 2.6535159586946317 5.842341795249854 6.248561782555356 -0.3924660420544854 -0.7974716113368783 -0.26777216671780985
Ni 7.87753502215656 7.680307803682668 12.929107693352078 -0.7947801805476441 0.05632978493998041 -0.9460227529071258
Ni 6.793104458444126 2.586173237879945 5.426955612607087 0.8540955304785096 1.3999137350363116 0.6092506619808346
Ni 8.148200957738666 3.229555232124874 3.092477643846781 0.37459276131849034 -0.22266987506253264 -0.6254162159971035
Ni 6.433560931984615 1.97640710179993 9.842424483614955 -1.6513007755278786 -0.933396836612999 1.3834195940360303
Ni 2.3618886762215805 8.557733503879847 11.515786566636676 -0.07304709769466129 -0.19541078223626346 0.643450190680679
Ni 6.984550193331591 6.810337904718543 7.30965642843823 1.0190773068009544 -0.21948273558380266 -0.3683102707438882
Ni 1.9451963408069695 6.509654506355715 10.376884252128999 0.703572352783556 -1.4221581482568089 0.8306043893351049
Ni 8.399912877531033 7.360161618974496 5.361170654729928 0.18747790054243196 0.857669363872697 -2.2607409278117
Ni 7.383759322380852 5.17030214316373 9.116037035741684 0.12529088549072614 0.9705855298481543 -2.0934505579607365
Ni 0.421048336407968 5.328798046795439 12.311491690117757 0.5896228604475781 0.31970922190673323 1.7356836099503332
Ni 8.952742963251929 1.1068442192802894 10.256428660421223 -0.7750701037132264 -0.05478095239562178 0.1783437994516477
P 2.4994417337098214 1.6130894228552006 12.396448047567505 0.5349838329464592 -0.1414394702261306 0.7883909891918488
Ni 0.2018107786612101 2.6664202300595337 12.351607785908561 -0.2814602057278637 2.5426263940024403 0.10258624480435881
P 3.426615943871476 8.009278844937159 2.2472062427638666 -0.3167910198186738 -0.36688253715842617 -1.0209087035827384
Ni 3.037230711732271 4.471186647145657 8.641865653029514 -0.8362872986524952 -0.2883052536741551 0.10511569609443187
P 7.038415119609603 8.923548783733914 10.860722275397672 -0.0075945245178062745 0.15867408893686222 0.09439625279439871
P 4.045114432760429 6.323296477024304 9.89050052600755 0.039899150187782895 -0.43029082621174286 -1.4154395985860526
P 7.332493751123297 8.358175191223909 3.3755483306119216 -0.483360966563845 0.4912455115182443 0.9429777954332147
Ni 3.8425404982658105 5.660386943817864 4.06682876007367 -0.8809054515825022 -0.010597830120504328 0.5477416468327599
Ni 6.817636449598047 9.246183318977682 5.758658289226494 -0.5802396194604653 0.030207891041947973 -0.860420444255273
Ni 4.563570129669872 3.760979953015386 0.9347918929351298 0.817831920160785 -0.3554899790507684 -1.2689517673027373
Ni 1.380562778196028 5.396159268357602 3.887506565007595 -0.5278662480650717 -2.520948394808374 0.5927485505607533
Ni 9.154308607009074 6.853537150076316 8.74797021491972 -0.5215017392996244 -1.0447482292044974 -0.608935444733261
Ni 7.311032884050485 6.096144299507073 11.436529364447082 -0.13638673829357156 -1.2438757981707158 -0.9360273322573106
Ni 0.633240809515651 0.629328826461732 12.614315624963625 -0.3895632665853936 -2.599596897850213 0.49100022827665757
Ni 5.176009623760249 1.5344149942111196 0.36815562440985045 -0.5896274884332684 -0.7831050582025609 0.5293536312438754
Ni 1.600573667187306 0.8889886673700307 5.478403416227286 0.00394458647004482 0.22830161942701327 0.4630353676326155
Ni 0.0019573790830202855 7.534993682628009 11.072808369207364 -0.5307595104524666 1.1596647134394351 0.5172771596953155
Ni 4.815013788623829 8.775209790466835 3.7354516966098514 3.5009588175148547 -0.45719356413985773 -0.3918073254245639
Ni 5.3939946809028445 6.753133593521013 5.517748030848317 0.30501228201619085 -0.2591324887649408 0.026208540074567768
Ni 2.0280889398757065 3.7062454916059764 10.705945947046125 -1.8427746846035813 1.013665134646448 0.11263565862056085
Ni 2.8360073318034416 3.1499095142382734 4.748767237097128 -0.36645727669554956 0.36179920909824786 -0.6667150747458904
Ni 9.173956400829184 1.572036264204709 1.3659490377642913 -1.752002144604699 0.7336419184754268 -1.7038147862661948
Ni 1.120285012322012 8.619535250825303 9.344938458932823 0.4321294220823784 2.3453708452479547 -0.08718610819920468
Ni 5.927056717945032 6.630797400832244 3.1322820020426048 0.8945857772830723 -0.2798946610129567 1.6202505910902933
Ni 2.299994425538742 1.3510448355971727 10.262589409330918 -0.35055140409857044 -0.4596240279582213 -1.2932255522484373
Ni 6.344193071299081 2.746741225229029 12.21961697814915 -0.3264961629215797 -0.3038930808100831 -0.5454831898158863
Ni 5.596309604932791 3.9781787283902266 3.7597811045789045 -0.3610204219506944 -0.35071955424531853 -0.0059814143944155055
Ni 1.6797198648920395 7.56157925675183 3.7322029653529674 -0.18457512507334017 1.0614254327498625 0.8922388743174505
Ni 6.648687623642081 1.3675752534674812 3.281737515419891 -0.37148172649333444 -1.0694459890614938 -0.06997000143123433
Ni 1.2580323276587562 2.16271887926265 3.013397123795589 1.8185865173931521 2.492065136115121 0.3793331042169531
Ni 6.132951536611693 7.378745619814703 9.412660445070781 -0.05579113882769101 -0.2798226701244406 1.3824127500380707
Ni 0.6748388151793275 1.3975002125108205 7.888184977441442 1.675599243063927 0.4998751621687842 0.12861300788542365
P 6.984966460149814 4.548464269355257 6.734254505758555 -0.8453275544778925 0.18071872744172746 -0.13388376936605972
Ni 5.221734221148573 8.287197073530079 7.3923788206301815 -1.2884474141335034 0.6913925228879125 -0.07949182487874051
P 8.420985228906838 1.4291272403220037 6.2216330195658465 1.131036251069465 -0.054071585033423 -0.42416825825377275
Ni 4.206070935806521 5.761179016070176 1.8343389368900347 0.12098043104083035 2.9578747240587635 -1.3529918736737923
P 1.6191761687749895 3.849478278569521 6.978333017142093 0.4033312669037635 0.3166701779700933 -1.1379316926377177
P 2.8884014486570657 4.2198724934240355 2.335534361441218 -2.0795876839357152 -1.0557728624497753 0.8431878824270703
P 1.3288716897465132 7.729233030384437 6.19588182915322 0.09744043893736122 0.1161084476605097 -0.1334435965048476
Ni 9.08808518141672 0.8293330071318558 4.049390880539636 -2.6119644182766306 -0.9276236815746476 0.0923041461520604
