# total energy = -340855.55725755304 ev
CRYSTAL
PRIMVEC
9.47323911163850 0.00000000000000 0.00000000000000
0.00000000000000 9.47323911163850 0.00000000000000
0.00000000000000 0.00000000000000 13.86504300956653
PRIMCOORD
 96 1
Ni 4.363923255846782 5.1671497035368095 5.338027985665773 -1.659991104213025 1.2930152360098441 0.8485481182977193
Ni 1.399841556360613 0.03882228007499207 12.132550337904812 1.028329678637158 0.15852342229161087 0.8335423889175064
Ni 6.5196440121936545 3.69599360521662 0.9695784163030131 -0.29676598284699857 -0.15609424402482797 -0.306020411565731
Ni 6.564689262860204 5.5671382669214 5.092852038667686 2.3607720102943732 1.4411948531732857 -2.535414192524718
Ni 1.8694300054754118 9.339059881410869 3.1056033617853593 0.32326788579226906 -3.198906646568252 -0.36630172495429175
Ni 0.1527673441217484 2.2242122731332357 8.36368479026393 0.6410379816947606 -0.2243513765300136 0.05090424304903491
Ni 7.090065615481903 5.7268002342681985 9.536737008883808 -1.2579207062995563 -1.39576371742368 -1.0974121352571162
Ni 9.233916403566907 9.557550661931016 6.401309996594047 0.13693823992166737 0.7829819023611354 0.5259497477686491
Ni 3.310631722595258 3.923673427407967 11.095542354888984 -0.7403612394771314 0.20582323581883907 -0.2038098049332361
Ni 7.103280783658525 1.4354135681908744 0.6805707405333045 1.6468885053927957 0.9018619992295113 -1.344785683713916
Ni 4.525801961081272 1.5608960898163462 9.704032512084886 0.27350752653969024 0.7718086593531353 0.8887046359119469
Ni 2.7336262183157896 4.158723429413946 6.92919391553571 -0.3427301082819388 2.276020993899222 2.7222886551551957
Ni 8.209840338886497 4.102698694936138 8.060400943567936 -0.6583420201908468 -0.4505032966038757 0.0695560538222673
Ni 7.170010278021339 0.12190163734535465 11.757459340829755 -0.12085830364066928 1.155891619550248 -0.04495830987824515
Ni 6.948696472327978 4.956739595744016 2.730900767502589 0.6571521136478037 0.7558192259034144 0.22437863022352325
Ni 4.385522240393518 5.736245053387978 2.9674380680058654 -0.04580960213494691 1.2131032928745495 -0.3568133258478823
Ni 2.7756400325547266 6.022052669078788 10.034741385211937 0.7089863247102758 -2.2710729058653274 -2.123782890395691
Ni 6.963607350256294 7.403023533677516 12.571087404762027 1.0790426316109933 -1.0218684963928466 1.3235964512308107
Ni 7.686102856583475 2.3185373122261557 6.101173159839466 0.26719701094063014 -0.10953413687710167 -0.1736584781608364
Ni 2.1588279786851756 1.4307716811610933 10.267078251615203 0.22182423923278569 -0.3493985214410499 -0.6749156082788118
Ni 9.233698519073672 6.4835414989885605 9.641223991276414 3.0575980454930307 1.9650386103425255 -3.049804517590541
Ni 0.10982609980073829 8.793685521605765 8.622669877513676 0.88449188338218 -2.2754648642854356 -1.2437598414181419
Ni 1.5451515668704354 7.26287643833347 13.646321801130044 0.12794477817380545 0.0786479888212065 -0.4246300283815396
Ni 5.427218529309425 2.2019785815844677 7.401492658281572 1.7271868853332317 1.9161220871474804 1.2016382296577433
P 1.6107821655282388 4.070309691354869 4.717345166407714 1.1152833591105824 -1.580152180407511 -0.17871660941003414
P 1.6030425293989916 0.503913782714205 7.84084821297424 1.297343688181869 1.6158144096958107 -0.5945758335774792
P 6.363401884066755 8.480159209079977 0.4814839951215257 -0.6344736982136815 0.1807416102598629 0.37666301358395776
P 5.3331776873815935 7.362042302471733 8.63369293822358 -1.7223668382367692 -1.2330385983458958 0.8858404269902744
P 4.324505109048987 9.16265870104035 5.086113723883433 -2.2669948791412122 -0.855539719124204 -0.3318396866216801
P 7.304103973748996 2.603956525124678 12.674728426926553 -2.2509689360266005 0.9373144264998503 1.4092758929775018
P 8.446784988659733 6.172374022933007 6.997409761071937 -1.5261356169817395 -0.16605701166449466 0.012006794652889
P 8.73061269743376 3.376499152223969 1.2136554675960913 -0.23690478771499196 0.3422205156353719 1.7862885765913945
Ni 7.3980121903331195 0.65299414228087 8.082238653733347 0.07007773065369222 0.3011977933661071 0.43751279788147873
Ni 5.053991865637349 0.7448987688511185 0.7905597800420269 -0.9453473241066558 -0.4901155116788592 -0.36499149078330045
Ni 2.6305479065381387 8.27253423350505 8.812329802959463 0.14297570436499893 1.1697017859604628 1.0081737725145732
Ni 2.966658420449639 7.279748276700899 4.734093852670272 1.4311948045377803 -1.2985770463683377 -1.3304407278461539
Ni 4.322885185207982 0.19302103058490358 3.038898497843521 0.5950044364744657 0.2846938821738129 0.031991979525564256
Ni 7.353743745251145 2.5604080461942624 10.671424504864484 -0.043576084818737856 -1.1216378405737006 -1.4333799851145572
Ni 7.796702919997138 4.892804706837907 13.118950384409422 -0.16821725254060707 -0.025548023672433418 -0.44171963687397475
Ni 9.296771343245679 4.3403727840997695 5.796184130152939 -0.5174507091587024 0.5712137618127711 1.21452382737116
Ni 0.3889948697150782 4.134898233740682 10.37848354032995 0.28680630053112544 -0.5242168242379424 -0.6129203975229379
Ni 6.096104977062052 5.227560547595818 7.165467859999338 -0.15241088163596977 0.6583764729732081 3.2041326708538818
Ni 2.7177490700261706 1.0530452290417798 1.0255444167000358 -0.6131741654049568 -0.3452125083841603 0.010633568454446202
Ni 3.693786340567765 1.2068148418324076 6.592245019987199 -1.521801765493076 -0.6287871893518655 -0.015362341388683221
Ni 0.25134681477604554 5.165558199412312 0.6374201376340124 0.6261428097504829 0.851229007563992 0.3865712738366052
Ni 3.5122790844644856 1.9140205406778197 12.246492559979918 0.08287976751436694 -1.2058378695613876 0.8528657718364666
Ni 9.228545077146732 7.987607629026015 11.705146221328004 -0.1011705954037548 -0.9368971364567735 -1.4148289615852472
Ni 3.5984855578747066 8.065941840963282 1.4031704524876847 -0.752129435756653 -0.7958842122451003 1.5244281473723293
Ni 1.5128194027221842 2.3132512449555067 6.322071090347915 -1.9168638504095117 -1.3508316327976801 -0.6319064517071376
Ni 1.4891078859149551 1.9527945072347463 3.2417300145672847 -0.04311560024255156 3.543974658954748 0.8306311288079824
Ni 8.511307218373691 8.908927472049209 13.728097640736532 0.9083782030814743 0.6229577271542819 0.16500131670647067
Ni 3.796201525626875 8.765341591007592 13.205219381195963 0.04918906013014109 0.3098390139808729 -2.731440753968109
Ni 7.754698578997037 6.841080479147744 1.0655603248684 0.33447583869294656 -0.8318855700403738 -0.424960672248081
Ni 9.197605479107414 2.1548776380904435 13.384618841658169 1.8840023237948007 -0.8578534548590453 -0.8092472638155677
Ni 2.9009994020753265 3.822186619754813 2.680708706176284 0.20947780185229084 0.780783609158236 1.3371721330327164
Ni 7.551450239764477 8.489177732452122 5.143514919964154 0.6867704507348689 -1.2222787887262303 -1.3229084240248505
P 2.01242854570918 7.4756169628799904 11.00519702343119 -2.6804256963728226 3.5933760922060114 2.921078638276337
P 2.285494655165183 6.727695283516213 2.729513885336957 0.6208753907039566 -0.1654941971824892 -0.5784629871760166
P 8.355624011338133 6.432518634616313 4.037957633405062 -2.3275042493801785 1.110513705636081 0.06359443692219371
P 4.66244395805589 6.251996595352008 12.391742889085073 -1.2867741401961388 -1.8082900205631502 -0.5148603227237067
P 8.393602225832812 5.906697039769309 11.255197690968597 -1.5000762008905264 -1.3299010532925999 3.8645038056596155
P 5.012015944353756 9.474375624948406 11.260577543303725 -0.5755884938416991 0.33161882886012567 0.32061913531551234
P 2.5259159835913376 6.638248962423981 7.596934101389147 0.3396270438765828 -1.4998810541605847 -1.150709046908044
P 8.321131948735209 -0.12285748714393613 9.959371349706544 -2.378987504861135 1.1195009967363558 2.4274589700989613
Ni 0.7343218976904029 5.487070452277093 7.734239225082306 1.6845711075452343 -0.9523327542855534 0.7465889655543981
Ni 0.14838218186443067 7.451952812266943 2.4650381088576996 0.31337582348953774 1.0597904682496004 -1.9243483317120147
Ni 5.77957564782516 7.000486669045964 10.836321383992217 -1.834156861027583 1.1280697122419734 -2.04468161608715
Ni 7.668918401334449 9.18756384594095 2.0698846865751506 -0.8813019156899725 -1.1574355669986003 2.640737890864897
Ni 5.79090564147336 4.107662672086354 11.50141379959091 -0.5337856988733001 0.8647141865346204 0.2134902654457936
Ni 7.103309203375034 7.709482810031434 7.737387182347604 2.0366417765018086 0.5226600212737837 -1.139439901752128
Ni 3.153404377629385 5.639475918675295 0.7463453324214196 -1.7835161560525798 0.08033951759101647 0.3753067566663794
Ni 2.277698179602918 8.889621011300855 6.03674282054222 -1.054294992352668 0.729943129467601 1.179415156593485
Ni 5.998596929720139 0.42433099789831624 5.913593557642126 1.1871027550457298 0.9309064660909775 0.39781959305691483
Ni 0.5812447786587079 7.754603846608673 4.730863478227097 -0.6586952897652075 0.375317812409973 0.4674340109209434
Ni 4.500517886627219 3.9326066916305864 13.787648314709209 -0.5480460654470561 -0.2787993710662489 -0.6178630862401939
Ni 9.340774537640236 1.6773032486366537 10.648809989114499 1.1279961786915604 -0.9601275677396237 1.520504129727575
Ni 4.983529915173038 7.452246482670868 6.296587130554416 -0.0171392307834479 -0.36855889641958467 0.2888230738508381
Ni 9.336899982956195 1.2018887576375379 1.7491028204246482 1.0056206670754166 0.70761129873962 -0.0006054947944828281
Ni 3.4531376544095393 2.9946707876885426 5.284106310209621 1.134969267575284 -0.8484133924920678 -2.877521836731309
Ni 8.549863300437384 3.535346421030847 3.8499621560228094 -0.503773468781926 -1.6602371587855602 -1.6279890973851319
Ni 5.147644304772892 3.689949678839068 3.7478179055944176 0.9630905070226898 -1.3673604836906386 -1.1159431041817685
Ni 4.8745687220780525 9.417109896183046 8.088866131623215 0.6998002873356335 -1.4216408423007583 0.27702351011274867
Ni 1.9338669760398428 3.363473448824073 0.7450778130651244 -0.8125997252275683 -0.35666445897484383 -2.01966066856278
Ni 4.377460514143838 4.673120298224387 8.981858148554256 0.8030380496810622 -0.8742028427513462 -0.49172373670624353
Ni 6.393233113162227 7.252683233345624 2.926064644712261 -0.4433481736163332 0.545794293298402 0.7402529960340413
Ni 0.532524858647562 5.394280077875652 3.409413920560652 1.7804251758320822 -1.266700252264399 -0.6306687226452945
Ni 5.289165019748199 6.474721913631977 0.42667751915806473 1.3350201196867202 -0.070519189066485 1.8170824220437998
Ni 1.4369671793600256 5.404710113834405 12.199310146631902 -0.009406895136196703 -0.5858505378893395 0.02152887521071131
P 6.30076482888122 3.3636629136007987 9.1034538002852 -1.2193168778844292 1.6365305591972397 -0.7305187994654128
P 6.977684583167018 1.0788882245871738 3.816367209137681 0.6314004586049964 -0.49357493098236926 0.7798937503541149
P 2.3687265315808097 3.143817459927062 9.01557719486814 0.35037528353202235 1.5807864715574 -0.18916557265750003
P 0.36330155134329767 0.7336303512553538 4.5400525542627 0.2130007274038848 -0.5588292721054893 -0.3456603945548563
P 5.923019430284233 3.6155942272130432 5.811879392256901 -0.2528106603119711 -1.1527607872307502 -0.6281811803367504
P 1.457590420306625 2.933587343672157 12.22656939138332 0.7176118615957576 0.3263748068523669 -0.6264536561226823
P 1.0375470103056126 9.014866701955418 0.7535468885847658 0.2403156131687539 1.417085618829908 0.6968908269983224
P 4.358968751935403 2.2548771472463 2.1736507554923152 -0.20959555837707772 0.9540379099021183 -0.08310345348939882
