# total energy = -381178.8039925856 ev
CRYSTAL
PRIMVEC
9.14957380741003 0.00000000000000 0.00000000000000

0.00000000000000 9.14957380741003 0.00000000000000

0.00000000000000 0.00000000000000 13.39132612024595

PRIMCOORD
 96 1
Ni 5.79115878268862 0.943165531170881 2.267392518083299 -0.28288948197522246 -1.4867005509145685 -0.3028726099653687
Ni -0.09040145042519884 4.489833179365355 10.426192040762098 -0.1866438346769108 -1.722334185226621 -0.3751771730670506
Ni 4.6184578899112285 3.914828204670846 3.0285016567730536 -1.2087650705105117 0.18503560964952648 1.4342323058125235
Ni 8.21473452804593 4.304517708644334 8.021431479269243 0.14842387196376375 -0.9704706015368448 -0.6530941415283462
Ni 2.0366402631418477 4.928106920997014 6.159126283154712 1.143140747642483 0.27087883066759155 1.4066281709420099
Ni 3.4525185322806147 4.589929518344715 8.166325047250144 1.3915728192707841 0.08191071873287828 -0.7381727164662448
Ni 1.8910705416462694 8.406399803086117 10.113129303636713 0.27560271850582213 0.4840217400762955 -0.837662581733467
Ni 1.4215784537077012 3.5357888047715798 8.372685453006488 -0.3723543589062749 -0.47027919367922233 -0.4516332964432609
Ni 1.5630125677792694 7.181555488385199 12.061915357740187 0.06537055498601 -0.279371441519635 0.5692314412754196
Ni 3.8564081750197294 2.307540848562406 8.441396923433105 -0.022485068476393533 -0.2123751780047439 -1.2145333404528567
Ni 8.408019277674724 5.683449998185417 12.371470148214318 0.132308711569456 2.074153400294021 -0.7472430541986292
Ni 6.615745835507351 4.1534765419284945 11.698676357089864 -0.479352102514768 -0.15241782361450523 -0.6172077120443822
Ni 6.68299520401725 0.4585199188614155 4.6604096014152745 0.9275195518966155 0.17466609348974432 0.12120180302301707
Ni 8.358529232195805 2.5178895536022146 11.935139776088986 0.4979095538019812 -0.9969671051654767 0.9816754691137287
Ni 6.770940908795095 6.497807827331487 10.846947093157578 -0.6745404843275802 0.15011180118914794 0.6677692270420177
Ni 3.9537962401108 7.222893263477408 10.776616148142356 -0.5643126638175635 -2.375518829586244 0.058193320511280414
Ni 1.7834166545867485 0.9843111652102032 8.190041657877968 0.13038346952228513 0.5111695041356809 0.10997250996610092
Ni 4.154922174612108 6.4296709501487355 6.395576892750308 0.4262400531811369 -0.9292054242394707 -0.80820442437335
Ni 8.82237603300912 9.012284589851497 9.177022668765883 -0.6823088154190895 -1.4036207515742536 0.03763297986142551
Ni -0.027870517199728575 5.932647794203869 6.019708735181045 0.6420605094220039 -0.5979977147748347 1.192859712134165
Ni 2.7746723464226677 3.605133425715325 1.2423410449596222 0.3535791351813007 -0.14499504878787287 -0.7546648005839971
Ni 6.662390363488775 0.2636715070450931 11.168432928058502 -0.3829064233905083 0.525981629447849 -1.0653263104661654
Ni 5.4572084831998 8.237086937198269 7.0616210431741155 0.2616724815779751 1.5563982725210228 1.548293126915385
Ni 2.3455847770337206 3.3650577549219576 10.99079760970853 0.5480581496319141 -1.7094727558829204 -0.14556197703493642
P 2.922886294788908 1.296393982965872 10.179094986921859 -0.8758822873362979 0.01963860016653392 0.3315445239787645
Ni 2.19639182425516 7.319732354131663 5.144599564942183 -0.08954843778379415 -1.0919053465062742 -0.9143120520674061
P 5.08903877714948 1.6174159344676862 6.522057858120417 -1.0006905767636507 -0.838142349583363 0.9687682741337573
Ni 4.689824566697244 3.931928758377649 6.157184743563175 0.33959490508706675 0.4631970900214603 -0.021213915073453788
P 0.2239998693686205 0.9135959380892085 6.0986777929595615 0.6054030060999702 0.5838461058648009 -0.001324632348694493
P 7.077936563436273 7.325066555742721 3.666785999841891 -0.6443238515348838 -1.3996375985567895 1.4712839592491822
P 0.9099333636382543 5.748951798071454 8.390777820529138 -0.592767833834463 -0.08676547572201831 -1.3629353580397494
Ni 0.821238308754157 8.252613764186199 7.206636300488511 1.4974647314096081 -1.394756102094772 -0.14922939858419462
Ni 8.787872989655266 8.104811546647571 5.142737626643983 0.2638239807033392 0.33573336524913144 -2.019765826682076
Ni 2.0688010155652896 0.4603324494603014 4.725169370854216 -1.342309454259282 0.9634139518003794 1.4404150375844678
Ni 5.302205550964941 6.254282767160127 8.995328599413057 1.4841384466143472 0.918510920640102 -1.4223795202389955
Ni 7.8933557431601855 8.757761741795935 2.4431265549671 0.3888320448463239 0.7572333326421217 -0.7211198747490161
Ni 4.52082278632359 2.0706217807807277 4.5165060173354314 0.514848752759481 -1.4490488020000658 -0.7498100435948571
Ni 0.48288431932468245 8.362728886637443 0.7100536011085178 -1.1438064062509399 -0.3660839525165308 -2.2803993254725756
Ni 1.5647509868291853 6.205451491005388 1.2111922354147104 -0.8426798324424002 -0.13538117984719264 -0.12643399795623386
Ni 4.2263894967115405 8.861463012910384 9.214169938990402 0.8887264902888178 1.331943023423293 -0.44653094221968903
Ni 3.186110387667996 7.992884808554837 0.6297029576640162 -0.1758814539540842 0.3083323475283593 0.040560180810549504
Ni 5.676606116873116 1.8581869728810203 12.844117009249787 1.4187339530666083 -0.01703741509826098 -1.1083321246037299
Ni 3.6068169473215597 1.3733967973031933 0.17988153875394233 -1.425677217153661 0.8707891890841067 1.5546298677666903
Ni 2.3417785542718 4.839694587947878 3.9510303239066453 0.7267899285505999 1.5198978636021439 -0.709114622758024
Ni 4.395674913877548 3.880416657056461 12.675104249387397 -1.0774673167040736 0.45061179715728206 0.2734938996929354
Ni 0.7188262126088296 4.2884876550893205 2.13339883754537 -1.7875345331833539 -0.9188644473247788 0.4769110971734431
Ni 1.6096936940564814 0.9655545386190068 1.6015222095644825 0.43794602876415545 0.4215300492999772 0.48513091398007424
Ni 8.448487843241972 1.7583834202679614 8.019302373411794 1.2452145715867973 2.2153702129863846 -0.6660417028279497
Ni 3.431200024984279 9.058407592117948 3.086312324799305 0.7693941363743717 -0.31100989436052245 -1.0171919168527837
Ni 6.2134939665047355 1.289641597393041 8.390215121731401 -0.7914976531416303 -0.33203509046193785 0.8234325541770141
Ni 7.116721607397288 4.983013514252512 2.863065465366517 -1.0824295458053552 -0.02963042127192316 -1.0013786039696109
Ni 5.019282425378123 6.701138809154004 12.860414230364048 -0.9284461774759429 -0.42202113000378283 -1.2557162424490698
Ni 8.123494976647192 6.346080442569628 1.2079688405132087 0.11501367193443418 0.6311050388517647 0.44006616043095176
Ni 4.917154880982545 2.2355885990437874 10.575960501741921 0.0757567833163405 0.33653606365608496 0.5723368196736208
Ni 0.9930673074774106 8.11236909472773 2.8751978004201395 0.45585710471662133 -0.08119466650246016 1.410185806386281
Ni 1.0130316778296011 4.236829160584982 12.741672889595646 1.6780150515942713 0.014327986586897904 0.2848772018292126
P 2.793776656823847 5.708657074409196 12.953443438426806 1.6402715142969106 -1.2354477220080207 -0.7888704999314284
Ni -0.10659253648167753 6.033887829926595 3.7939367140249143 0.3904333278951727 0.18177365106880308 -1.0971018031055493
P 3.8012179449718775 1.950744062928115 2.3934187496282453 0.09938059338286755 0.09440730853799224 -1.1029127533603715
Ni 5.839486832276278 7.4267457710148985 1.8689066137172379 -0.3232925683826174 0.3743284519135102 -0.15269370298371124
P 8.613820644462908 3.748836634125731 3.9624261182575404 0.8400102560300371 -0.25350871482026016 0.06346356777128424
P 6.757454436797327 8.01364519184041 9.351243366118863 -0.18656387336859484 1.0970660647716073 -0.7450229066188588
P 2.8310337219357264 6.984656657047371 2.706159421750698 1.1621147176418243 -0.636938100593774 1.8860039276058613
Ni 4.284022663003221 5.660420520561007 1.4523027230214758 -1.4530532951737685 -0.41975058880205124 0.5067060690476886
Ni 1.5249777888819016 0.796835480080313 12.047868016859471 0.7111689341838913 0.9095377706072142 0.8365955739215334
Ni 2.1775162532026537 5.346178403353863 9.951589915774171 -1.2732930749905684 1.7925903504397063 1.4769424430865403
Ni 7.582178733225263 0.7511132291527389 0.216464280265933 0.8853076944152559 0.12459385942370156 -0.3231483294952693
Ni 8.054928069488936 2.087328902807813 1.9902189847647285 1.3627587232525693 0.5864622033314093 -1.6744023945423487
Ni -0.27587429381810713 1.3493242682488336 3.95332046226556 1.1337058274818281 0.12475198226812062 1.1979489537316141
Ni 6.991363294750467 7.842813496677371 12.938712624372256 1.2809135676503036 -0.9058994025236786 0.1801235170598898
Ni -0.08971431742178476 6.732595044383531 10.292707076535617 0.7943564627466642 0.0923969629761828 -0.9759779045083191
Ni 8.106284628053027 3.988894005771205 0.372979637074218 -1.6200006798630162 -0.7544781384944877 1.7312605411819733
Ni 8.122387878199616 6.666800458131193 8.014869404834508 -1.1921274619538307 1.1108240377876482 0.7999151877813643
Ni 4.012225419335864 0.013549604058001395 11.780523870832083 -0.08173536949727858 0.7265433597574326 -0.8921293453227798
Ni 4.943157970139707 8.2981420441461 4.680201959777262 -1.1991216338834767 -1.1592641355669069 0.23434936828298994
Ni 3.2493979906588772 8.72736685714425 6.801548063562348 -0.4447183144909825 0.7474171178826482 -0.37796681999704584
Ni 4.247735452729716 4.866164305376332 10.449279160702375 1.3128641524149711 -1.0483156348407818 1.4727847121644246
Ni 8.925409385225445 8.64276989643098 11.415088057477105 -1.0310984996315469 0.7253879059967507 1.8452984794666993
Ni 3.2237608844595926 6.88179714673604 8.443646803666654 -2.5883444648648455 1.0736222319263704 -0.3278552480526354
Ni 6.9073885050655885 4.55102552992239 5.261157817366852 0.6996305945269886 0.16256442513020392 -0.2789757487431131
Ni 6.718815786019462 2.700030122163653 3.6309242447569177 -0.8588919234258885 0.3518436405474328 1.5308528199517506
Ni 0.44893208032243276 1.9493624772621292 10.01134212339196 0.7596650820120658 -0.04178968234227641 0.7620076141023135
Ni 0.5698894479007827 3.1130144414060115 5.846278561017081 -1.3859369611412455 -0.10654960032748102 -0.2787093824556039
Ni 7.036690284083535 2.3922293050151455 6.17128515197278 0.3689846711030936 -0.324367546614351 -0.04571884219335352
Ni 2.0268959668883726 2.641564344642801 3.3358193764171635 -0.4666495673464351 -0.6313930024058287 1.4771123930055012
Ni 6.846305949395917 6.847605188896381 5.918591303749208 -0.4513741292446033 0.24088896917372063 -1.0719996087212829
Ni 7.729230685700243 8.932189219520115 7.028477626508774 -1.3126672059128166 -0.1007929003493619 0.1158161132310715
Ni 6.000473585872425 3.9626530276914242 9.079104843343286 0.10364065421080215 -0.8840571098376065 0.049008568688218825
P 7.3446923918588745 2.4216268861066155 10.110196865186724 -0.7924983264920029 0.1801242883908382 -1.2367204180728573
Ni 5.778047443222676 3.073945760652641 1.4136018551407719 0.7336110652374914 1.0021093114880484 -1.5766282264146525
P 6.300973043011287 5.216400846490678 7.270525945445099 -0.2839240938873239 -0.3760292366547007 -0.1681879419645684
Ni 5.032357166548279 5.902811033562947 3.981911050934912 -0.046571162891319795 1.271543182178997 0.6116050211456241
P 6.053303225841971 5.036575120137813 0.3196403658358287 1.8128100199206907 -0.4430391270163467 0.3551544500882206
P 5.190745441143499 8.914896524760426 0.1633189799952185 0.9174819651549554 0.318663040030406 0.8028447027233335
P 0.5958696631230765 2.2567973114527597 0.30426816664759976 -0.4841232986511662 0.40380872076081425 -0.22747758086382114
Ni 2.8271268538603893 2.4852621729074795 5.971205928731001 -0.7250194669137385 -0.20273302692928954 1.389963308691819
