# total energy = -340860.717963171 ev
CRYSTAL
PRIMVEC
9.38002719821219 0.00000000000000 0.00000000000000
0.00000000000000 9.38002719821219 0.00000000000000
0.00000000000000 0.00000000000000 13.72861795226613
PRIMCOORD
 96 1
Ni 7.17514840980387 8.406023681923207 8.307900158347971 0.8519144636667909 0.6019878097708342 -0.9445518247885539
Ni 1.502821012494757 5.7201373945046665 10.31402246111597 0.10375969628716969 1.3729701165679324 0.8694187910991413
Ni 2.8420449755314667 6.64048687553928 12.899546212534204 2.0746331681439174 1.2029860019348895 0.36571319944067343
Ni 3.751523005369367 0.7178769100193803 1.1428906196386024 2.0819813809788728 -3.2945779094203322 -0.3337872972663542
Ni 6.0139948777580186 2.14070974298008 2.04329910145053 -0.5880804556611227 -0.18269719132433695 0.08360790392964311
Ni 5.020725067471249 9.565939050416024 7.787764533766928 -0.10593819199572722 -0.37009847299256265 0.2668095456942244
Ni 3.6229697364729425 2.7368573536850964 0.3048546268107518 0.006521603168601672 1.6742866949000907 -0.9582015543615047
Ni 6.088500431559135 5.720812756442686 10.993890564065287 0.9650502018522219 -0.21471436766088184 0.7786225969511752
Ni 5.6523197998953165 7.647151364263415 9.740564197520298 0.9588990946491616 0.46111012558544456 1.0319598191905777
Ni 2.017878290502978 2.812901231900588 6.467771501915293 -1.236208254323129 1.4238409352758703 1.2863262540254428
Ni 1.5086460092101661 5.090052846414224 7.944572319742506 -0.6359932201820014 -2.5559542214595976 -0.1544824194530178
Ni 7.59528919543975 0.22770953343521344 3.1181122997341832 0.188715629604275 -0.29576865193073576 0.910275420104187
Ni 9.09243529164977 8.070312518566546 6.426324914980178 -1.2136658502462387 2.0177205141172734 -1.5065553808569667
Ni -0.03899089588826394 9.37526186324882 8.579122698648096 0.6641992503025723 0.9890177684114128 0.44499239408797553
Ni 4.351159986087478 4.868402810367343 13.13489577789325 1.5790373500767774 -0.2886837200594964 2.482875756306369
Ni 4.198631368391401 3.1173112454354777 8.757484848476071 1.1874681088049486 -1.2528147525315583 -0.9569897934415906
Ni 0.7389988546309065 4.522851998774831 2.977942805503842 -0.45117975384561004 0.8449130926482932 0.6045931086041652
Ni 3.072699837418594 4.375838836905902 2.4123243684053324 2.2712287147169015 0.8794247532719177 0.4481702775953249
Ni 6.319755615168945 1.0901748683654973 5.301950468475581 0.36470121323639126 0.6190949017647661 0.5645980562684663
Ni 8.049910960022238 3.4638281998004334 2.4589327841528292 -0.5975842813864998 0.33710453456504524 -0.5385810633794144
Ni 8.294598342177084 3.6779835943406938 5.121570674857776 -0.6475025063731815 -0.6321347656678598 -0.9090322917257055
Ni 1.2019660291613812 2.3025527274046627 1.9230227683055978 -0.25938599953664365 1.8230617795556858 0.5791019063115961
Ni 7.048958907690509 5.721019117034857 13.690918447455747 -0.05348228818885628 -0.6216464645420262 -1.4348254593118321
Ni 1.8579488315694475 6.248167249738992 1.59717376524939 -1.2602444693367263 0.9321850756930848 -0.5655017990296584
P 4.796720644668221 0.9490054632658119 3.8602947355006934 0.062394245966505446 0.9718733954216424 -0.8733415231923152
P 5.619480325659171 4.396868857253643 1.2742710286477874 -0.052593457825999744 -0.1830928841008589 -0.2690518047611818
P 5.7531269491714845 0.8576899632268786 9.750709634633639 1.1666629991341393 -0.5947336993115822 0.2099781385274771
P 2.8480481927582972 0.6758731494854007 7.300233882749108 -0.40370047731772407 -0.7330266534889311 0.10146472960540591
P 7.530951590816579 7.855941383407196 4.538447231526906 -0.47049876588919615 -0.8900855754198735 0.13656594418391318
P 1.474690311770906 8.696945216751562 4.512102487928037 -1.048372456220646 -1.1742963473096808 0.7050216836355729
P 7.850660428252969 0.6623396466496647 6.962646714009063 -0.6115312304848952 -1.3617840180441256 -0.07232384637539158
P 2.6980803224105383 8.195807898688054 1.1840342317043 0.20819816380891887 0.2318145176762782 -0.9157061042014553
Ni 4.005815535087139 6.671084523342282 2.7108118329448776 0.42278860429742676 -0.37983884020877806 1.091304736807798
Ni 5.284041183083101 1.1124711923470223 12.842792359673364 -0.04247642399665588 0.04948036611831478 -0.11657561710491536
Ni 1.8568607484470843 4.364920485574604 12.307252854889349 0.20606543373663222 0.8410505243690933 0.7258625316403241
Ni 3.59956656931522 4.788503741088996 6.955576987721779 1.405403040285657 0.15643260120085317 -1.960838970438881
Ni 8.578222216064072 4.266852304158179 8.032010116653984 -0.6165515665176221 0.47071268167221514 1.1308339052506717
Ni 2.7822191638553346 7.930990978769494 6.460975672413983 -1.696919344697942 -0.1156235376042912 0.22193865332346296
Ni 2.9724836298381927 9.248866000543288 3.233872149918617 1.2800874722045825 -1.2953780798150658 -1.2207628663023364
Ni 7.354428864267011 2.029396963556959 8.831742769566581 -0.8955417134384384 -0.04549901287306357 -0.2950520854796854
Ni 8.375210293501116 7.539271674691888 11.486994827077142 1.7723825080332636 -2.4719467680986913 -1.22205767385436
Ni 0.8957034603103992 9.55064960654144 2.2426790775912537 -0.27192552676455106 -1.6318015291526866 0.2050202803015695
Ni 7.001439691329379 6.824307263030213 1.9204273148576854 -2.19305123777421 -0.6332282558423545 3.1966060234595335
Ni 1.270477745762584 2.3119890344830867 13.21663614645539 -0.14783046135413896 -1.8677526947051577 -0.20089391683802177
Ni 9.165927802543859 2.7264267637534787 10.11955574307433 -0.09587078045739618 0.49184303589292716 1.3878125808974036
Ni 5.4236535037145766 8.5664315222295 2.580554213157648 0.43394384958329785 1.4111862226263374 0.024754324126544464
Ni 9.365891216358815 7.635144929809755 3.2456234476401375 -0.27761589228110894 -1.4249467667455396 1.1113986793441957
Ni 2.333638136607344 3.5697568437732405 10.057763877756411 -1.419189295436472 -2.3312441760385854 0.29837292232280227
Ni 7.506479100590328 5.426767672650995 3.9036773599914603 1.4173481284626752 2.5524832321918622 0.051890261111388045
Ni 3.4986843798237177 2.181981861414539 2.589491502804092 0.5958863248587867 1.5129054914447106 3.1111021880587586
Ni 0.8395405491453249 0.8083829137353832 5.906655477736907 -0.5904291583989574 -2.0832612761325606 1.5196813767159634
Ni 2.8967680525647936 0.3241418381573281 12.906795097335602 -1.009774284232474 -0.6133014350114406 -1.8003113732330478
Ni 7.058338934607432 8.717872056803216 12.545471770482282 -2.6901794333254765 0.5568019572628152 4.085881444273285
Ni 2.3680253152847826 8.509363438466941 9.0229827583488 -0.6776497193805232 0.537150758690791 -1.2550778375341223
Ni 8.804562265569414 5.827426142380428 6.19664463788972 -0.31826014816503256 -0.6210276000111046 -0.04800866666879474
Ni 5.46394071932276 2.9902118807111764 10.733609825163752 0.39266273144632374 -0.2537789377625113 0.47503470608633674
P 3.4430889602871173 2.7057344243747474 11.839518750679694 0.18371843349999972 -0.15401576422924443 0.13664821948507433
P 0.9165383760982676 4.560212645984933 5.218823731935121 1.2962568828755934 -0.16367102793082136 0.35617543515356725
P 9.04543197676907 2.032773773247051 3.732042565468302 0.4288633497365969 -0.8540448797462323 -0.6702865941472327
P 7.087051197000132 6.250671716925811 8.190740808147531 -0.06729039771654217 0.30716249558997416 0.05363655437853342
P 5.866690935054667 3.458856785534464 5.461271163662203 -0.03748025633364513 -0.3893475510301617 0.4088632524655862
P 7.25589168150474 4.262828272610818 9.872180045205097 0.15501103826297818 -1.5862621499599907 -0.8241766314318902
P 4.217785383355756 6.254367447531078 5.0829934381565485 -0.016309021572668683 -0.4446766626197696 -0.10434462225636222
P 5.429675480995241 7.259390431544753 12.365612568358367 -0.9503026112294022 -0.08703724132616623 -0.8934151540137388
Ni 2.218470166121368 6.4365838504192165 4.0987884858822925 -1.2242382264454466 -0.1741125349791195 1.129640656273519
Ni 4.966152070868593 7.164886660356756 0.7659232838932412 -0.1335688092288022 -0.06007922468008363 -2.187657063341832
Ni 8.567219444490522 7.949225751095991 1.0736378809109628 -0.051312020010414856 0.35060436882369295 -0.6178823695139035
Ni 3.7064988761681383 7.949038150557652 10.856014486416132 -0.5409891586002747 -0.6850043599733816 1.7156765707007873
Ni 0.36680032457010875 9.228183041191473 13.656844561677334 2.2770905728143167 1.2572982422242087 -2.490761329702033
Ni 5.575703740037893 4.479525654445565 3.48245599525475 -1.8627871231697661 -0.6656562944640729 -0.4953045120789664
Ni 3.1965349527758065 3.8044263571808106 4.687663761718619 0.4707041970317829 1.2258387381633469 -0.02837829403237693
Ni 6.091755300899307 4.4402983818789945 7.529226603866556 -0.0801112036302943 -0.41841464359944713 -0.3268090661763081
Ni 3.7918665011390513 0.935645490928039 10.47457850584755 -0.746180931482702 0.5789905775447125 0.39303785539755537
Ni 8.992622425226795 2.3734657308965974 6.7783404411238335 -0.3567439060625275 0.7176126329267061 1.6740858917431944
Ni 4.141347544009753 7.070017068119001 8.206706551962826 -0.025789964479910422 -1.158975143571578 -0.012331782092475535
Ni 0.7156782317100535 6.613669378583799 12.763029300785313 -2.0845712531932357 -0.18576451739575103 0.2602020676800358
Ni 4.4063895845743195 8.528057832112369 4.979575827389401 1.4623828001048105 -0.6939595122841403 0.5239111200720655
Ni 8.370454619854236 1.2530496557509416 1.2059131444880222 0.32266367654936684 1.6076125906113088 -0.983441816985532
Ni 3.927135869307992 5.137572062775354 11.047871680969486 -1.108461965313375 0.4752175115211042 -1.7325167821865777
Ni 7.995816344792346 0.2764978674382031 10.886066216652571 -0.2639322241464293 2.5792556151897 -2.47248875664509
Ni 0.8965204606548631 0.5333792845850458 11.349447988372773 0.13898920891342517 0.8075534210529124 -0.34607048550908137
Ni 5.9238809591671435 6.91103499190408 6.38176134510057 0.3924783833496595 0.2530615999805126 -0.5988950297781234
Ni 8.393717086608204 5.0434903927986205 11.507615878251306 1.0435593511027188 -0.1970855988355251 -0.0320328600658287
Ni 9.033885163634338 6.758496994181084 9.287725576054715 -0.9817759992473348 0.21981697899476982 0.19864343024094822
Ni 2.1866906349268342 1.6639886349813215 4.507929313952698 0.5777255947893599 0.5168115329128068 -2.227337926871222
Ni 9.043105730093673 4.017615608948628 -0.0685848808111548 0.36906720351457084 1.5283174551244068 1.5861374514566682
Ni 6.785867912724664 3.0877360205664206 13.414424332028311 -0.4569115141230647 -0.12644993879583383 0.3729451984127384
Ni 4.20299308090777 2.1345564453225783 6.564132518432839 1.7007042656616709 0.7781621123749889 -1.498935916638496
P 8.87873951842844 5.8432408677623595 1.4941538676235204 0.21454236085939182 -0.8820709326455131 0.000833551644888887
P 1.83508032594599 4.165238472567156 0.8229632275750476 -0.8688904293994971 -0.758072026493333 -1.9239996901233445
P 1.3449551594829496 7.929537074597371 10.886519271952658 -0.14363416388460423 -1.0820305105947237 0.6801573162937253
P 0.9399255972102308 6.954323816125677 7.6295422397322765 1.037491033421452 2.1832167681822914 -0.2289279401571025
P 8.586889360935308 2.3967000575698147 12.36190651972349 0.18432315696353416 -1.0194071793365476 -1.108898281519845
P 3.4373296237601267 5.043602953121623 8.98970429885294 0.4390780854860696 2.1410748447069192 0.26935210961042
P 1.0860570365489683 2.4567228498112024 8.483324483745566 0.1015655168493283 0.13357909364144738 -0.046097308578694804
P 6.509823100586548 9.692006612179464 0.8272114417657219 -0.8776406647883014 -0.4237499397694315 0.13596507737512067
