# total energy = -340854.09543262346 ev
CRYSTAL
PRIMVEC
9.43852489755449 0.00000000000000 0.00000000000000
0.00000000000000 9.43852489755449 0.00000000000000
0.00000000000000 0.00000000000000 13.81423524828458
PRIMCOORD
 96 1
Ni 2.5269101780878125 8.341135847170683 5.583327261211178 -0.006509776094059756 -0.19525497338468953 -0.17173117923113648
Ni 0.14021494918853183 7.1292670154835935 6.096028872819996 0.953087630173707 -0.9893592109112316 -0.8343767118933438
Ni 4.0547053122627545 1.3346734780084764 13.677750452188633 0.08849351415671856 1.2135450083976584 -0.7585469092472226
Ni 5.983401787802764 2.599964360128204 12.481022902004023 3.759190905952713 -0.41436207079662835 0.5153233784030544
Ni 3.4592570974846972 4.36367542196459 9.148947094795767 -0.22399527874217554 0.9609060977768613 0.09329196398662642
Ni 0.7071069071496378 9.066175007609537 7.005171178968005 -0.20575150204063916 -0.02966718804712955 1.2915499643182273
Ni 1.8678557446055954 3.7369101818622417 7.785826846858152 1.181432958354462 -0.6782742403383996 -1.129376603978855
Ni 0.31623494224918564 5.1508295141874 7.632531046133473 -0.5661476601437734 2.6596334422178196 -1.0266821157314059
Ni 8.745406741893428 5.614166697180011 2.521153621805327 0.6210792791846466 -0.9279813220243825 -1.1312301122478259
Ni 5.648183140600369 2.1588832186409217 8.244239007604165 -0.24503255902844898 0.4034667640403632 -0.30558769490368665
Ni 1.9862337227904256 4.877461520074242 5.078499267000044 -0.3022378045948472 -0.1666285678972485 0.4918882873085658
Ni 0.8741999434436505 5.516685612927664 0.4489349379828648 -0.623641640595184 -0.8854552757367138 -0.07219657676890792
Ni 0.7157648659591533 7.275885059904192 9.42108713683096 0.6962817326594137 1.6767649812372543 -0.6329999418816324
Ni 3.9338166864780866 3.3643904846051145 6.728264681903044 0.840363782714714 0.33263749993262715 0.8177213627248497
Ni 3.905161325150615 6.52872199730737 12.049549234922285 0.23092285909994423 2.122811784731673 -0.5111481639794423
Ni 9.067222683863605 3.1245953232461763 10.694856645788786 0.728063653056701 -0.8280037184874643 1.1418839924172464
Ni 3.08121586321289 7.435160166096906 9.565376697180582 0.5032325086767914 -0.481617501510177 -0.10357354841829258
Ni 6.6427865696533805 0.5224261237220249 10.486399274508726 0.28708989320981526 0.6642036211779464 -2.8108225356315466
Ni 3.8053206096954137 3.208267845699415 4.424989966844538 1.6796934677379587 1.3317823294757127 -2.106671427526385
Ni 2.6316022952960836 1.6834552853648816 5.378724583464099 -2.161345422030497 -2.2071200571624505 1.8069746441858363
Ni 5.864381989930757 6.276902155338682 2.9418107394531776 -1.5316436912841622 -0.19502203143827704 -0.3785342624647416
Ni 1.7597940740396472 2.293099041459315 12.445727538471717 -0.765016061911334 -0.043846821981621265 0.1512204608722944
Ni 8.427904205762069 0.951403300991142 8.88278824593357 -0.6620387523161437 -0.5723355341220401 -1.2360850984817033
Ni 4.035988717561708 8.526121494949706 13.368698227320937 -0.2533192245172734 -1.2680865910889645 -0.35139498304578837
P 4.1275612852821055 0.8695250421045542 6.831829839248831 0.04295670606718408 0.0994978356870222 0.2039303896715004
P 6.598189539919421 5.773158647628382 9.340716210356756 0.9778116152829482 -0.14543265054592372 0.09320043271408464
P 5.842881030410342 2.664023628023312 3.0474891825042425 0.9705122534080577 0.3771947177177117 0.9692585835066145
P 3.7257915996343884 5.073773397626967 3.3769729820312184 0.10630817374063627 1.29132730678446 0.5776389486128245
P 2.613942815373917 6.008376124453782 7.191455567761078 -0.2678914659044935 -0.26516069723689173 0.2852492404566507
P 1.8645522609215985 3.23781042835916 10.359129262099056 -0.5207646040232838 -0.24322893016080693 -1.1170131973174957
P 0.3600683953259015 1.5996223079898486 6.5566232205024075 0.16449763759717476 0.9720289471629002 0.04385247840857609
P 7.03193694762823 2.6772092471848654 9.777826564455875 1.6322332173734662 -1.0391265121423459 0.3720751371029592
Ni 3.879724500783838 1.9520285088738396 9.891434312201014 -1.224403548378717 4.8438804514368385 1.8515490883621015
Ni 5.4256604796463295 6.001712525936919 7.626244988609067 -0.851136704960502 -0.9381474639241069 -0.2374010106251202
Ni 6.113294766257527 9.286932664423842 7.365860629226497 1.9404784045046581 1.3187800036787738 0.48491956930021646
Ni 2.7015228870990837 4.594296337206829 11.879717138728 -0.07773524719894999 -1.21299633498304 -0.1218918871115062
Ni 8.725217737321799 0.3819374573139619 1.8942770071102035 -0.9364664766772581 -1.0948240628149661 0.6746410144611865
Ni 5.752101298774104 7.85538216775095 9.383470840047528 -1.0755551872830251 0.38256678066290245 -1.2179598496359025
Ni 8.523969511292702 3.141971647424001 12.923714255824134 -0.522598314797913 0.3070462817270841 0.7090140926244176
Ni 9.251462688182524 5.385197523779772 9.956582785859359 -0.6388741412742223 -0.9308061930676873 0.32312544667713383
Ni 1.741993016245309 4.1896950941156845 2.1701197824289173 0.2874768442355887 -4.37292557184683 0.25810121928694907
Ni 7.5676109847755635 1.7113178106081939 6.814216608098241 2.1004416445665894 -0.19555270713076647 0.5729968218551228
Ni 1.6434925713133293 1.1271014403557262 1.454155763596243 -0.30214550199135704 -0.19864754400600626 -1.659269652665968
Ni 6.277581729125104 6.744146887603221 11.224342786069753 -1.4396923004858302 -0.6728677246108477 2.0337521136588395
Ni 0.6350692542314365 8.490094645744515 4.021959294282014 0.16496943502727074 -0.14360870996330752 -0.8320444642157413
Ni 0.6441207995255882 7.976289670585241 1.1885339667958161 -0.5712518141395582 0.04589779097337902 2.2116331145414554
Ni 5.157663006150869 4.752250049925943 12.681522653015577 0.6140352278536716 0.1997117236044625 0.36606981144914374
Ni 5.774423409953113 3.5933124653812967 0.9578347117976436 0.7875137287932179 -0.6996167105699177 0.30118210963682324
Ni 5.388585954187072 3.943717699005266 10.205707928994386 -1.4453186455336722 -0.056152121711535545 -0.0956514653577385
Ni 9.353143915975954 3.0046033573185933 8.563969035591018 0.7019479298062556 -0.40012510126163997 -1.5839209034213237
Ni 7.715106812003625 6.345529669242517 7.0923944744553005 -0.5783886822946555 1.1057245117775538 -0.10151100946230905
Ni 7.478162085137735 1.6829739205994994 3.924375330109223 -0.824895768986102 0.21462206505739165 -0.3871474580550494
Ni 8.367186175650202 7.391563619992957 11.36903253987138 2.1482412805483713 0.6036821667541217 0.29557787607616837
Ni 9.283185570073709 0.7448638379527613 10.875947014378136 0.8682029164141694 -1.4185079530987312 2.6639246133940055
Ni 4.273197723122317 8.087248968268295 7.263193075590276 -2.12917295106301 -1.7169634078330107 -0.4517150575237897
Ni 7.676503245524917 6.38755942022777 4.329533446164241 -0.8607539163352919 -0.693296938999477 3.9193855452991593
P 8.215169295037471 7.7167679923704355 2.955444688543274 1.0192986787831413 2.005028006251269 -1.7118726235736645
P 7.742025484765795 5.759217946481915 12.89673517650317 1.3842436325992225 0.26184603104136195 -2.295673478022827
P 7.027840627860074 1.3353247362204643 0.5810780607526702 -0.1779794741336935 0.9694730135102657 1.5453913798875578
P 5.0371519213586575 8.84246309252926 11.336376187876347 -1.2211210209727035 -0.6146096122999027 0.13075782214256834
P 6.071500978392558 7.755824608040091 5.895446062790103 0.29194644997116814 -1.2563122241618556 -1.0931250778459882
P 1.4707581287395306 -0.046187421164684064 9.486552744922971 -0.15373294288150297 -0.6440153191555296 -0.5875456662035753
P 0.31019051095995226 9.06892161832966 12.960916201368347 -0.020017066551875205 -0.1299587232800407 -0.37451897065776146
P 2.4827850745944238 7.932768632679783 2.550660338070789 -0.3394810052170218 1.1117817737152271 0.2801209180911498
Ni 1.669061535027466 7.344975061523787 13.192566859667508 1.5536847302446015 0.12320546371660715 -2.4699647046716557
Ni 2.6805599234929196 0.46869637738053505 11.238197596640436 0.35394526027146783 -1.350261876337139 0.6302012960905727
Ni 7.944689489516606 9.198701334486687 5.2344482370492145 0.29340632234614633 -0.7504651606803527 1.0782358194389818
Ni 1.610051877906468 6.08027880646718 2.959174793548747 -1.24500785489263 2.657920573291771 2.324815389694106
Ni 6.978967946386541 5.755367028358855 0.9275332717430607 0.0682584180567663 0.024125432293293933 1.2384831664002347
Ni 0.29340975769772853 1.6596324487408576 4.189967867482734 0.3412663792522187 -1.5799292657634274 -0.032580762149498725
Ni 5.745834118299321 1.884429794174449 5.686643241501944 -1.865030410677988 0.695620444926331 -1.3131582866166223
Ni 8.000593871974647 8.13918917030554 8.933292848346998 0.3164369789133647 -0.39019935750749574 -0.3929648360677748
Ni 4.069910775733952 9.547445387743847 9.104948467534852 0.588433211014851 -2.496386132087978 -1.2970194720732309
Ni 4.297681256483141 7.954722641391146 3.882007679935721 -0.14668092113072803 -0.7375373968750911 0.22322266224220913
Ni 8.736553405620315 3.2233128542488187 5.477137250115334 -1.474660846141215 1.3554053682112917 3.113140044424393
Ni 4.3640529629570475 0.8669643703232158 3.716264352689741 0.4742330361206477 -1.21863476421574 1.8850199664260376
Ni 3.075514994226792 3.655635044711103 0.23125424025708402 0.4390585451020439 0.1706150633488223 0.029546603308865247
Ni 7.605346206971621 4.136386305980784 7.759663256080896 -0.7357728487755005 -0.23797899461577723 1.686816451935985
Ni 3.352601767115651 6.107518389072937 1.4553016005083492 0.7896544292853046 -0.05024706908101023 -0.9871136094101646
Ni 7.869955250059783 8.084832705916572 13.678012843178392 3.012227587778032 -1.5655197752063166 -0.7121135574853477
Ni 8.285023817166792 2.622107139335795 1.6227580200076017 0.09577873496422215 1.7994271708558818 0.9789385297985399
Ni 4.119632924440514 6.067414097149214 5.580868525497802 0.25109984826845144 -0.021828922949633373 -0.8080249613726922
Ni 2.2482660486050694 1.406906508390274 7.949277556427438 -0.3085112963083848 -0.3665989444797364 -0.17368933139877185
Ni 4.139935191309878 2.253400606102482 2.0623271098200946 -3.1197876316478976 1.9676125417172885 -1.993433873655767
Ni 6.076040908826852 8.686717994616018 0.7306560265541308 -2.3018060732831263 0.6558519067791414 2.4839885297545736
Ni 6.863836820736838 0.5189083855248086 12.620505421667188 0.520403364029123 -2.014456755764337 -0.8684286592717302
Ni 7.284993236347213 4.549048049260881 11.118386850389234 1.275229887001965 0.6154115393759079 1.4068575133439962
Ni 6.464011471200273 8.916866983617684 3.408814789335025 -0.23463347518231203 -0.2743485343837469 -0.4208867592890236
P 5.133981747399015 6.522936181597968 0.21122097134484494 -1.1719823544645236 0.8960700751380826 0.24596586947599575
P 0.134792516684371 4.014544389190163 3.8965533905226004 1.1871076401417362 1.9695642661270207 -2.609321067116513
P 4.1489017898807266 2.8634219031893715 11.98991380360629 -3.646841411114003 -0.09704834570526513 -0.7039222799238071
P 3.8139568598978633 0.11456387030853554 1.6830569796178398 0.579905376049498 -0.7125570727806696 -0.2205569424845879
P 0.6961355659088431 3.102612998960379 0.542805786494843 0.968473625711474 0.20938421369722005 -0.6556680729031095
P 6.323745553977759 4.229393529472517 6.171205779090475 -1.36659532338984 -0.2411262819955073 -1.247730653140432
P 2.1204401070840078 1.9042978889024882 3.2720675541622093 2.20574271719895 1.2065577784465478 0.76378038973202
P 1.9113201513621847 6.378942047074944 11.180993529315863 -1.7430264234686497 1.2484109670369081 -1.2304160731213842
