# total energy = -340868.5849660868 ev
CRYSTAL
PRIMVEC
9.21837167635335 0.00000000000000 0.00000000000000
0.00000000000000 9.21837167635335 0.00000000000000
0.00000000000000 0.00000000000000 13.49201875562815
PRIMCOORD
 96 1
Ni 2.820877064691898 4.254896191965665 0.668355919395472 -0.6276139949793706 -1.5474117527516962 -0.9124153492653254
Ni 4.6350434060522 2.7184056443566265 0.5842290588359462 -1.0253785664286341 -0.3319265899085316 1.3078435592719282
Ni 6.448232600007363 6.820839186005176 4.755599428079964 3.6437082648016603 -1.1506576248448184 -3.1707849486313715
Ni 8.85891055871879 9.00611873714034 12.209818187399641 -1.283131658347545 1.081465382119873 -1.081037550553835
Ni 2.4554608086564387 8.543522406152162 1.842861288933138 -1.7366097213090286 -0.604120796953437 1.9071394240328965
Ni 4.637633768512997 1.0567019533134392 5.503650936736369 -0.17765834334884886 2.082559364969529 0.14396763596462303
Ni 6.076123806083869 7.661241264656254 10.083894810103695 0.6564093219445082 0.8692470414079675 -0.5445701910833137
Ni 2.5425283298031314 2.9428822147582276 12.163392623609383 -0.39703874902683234 -0.4033736901059246 -0.28702715829267983
Ni 0.8890594102411875 2.0567201387569987 8.012721186285194 1.1916129842112573 -0.9821632073834247 -0.24074421606574026
Ni 0.6943941322309352 9.032418751733408 6.773047459522072 -1.3328943315929689 1.1259477808029643 -0.7871008096255154
Ni 0.9331296800501865 6.590472076057494 1.838287132872472 0.31525992788612806 0.45499321405442933 -0.9752345985843914
Ni 9.230724364746393 3.82297860215019 6.741921627319657 -0.5106311151337077 1.296744106924657 -0.481883353577054
Ni 4.354168837304864 6.623713524575755 11.525772599291445 0.14306877829943748 0.14500636164178254 0.26207074545765835
Ni 8.092163270323095 8.642979418926293 5.01942185277043 -0.2838965830834982 0.17325301519230163 0.6973443695959732
Ni 0.1639118680264003 5.022795776829687 11.016489824592579 0.13490629709330312 -0.9098735566800782 -0.09298805959296244
Ni 5.898412035552799 6.106461467501949 8.170308329456248 3.189833737732706 -0.9699476391538392 0.2338660008886682
Ni 8.994042670152288 1.7551871989255179 5.2655569875906805 2.3041545189106447 0.04749264626432466 1.810308850765392
Ni 6.826084439528994 1.831266420950257 4.972294770890255 -1.7222711931991694 -1.337105027240207 -0.18823714730595967
Ni 2.454631155199244 0.6334265870104074 11.797326472365787 0.4872957828418769 -0.2865499615459452 -0.9642207639723911
Ni 0.6676027784237742 6.30410335774918 6.159848745635242 -1.8217044941968432 0.2510288858211999 0.968451771334603
Ni 3.5952940383807706 1.6932766142753124 9.796771107149336 -1.351945177576833 1.0078403004345546 -0.9069782374101542
Ni 2.2622437368475783 3.8617787288316547 9.80961506450388 0.3947882624297588 0.4290566966943255 0.650754437651576
Ni 3.5833931204559017 8.485833835761902 10.031775058085561 -0.1271071127638585 -0.45030300766761155 0.1988959125713865
Ni 4.089131431218197 9.051436252646655 0.5489116330003495 1.1308950975059104 1.805324510176923 -2.444030244194081
P 5.002174279232529 8.864201904101343 12.042274280905078 0.26011387884160364 -1.2912406606079245 0.22962008112812066
P 3.342830491356473 5.5342402597031315 6.20650384688199 -0.07638773203212006 0.14608776763141937 -0.26614388708576747
P 4.72065442446293 3.4189004950094657 5.6039910695238255 0.5742636043826884 -0.6301524451305083 0.20336526119664977
P 6.300628031600709 2.9370193303273866 2.7713688773895764 0.9024027022243296 2.1182460197378616 1.7332004385171633
P 0.2392803535894758 3.853629688207655 9.04811210779483 -1.0482325882086723 0.8024320406659471 -0.2410344936126494
P 1.9791936323680426 8.28414508031791 13.17447101147452 -0.7759486496634378 -0.7637477367218718 -0.05431249739963549
P 7.619528132502862 0.6988668862023883 7.022204376600861 0.6594421952335611 -0.09115177771517205 -0.32032140156943545
P 0.6419803141540832 4.9983947468164205 0.3240017991266577 1.3235478573810626 -0.08144483484005327 0.18930621200042236
Ni 0.2951040473753974 6.846890304561084 12.767322264705001 -0.05608373036744535 -0.2920819471077679 0.9841002765051374
Ni 8.373489539286016 2.3065380130900195 3.062242613970456 -0.6939155464200822 0.05336787409817905 -1.1840464847179093
Ni 1.6104218890168183 5.417231467123462 7.97811449691126 1.2397003266367876 -1.7825913302454655 0.565995193726309
Ni 5.174705324842006 7.223156584142298 6.307195199632991 -2.250909543543575 1.2287152883801935 2.3370294152617945
Ni 1.9823463155053818 5.491900278270969 4.2450205503135265 0.9440874835576257 -2.0988285344431983 0.3280118282351577
Ni 6.449071471836305 5.727060941526887 11.09375821657263 -0.06850010175392718 -0.9494559469583908 1.583243417738325
Ni 9.239942736493001 3.332395294539315 12.778075495347418 -0.2336168609923396 -1.468550105257787 -0.7156241417417675
Ni 1.5323330619513196 7.69718369609627 8.328461480652544 -0.1346551003144455 -0.4087946040111798 1.03758744979
Ni 7.735135732577046 5.119883668064941 13.388791701722885 0.9506391686332144 1.2422038097849317 -0.6651050499462933
Ni 1.3498461748555082 1.5993782796643843 3.377295217805509 1.4662908769099652 -0.4951741571486891 0.9234042441766614
Ni 7.845304493320734 7.629889582346046 7.441927904269926 -0.54932956014517 0.6455027023343335 -1.6088752593738165
Ni 2.483244981100709 7.6338166087101005 5.941156703504636 0.921260201250465 -0.5707651043111267 -0.22730583117264722
Ni 3.4971921262533896 3.2089244233652754 7.787147629645746 1.544170105885947 -0.13190761947629542 0.31980409561338474
Ni 6.84301858842751 3.5061339468475974 11.922357092039354 -0.6011347177419195 -1.6587631453431948 -0.25748184053539525
Ni 4.650567144073485 1.8838480133928974 11.985500172992081 -0.13633454489939745 0.34008855689403367 0.8606284465010211
Ni 3.0612829814716345 9.212794631699246 4.334108738547076 -1.189496709199203 -0.9663447522939292 -2.873128078538987
Ni 6.225950002081455 0.7161762228309904 0.36993786737716977 1.2117056411960745 -0.4342570099483425 -0.36928497595233173
Ni 2.2662076366986184 3.4960767032720503 5.942141225607174 -0.6458274326636039 -0.2579163569696526 -1.7050360602678052
Ni 0.2205486222003725 8.796649675942215 3.031130609325661 -1.573068276977536 1.2047394942908864 -0.49097503146567706
Ni 0.6947527268918782 2.319840123520372 10.620080480907856 -0.9526513139672368 -1.449733486771916 0.10990874660770103
Ni 8.366096405145237 8.980215112532377 9.333900068683107 0.5810438605293154 -0.13608977587844304 0.884447917518122
Ni 6.07171742438899 5.274521854114255 2.857420533969793 -0.9559523533160117 -0.1692726903883149 -1.2391840491220014
Ni 6.873863260291654 3.001723081616814 0.8380080675084838 2.4507909599566826 0.17870606788707286 -0.8431608858438769
Ni 2.3389313714075928 5.280098969020951 12.265581039932036 -0.40777027651172354 1.4440364363871387 -2.237304551165631
P 1.6397916214015051 0.3992762572979179 9.312568756461461 0.16669335969691293 0.3230812237027597 0.9891329538330385
P 8.307578181297783 6.855979619103238 10.842577866895462 -0.679536651990591 2.046670107272088 0.6297274417779477
P 3.6422524240579808 5.3772790439736715 1.9789014099836753 2.7414174055648464 2.5968525023358566 4.011861184032078
P 8.442931533653196 1.0348267571587433 1.1543945697352702 -1.4327503219503583 2.2261608758439855 1.0108551760014783
P 7.6224227012312955 5.731642472284951 6.25472422765131 0.4163315358181733 -0.37446523460169057 0.5825523267540419
P 7.577630632914538 1.3753626278501134 11.070093734461919 1.4063600048822877 0.4158126872002258 0.531905965352084
P 2.985756861751692 1.4357706179056222 1.5699716737927114 -1.2790911697295841 1.7680471138827034 0.690565913221559
P 7.355117575694964 6.74521166419602 2.018460208659885 -0.8455985487510922 -2.0949304849403725 1.6837892350738872
Ni 6.814847244369882 3.614698710907376 6.9167646405631835 -1.0211025647610994 -0.044216289505898045 1.1932080966125191
Ni 7.77909814743661 2.1082784919357653 8.9189802345312 -0.3722240039759977 -0.2240374448340206 -0.6109411623093801
Ni 4.238690294435132 6.539632755874961 3.9875523492679967 -1.6642426804005277 -0.7425847294910114 -0.016812700681964592
Ni 8.583391863956232 6.092458760818855 8.908078588103663 0.8091012251560066 0.03398484158587695 -0.8796224711050205
Ni 1.2764494990090318 7.841045605573803 10.859860470245998 0.41806471645919613 -0.5784269917317586 -0.8982701681131949
Ni 1.1043978087303783 2.989895910665918 1.492500477634235 -0.6623485702470786 -0.2768710436952845 0.1740747397626486
Ni 5.369849036345908 1.361101806758114 7.65535809980757 1.7756439523933547 -0.08829296811013826 0.6214487467089234
Ni 5.215957538408068 7.880675385712461 2.214161631654456 0.41960943523849675 -1.0284386934111964 0.23733313350166224
Ni 6.9093539915160855 7.457174169301637 12.581604338312003 -0.5530617734940927 0.9285932445767685 0.3945293523414173
Ni 5.6410443147593075 0.7959547774376422 10.38057058986189 1.5820146875375465 -0.5316532259113295 -2.7530950990130907
Ni 8.135213066379745 8.224732674411035 1.0142034158872366 0.9524456257143338 0.30504493502633917 -1.955582607135948
Ni 3.652263575774795 6.820267646956886 0.24800462061046366 -0.6671102533017802 -0.3678991513483987 1.3800933578762746
Ni 7.181166900836509 4.383298892024139 9.618797534860661 0.5155910302421444 -1.9750859672761985 -1.5779474594467082
Ni 0.9216712439691553 1.177370439476511 13.479822200883444 1.6548558398689885 0.060719429367243824 0.09846142400270785
Ni 2.9891492225544427 3.2868196646240957 3.1098425983212308 -0.008040868026605506 1.4544455475356048 -0.0026778039424792594
Ni 8.658927202047922 4.806744798204483 2.0855690331380017 -1.1374696653996346 -0.8615219048495679 1.7076308175781751
Ni 3.785985276331061 6.694252505180783 8.099069674435652 -2.563705583270243 -0.2775343883108962 0.4714408180874913
Ni 8.971863267729953 6.354610816548834 4.096797429162675 -3.0006923334449227 -0.3140129428529044 -0.9640878379389525
Ni 4.479870554441583 4.80775881909661 9.599801236202431 0.5464733216432975 -0.3651753246593324 0.768865003343779
Ni 4.724203497585373 1.7476465708367945 2.8966152069620126 -0.7801194932116757 -2.869442145046968 0.8170631603155606
Ni 6.90105745694414 0.13617010009216435 2.8828669273391245 0.29403778528255814 0.6654470066667443 0.6022240941513564
Ni 6.974924269749694 4.0684546233905605 4.669182723978581 0.40379946478943357 1.2637632811232622 -0.3879038766050997
Ni 3.333095890792057 0.293752634077345 7.3894707598458655 -1.7697077894145783 -0.19247149710228142 0.9581200503912919
Ni 5.581134116778116 5.351439947967935 0.09614208629405202 -1.810525080541256 0.1282168008882695 0.8392705496505352
P 0.5220096587322294 3.743285778400782 4.131472334487533 0.45285919843056205 -0.15665371607272377 -0.1273786212576903
P 1.522257381632279 7.424872994701531 3.741349920333995 2.3076311646053353 1.7102551425748995 1.1503583484368447
P 5.64817933449118 3.0597158582747115 8.867939953844592 -0.7080255034589031 0.631897195735757 0.35772786724235167
P 2.075018606674011 1.1566844132771272 5.766745110058852 -0.8674917492797577 1.2440465194206252 0.17391096049127466
P 2.7546154085772945 6.14499426140276 10.084340057459057 -1.0976013684497872 0.20726459625105598 -0.40440573091486487
P 5.010904077276566 8.47454133037231 8.39574637603102 1.3310621634802366 0.07002219482540845 -0.8582347494578639
P 4.494260432738035 4.095058844251265 12.261114738820805 -0.26955316987763256 0.14611707820745803 -0.8826070076546413
P 5.097519898207675 8.50767215842961 4.53953830924584 1.1223127551535381 0.06488333093694632 -1.8513025195689343
