# total energy = -340886.6297113428 ev
CRYSTAL
PRIMVEC
9.13456575317410 0.00000000000000 0.00000000000000

0.00000000000000 9.13456575317410 0.00000000000000

0.00000000000000 0.00000000000000 13.36936031582953

PRIMCOORD
 96 1
Ni 6.3561872375565285 2.538669434846959 11.86680506060071 0.7845844709615649 -0.3251458195412723 -2.018243733610595
Ni 4.865882802468314 0.6666040849218356 6.216190879774353 -1.217381351424613 -0.9618134400824789 -2.7164237117339862
Ni 2.9418965796713477 2.1356341159075645 4.826138306010645 0.4585711612136748 -0.599026156039349 -0.11654630652887671
Ni 3.6841440052426804 4.567136823004263 5.039098836248561 0.25932866393614695 0.6561568396140699 -1.1939704286998405
Ni 3.854366641760418 2.690321498784038 2.347659266591984 -0.20690129937436622 1.1645886331036137 0.6951771867413253
Ni 5.423136998377334 4.782009217895958 3.0302186978623857 -0.7334953655952335 -0.06551427965272588 -1.3304522978103797
Ni 5.427439378940782 3.215285004052317 0.5158691314063489 -0.5381439758419958 0.46442941976666463 0.3301142192901412
Ni 6.035838009615715 8.286677271311405 12.5652202714508 -0.627812484143422 0.42848359779967493 -0.12883437986761037
Ni 2.3168639043976054 5.831022771837303 11.519722611944427 0.40991971875455857 -1.1394684409972182 0.09831358557093392
Ni 0.28579407840054216 0.6131906239734151 0.7232813262849485 0.2760750301565504 0.469662643141146 -1.4586505867558879
Ni 8.221703103693983 9.263454677703393 6.921036825054734 0.1834379261451034 -0.10216818343033372 0.3494517432764885
Ni 8.641418140061946 2.8164789891487536 1.5242813666037156 0.7604279283200194 -0.11960566218049079 -0.10250628349604282
Ni 0.6911852018989879 0.3105505790439751 4.924417101089493 -0.38083308580124736 -0.280998949820729 -0.9499961357325768
Ni 1.7891326256458346 6.929892786745314 0.6980279052537203 0.42021055915760536 1.0338290111888322 -2.2583444025550654
Ni 7.689230985213062 4.027603685042354 3.6722288774147365 1.088327656457345 -0.13248431791537182 0.3843002184142414
Ni 7.6516787845839005 4.3056324689270005 12.854506494414839 0.918996602027269 -0.6428092146625703 -0.5150282157601388
Ni 8.215802174088912 8.006072539828262 9.295703349340753 0.4254149861766802 -1.2119236707441514 -1.2315725553233305
Ni 7.008020729333788 1.147255810756385 0.40806663786582137 0.026966758396830978 -0.6781063473019677 -0.40485490263714147
Ni 2.2539176104215533 6.942854735831371 9.445252636195656 0.7039875859441037 -0.6563854106851083 -0.7641709403022194
Ni 0.11043233507814257 5.2544398343736 1.1494618084338217 -0.22342089429594425 -0.21586185100176375 0.28207367094214647
Ni 6.485267789025922 1.989755097652224 6.864418044913715 2.9480942476332324 1.8156983972120793 0.17604626166672263
Ni 3.2958062029202457 4.64588591607748 0.3576410934403389 0.7060082159185582 0.11621849087581276 -0.0979034946167088
Ni 6.3388589659453585 5.714292153535175 4.916007819673973 0.18322041081765866 1.2108718324408694 0.9812057285661618
Ni 5.435176356302226 3.3303165930873515 9.652985454339174 -2.134135180164292 -0.5693031750536196 -0.8533231710888595
P 0.21543417069775042 5.996568510587556 12.329691882571579 -0.1403863463712679 0.10947294462186308 0.9183443131552507
P 3.9064793405172566 6.55017801468168 12.829345332499727 0.6219920208069031 0.11057080567173216 0.540265907281005
P 2.2310629264093516 9.018776194109932 1.0838509615695366 0.8004738884983118 0.32550885930764584 1.2095436005477491
P 6.456859288914832 8.128046398986907 5.875900894360065 0.4739167904318097 -0.780825775250081 0.29868582557753076
P 4.923622393851659 1.1533485662464484 12.822767531557606 0.49252926332667435 1.712754769068302 0.268626287187989
P 4.007982637377204 6.82624286688662 7.995680144144535 1.141167683076512 -0.9888619595598389 1.1721044818646846
P 4.826914744116575 1.2990266240508421 3.695518366766259 0.07789928358064004 -0.4234239238885804 1.219574759531506
P 0.22293182243124968 5.962542252415913 3.6533778736593483 1.15804723244067 -2.0777809697442797 1.3160088686915399
Ni 0.729249851678063 7.856969019791823 2.903905006419889 1.25278209952141 1.3490827684273732 -0.7580931095392557
Ni 2.065352765471961 6.720071806825141 4.829066847854894 -0.528093019363897 0.2008522649668089 0.23435579604089318
Ni 6.042588453854331 5.95348076299141 9.46477229017874 -0.06228703096467983 0.036510436221208094 -1.0913517879956496
Ni 9.33223795932285 2.860443655076302 10.359249084255325 -1.0171996301622674 -0.5777564480272953 -1.3375356870197224
Ni 2.382696721214527 5.567408333025101 7.0276582192176535 0.04450296750838142 1.3773075676010214 1.3180739787506848
Ni 1.1406058467432425 -0.2960850804021994 8.846853614868508 -0.47216432651707707 1.8709544894719068 -0.3101403472713755
Ni 1.3832747258272358 1.2570715626327595 11.747603542208534 1.0794300968573989 -0.06951671594389963 -0.1797026274723873
Ni 4.270902849177044 6.826188059490907 1.6952612586388836 0.425584421875009 0.4329447188948221 -0.5628445639124694
Ni 6.010608338455962 8.277835011469753 8.143545017037866 0.08513102544238887 -0.05626576447126439 -0.006142365452312002
Ni 7.0505512684068545 0.7741809546833459 4.729691904861792 -0.3333772063121291 0.6300154053320117 0.19250672121559106
Ni 1.3981914720270459 7.8213350780126065 6.810419058287764 -0.3839400068613453 -0.1860365401102151 -0.21468479997452705
Ni 5.068286514835367 5.006820020543558 6.921973118064827 1.0360576434090352 0.3317170450008868 0.46436797040110994
Ni 1.1837301326031962 7.9790616283078455 11.846096086130663 -0.4645512900565097 -0.08097046630679604 -0.4339415355904527
Ni 4.704995692353642 0.6490474491618631 10.50152542969915 0.7027742823622929 0.06743077994914838 -0.012067729797811474
Ni 8.373199880009874 7.382775432085422 5.0423744915989905 -0.07363665164954415 1.2363373237018256 0.24536551688783548
Ni 7.334554058424185 6.4420064846766865 7.283306403063012 0.3743827021902133 -0.27310129224020707 -0.14649528748248317
Ni 2.1253577292114305 5.911607912666897 2.61663752253127 0.9195450183315712 -2.329994105681568 0.448310402717615
Ni 3.870132902593775 4.954835205710049 9.049492999037124 -1.1571820562268975 -0.05312001975343109 0.696524187687523
Ni 1.2538561954176137 3.6493139052672503 3.7856810999966495 -0.5750508761706742 1.014327707931111 -0.21333368526327132
Ni 1.4396989397134745 1.5729174495591782 2.577733406141195 1.3352381492347971 -0.6157648089502685 -0.19274223426516482
Ni 1.1412818046236992 3.414820462710404 8.040480622856702 0.6536705828571066 0.42806836463912734 0.5801200631634654
Ni 5.6594390849927 3.1359695678900676 4.896180330818303 -0.3858868461750709 -0.42416363026808235 -0.17351526771475279
Ni 4.313716559794626 7.325483434433731 5.938255268462418 0.17072870610855112 0.615011989944644 -0.8541991459359094
Ni 8.370998449615415 7.78026606949188 0.10389746659599665 -0.5380493592456606 -1.2590656185372768 0.23835874655269915
P 0.3534264047100312 6.47301833608413 8.27878957361175 -0.3885831620603114 -0.14667680736566996 -1.1411188321164476
P 8.833600273128578 1.3541080567421198 8.68339969172129 1.1803278982157415 0.764126203107213 -0.7308687266056639
P 2.240142684965758 3.8766641172495406 10.070684492001504 -0.29317363751004993 -0.2870323004990024 0.8699127000164244
P 3.996463949711581 6.456256407561992 3.8432900670868784 0.6040421211967016 -0.5350527385111817 -0.16135163576902534
P 7.121079252123165 4.163197182035609 10.37530582428596 1.7066720532093318 1.3512640923494084 0.8654947734543869
P 6.548835233486718 8.310865601952615 10.40751247691994 -2.71937816637662 -0.47042497522846727 0.29422239048953847
P 2.6980858798433394 9.277978637567262 5.73903860615606 1.1637440257151312 -1.5006942940904993 -0.5841628657742713
P 7.051154149759694 4.319562682003982 1.5834404695360191 -0.5978614463072865 0.2339853000753519 0.12565778191184165
Ni 2.796099772509576 2.01646456849622 0.3099458707779448 -0.21688720694248453 -0.7763865085318048 0.5123478407144982
Ni 1.4729944326089484 1.3557888168773096 6.89058218217037 -0.43201963597739146 0.6249359339265754 1.4970975778781765
Ni 6.7938608305863575 1.4543781871985297 9.234725554327383 0.32305705533304363 -1.013717585150938 0.8758830586672465
Ni 2.75908651127159 1.7295387173742103 9.293684610265336 -0.07477025103335509 1.125689899155887 0.08511585593373729
Ni 6.437503143662291 2.031965926916966 2.4922356957425524 0.24401748750037333 0.9598660865481212 0.8565735597053569
Ni 4.394621410432544 7.199316809503063 10.833794352750882 0.4247395573762105 0.5655876738752453 -0.7779479394816537
Ni 7.283747602598499 6.230797050731791 11.430643238235957 0.5797346547995886 0.7672035564809561 -0.09619988166204078
Ni 7.99960526713416 3.8578743150860313 8.250807657730624 -0.8507356128673413 0.06657845925118211 0.7333333860960725
Ni 3.455094763993297 8.844817520117779 12.487196462914183 -1.09722727293982 -0.8637029716612867 0.8527071347714154
Ni 0.24120552161846373 5.3506542175472696 10.131100511208821 -0.09685859829196222 -0.5228160872356739 0.021093844555821736
Ni 8.93113003379935 2.934159602309902 5.776620037396268 -0.06813140556059878 -1.228349934620975 -0.037530135734974074
Ni 3.768273357661696 2.9959549409759876 11.766307479452093 -0.9142513740327997 -1.0654723491257263 -1.151369049089546
Ni 1.2193001324207475 3.7409792745967647 12.336992227680513 -0.008138312836418242 0.26058901870580925 0.7942513046273676
Ni 3.8169514596205385 8.968389928318045 8.158077198011092 -2.8987655766014333 -0.781703549869344 0.7399298083666677
Ni 5.751698201109102 8.117824819686485 3.537906912002017 -0.6693972495637439 -0.18643660376211119 0.673702047586685
Ni 3.211311467863145 8.554374861104204 3.305200190545405 -1.027842197477778 0.2474784494657802 1.0093107143324942
Ni 3.5481759910453894 3.1715304331416667 7.22924073410561 -0.0016192807709778565 -0.3300885082585283 0.20231547977589673
Ni 4.944074687018453 4.875227463437332 11.714768431437047 0.9684903378820223 0.7637258823450008 -0.4668272305748799
Ni 8.08129569044396 0.11627023617814182 2.645890056536336 -0.8508700815626765 0.21425465441564395 -0.652705904950992
Ni 4.644534000316567 0.37992121325415235 1.7138446196118746 0.34925968187034045 -0.09038070387710241 -2.226737574283062
Ni 6.099926124335782 6.080094981653732 0.16382569998146854 -0.28995795878622965 -0.7308977800713864 0.9442093538474705
Ni 8.213956991766585 0.12419355868500984 11.32689649197817 0.3050295084073714 0.9763856814696991 0.7379780839569354
Ni -0.01761692389525669 5.338751878111658 5.975770017371175 0.6288234419064397 -0.2030330746682116 0.15254766432415018
Ni 7.712524128390966 6.780478691466503 2.7605590033030714 -1.666685485514065 -0.8515833055796173 -0.7735834918653709
P 8.819825347672781 1.8615880027780425 3.756443181297107 -1.009826477626648 1.0363211814830668 -0.022938353963728238
P 1.8729422682565264 3.7560878466815693 1.6042161263375185 -1.032674328759099 -0.9284688031837623 0.393790931513496
P 4.872697188668595 1.6729135430370246 8.123624355609484 -0.6276371349078224 0.6176262876390396 2.132355719666366
P 8.63514269325284 2.058154727501691 12.335467668623105 -0.7735343837949904 0.4495149645486775 1.7917884233637011
P 6.433237301362651 7.8433037091274524 1.3988491607755984 -0.014428002499871926 1.289361955527973 -0.1268235200851687
P 1.8577606196441045 3.9274066311135614 5.936196337296811 -1.243572150887368 -2.0766969926514816 -0.4883800170449912
P 7.142015677285421 4.116638299377659 6.290832158538903 -0.7845289351332811 0.9361916257493167 -0.6649713525819063
P 2.5806336308309934 -0.17562847264820144 10.37386164940893 0.9659210344929493 0.02738353421927542 0.9116897839532104
