# total energy = -381172.45148114447 ev
CRYSTAL
PRIMVEC
9.21266033351205 0.00000000000000 0.00000000000000

0.00000000000000 9.21266033351205 0.00000000000000

0.00000000000000 0.00000000000000 13.48365962806768

PRIMCOORD
 96 1
Ni 8.7746444012737 7.705920526220121 2.042572088892637 -0.09384449405598677 0.1458162591375876 0.7055508166661656
Ni 0.984814964704218 5.702553834657604 3.8234530333166954 1.0596827390271426 0.13978342267994637 0.28866726499926415
Ni 4.63985503946442 5.738529273273575 10.151051784996245 0.13632734581054587 -1.2985423364756605 0.753109026061103
Ni 2.719835285970709 4.199978146353864 10.838475625159989 0.08019605003461672 -1.3357084040029963 0.17391893091107466
Ni 8.314794460552536 0.5686735696858982 0.6816042026288648 0.010580603729323713 -0.862833681682456 0.5263747511212096
Ni 4.554398402178444 3.647375141359822 1.4848477660172588 0.161560923566354 -0.6429531964396024 -0.20394607340078424
Ni 6.692518676490203 4.707236437169211 0.45374931704600563 -0.18589332966413147 0.45853722265194585 -0.4761017138982704
Ni 0.6762534895051375 2.9869287344609026 3.3938233822989794 -0.33636739928870457 0.8298659685071836 0.7317524147621978
Ni 7.984234995000775 6.906924920513116 10.493806049036086 0.9591202095210319 1.4217398297724677 -0.7726447821011855
Ni 5.522695066898428 9.068565116665226 7.141984106479506 -0.34001065246824663 -0.3373588166676964 -0.3246465113073505
Ni 7.769404968602361 5.732458130111494 4.668973494991564 -0.5413686534268806 -2.203647268122502 -0.4569238554182389
Ni 5.508986628316977 6.342870578720187 12.999528974848634 0.3298478530026319 2.8034447551102364 0.5964396262590954
Ni 1.4941276787747149 5.529724326735556 12.519065706623438 1.0746077357680912 -0.5247644692112962 -2.1814882155269593
Ni 8.341741492038249 0.1477250085037338 9.602132001604934 1.2514353556855289 -0.2731789395556779 0.6535967921963777
Ni 8.146939789212466 0.2363130290382554 7.1071832820565035 -0.8516398698491655 -0.43955682489470105 -0.5769612058195096
Ni 2.4510743459595195 7.555146127144841 7.710495533343472 -1.4085048191394323 0.9004669186541976 0.824139864656684
Ni 1.2923888427151726 0.5500824211258399 8.203027386610131 0.5881820142359935 -0.4450026785006207 0.24697117081205852
Ni 7.98575508395638 1.477019768528913 11.801829697609175 -0.8363346069506629 -0.15660820754676902 0.40778158936563325
Ni 8.286419466714587 5.053964121612399 8.285547027780673 -1.165731231348489 0.3235789892747847 0.5014435350971687
Ni 2.84380084346533 0.7649760148805792 0.7164971536552378 0.39535081980144815 -0.5029332322688177 0.24105969042363
Ni 5.532128831083512 0.8584845173010904 1.2624670432066427 -0.20202957310436173 -0.9569697388369326 -0.6347544626788939
Ni 6.670795223415567 3.8271970584776507 2.583766135325343 0.7354434904605398 -1.0192416002929607 1.1306919803561688
Ni 3.4110796163762065 8.734827283297202 10.654707004353792 -0.05818329320895141 -0.6385884917130034 -0.0749132043691226
Ni 8.353340231402527 7.8807123307939495 4.834808751185766 0.07669112220515178 -0.4302568876500138 1.066621375128505
P 8.950578575729315 3.8553601611278476 5.346581245566241 0.4775135066441324 1.1406560335474163 0.410246505966358
Ni 4.6556271139613585 7.520792116748183 1.6688052463603646 0.8522643908070419 0.6272355285940295 -0.2558803003762303
P 7.998192175411325 2.0728670011448154 2.5112238052997675 -0.18817286972692754 -1.2160942571820734 0.657392511793384
Ni 3.866314014268536 4.44317395392989 8.238961368254586 0.33002345934854777 -0.0680046501747474 -1.345315073854825
P 4.236773511739827 1.0932203388896522 5.363084805293935 0.6898112944437217 0.5434471332224641 0.1670008636350027
P 8.367398751076784 4.074031866886789 12.403213739087612 0.36446698573839814 -0.36981128076944697 -0.5395179733713871
P 8.650374825987958 8.691665969618375 11.910453411844596 0.29705343218043034 -1.2064490207828253 -0.2477954664855668
Ni 2.7268184825061526 2.1638420219726524 6.736759713960526 1.2884489567954005 -1.0538437637478624 1.5791936731489835
Ni 6.765657986905616 8.310298682308082 13.062416436841037 0.5137971715665152 0.38472162222237616 0.10446083611925235
Ni 8.606826580574978 5.128033910721849 2.4248339255216536 -0.907288055341089 0.1573396863961548 -1.805382102887736
Ni 2.39730926023281 3.439546736817525 -0.22242125851609887 -0.28719350866721505 -0.2346658710821442 1.8973046973306615
Ni 1.2106172695639945 4.6288919736633956 7.920503653321503 1.4877205075386508 -0.4248336597519135 -0.5348226247782466
Ni 5.708367023330249 7.596501759397617 10.873978454300673 0.01692762899327407 1.357877226790552 -0.43768737578613004
Ni 1.0112737251920711 1.402222179252841 12.934079472016512 0.08102085992875724 -1.2676590166332427 1.9522152333256122
Ni 7.750159721158376 2.5291608549758995 7.69497588573977 -0.29744012609588777 0.17179031460384608 -1.4241270990577215
Ni 1.327599630523172 7.672312741310758 9.968806938209784 -1.020673704753797 -0.1643143179417751 0.3350689921922552
Ni 2.9546199346590574 5.77252398991709 6.371204115586619 0.7186791265180074 -0.2538936089635047 -0.6228538545865661
Ni 2.267429174801838 1.1929658123583098 4.4263755890714105 -0.3533153399969528 0.8042148435979827 0.9339740492727077
Ni 3.510668474619136 5.6542242185297225 0.9627626196555502 -1.3624527619763762 0.34842998688019344 0.7252302973729639
Ni 6.069917878255664 7.489837578015875 4.492243346682832 -1.2882471251972394 -0.6662203944976591 0.35745687296915213
Ni 4.211383419851066 4.717886272518779 12.488443744929297 -0.7984522300825926 -1.1134051682512631 -0.9355172253901115
Ni 0.02962791564377973 3.053960051072887 0.9711304790396439 5.710843581906635 1.7926944801177385 0.7280312571568688
Ni 3.2321697526317408 1.8378520359480426 11.723340595336067 -0.610133064585788 -0.21304726437110408 0.23145456323369817
Ni 4.0180465300188635 0.7864083478885671 8.6706003004918 -1.7281019409483334 0.21997767294235018 0.4329354629234415
Ni 4.626911251690941 7.181416135253917 8.3006217038901 0.6309086065702425 -0.25034394393903336 0.012991527163661497
Ni 1.3633816032720654 8.313467837464009 4.112030405712764 -0.22157484222614096 -1.0848091017811252 -0.48319358774804516
Ni 0.49630259514259095 2.564905977083445 8.983069786205835 1.5751966361744485 0.26462796466187327 -0.7133412592448618
Ni 2.0381905476363618 3.754352553193022 5.445093143815774 -1.4000176076040276 0.9890671335921094 -0.42633492688778835
Ni 9.069034962342412 7.367263132232141 7.972092708676614 0.08955769375517479 0.06154655325422948 0.754614664072352
Ni 6.710013518470159 5.159909715487855 11.286537966979967 1.6145807943990256 2.2591067346423865 -1.0767646342100938
Ni 2.8420504380013005 2.2222502885092084 2.493182652561828 0.9965004499417031 0.3205916245116866 -0.7387370736101471
Ni 0.7983120263099999 2.8411936605899597 11.315419657136449 -0.6012383331993194 2.0186139724658205 -0.019844031309120665
P 3.5874099352263142 6.936626537439591 12.020466395258836 -0.5664222539613987 -0.6382969286145136 -0.45744990312503797
Ni 0.9570387937881746 0.9400967114284385 2.1413935325294937 -0.463894373198801 -1.3336839173737998 0.04449139754415563
P 6.793848727536824 8.041344276429815 8.671948112699102 0.30206605490367333 -0.7801644875169983 0.31922893983620504
Ni 3.2310089574292795 6.735855030715434 3.6519280380983656 0.5086025147394531 -0.5221787107619911 0.4251558189780226
P 4.980318114878452 2.277839480982643 13.35770891735674 -1.3196886315359724 -0.36690593419719386 -0.787285671942812
P 4.845453980205164 5.932695302536106 5.285675426812325 0.07495408490938704 -1.0273398039200627 0.32008640274049394
P 1.0341026975071477 8.732634670136997 6.3551455273532005 -0.2798095574983181 -0.6268663181800688 -0.7405805545767891
Ni 5.334397502270563 5.5471454674328164 3.05410284730811 -0.42871114042944874 0.6600710870668116 0.26219364418876784
Ni 6.980441950002345 6.850220996138904 6.674910518788103 -0.07392024432823399 0.9617792444104339 0.6065170650997556
Ni 5.266583109529933 2.3378507504178367 7.044335434503549 0.23920926747845256 -0.5264881367706222 0.7715170962546455
Ni 7.280102152783821 2.58733880500403 4.697625789905656 0.5434422481264577 1.1305873364575045 0.4934080663872018
Ni 8.381798139183509 6.222322918210592 12.97981572425953 -0.28649545415892597 0.6393359114019893 -0.2646001967477314
Ni 6.687184546155082 8.626873329468282 2.6698317294595952 0.5829534188472025 0.49999214736262276 -0.15985422528789245
Ni 0.41670797362904505 1.7989009080432228 5.99803056838005 -0.011262974508328989 0.5831339102891248 0.5339862449198804
Ni 4.862884333562762 3.5489286529986805 5.119111449185468 -0.04605385693526907 0.6961146109539302 -0.48862504317626165
Ni 3.3645464690140394 8.237610792249182 5.602325617787288 0.5654328934649359 0.28101103400558697 0.4191839176653039
Ni 1.167962652203702 0.5984350689045643 10.806883570332362 0.5428886896158327 0.12072666315881142 -0.6388908534447707
Ni 6.276336745766401 0.8989815296104583 9.20034577392372 -0.4878567975516695 0.9955889938710273 -0.4237702514844056
Ni 7.359109927833899 2.627367814168278 0.48305202577988937 -5.182630749135423 -2.006389662485487 -1.908868748019177
Ni 3.9709053470744538 9.087266817149327 3.3051284949045487 0.39889739950212594 0.5404805943949724 -0.08424476618269362
Ni 4.672900852093226 2.951865349218295 9.828886895543555 1.1356902049017086 -0.5852375868956888 0.24263294844802083
Ni 5.276781524522989 0.9079795349616024 11.346377880932891 1.5983190811245247 0.4041380790757749 0.24085657327388843
Ni 6.364124186117638 0.5035409823693688 5.1455130911792315 0.2590813238120312 0.08467234063841546 -0.6681098982108881
Ni 5.439937739091191 1.9079788064332577 3.2416339185959373 -0.8902069314890863 0.12174224890751938 1.1113020058653311
Ni 5.9239985511779825 3.3471253283167792 11.850761821723095 0.2069820320136306 -3.611352474178774 -0.03648369674833071
Ni 8.73627367097011 0.6616016745051787 4.111356960242129 -0.2914111462929884 1.5323749130232318 -1.3491267342914313
Ni 2.48333708245968 5.842383593252532 9.468900350343361 -0.5861798962043001 1.4714271696952659 -1.520128748666027
Ni 3.182817531206452 4.240412512572941 3.490825325519279 1.3963021064256536 0.9920380432949755 1.3039588795055415
Ni 0.4105004830939771 5.03479257545111 10.391964695340763 -0.6688004965200094 0.1960147343688495 -0.16980208052922371
Ni 7.773863896205468 2.826665295238517 9.97526501310602 -1.5984239821335053 1.316282948288533 1.1165475705349868
Ni 4.333147151525144 8.739138808334918 13.022288852211183 -0.05016736488301037 -0.6204089925904993 -0.7867843068263611
Ni 0.49595712037995365 6.096081833612734 6.056954743895477 -0.028038394194454936 -0.2685581529542149 0.7531157109293224
P 2.339168160846027 7.989283532865449 2.0882687266962057 -0.47160716846202655 0.6035214728065412 -1.1601493663853375
Ni 6.487794938481475 4.593027086971469 6.705923097280532 -0.6508750223898403 -0.4607769106157419 -1.1711585730116476
P 2.584390753696191 2.380090798062964 9.618487237501203 -0.44527547254603317 -0.9058392387097044 -0.701054985678341
Ni 1.054720631341345 6.363589851818092 0.9371145732773529 1.0417456949327477 0.55985462804621 2.9285376656575433
P 1.8833257273714559 4.5122689064573605 1.9941116529879697 -1.9187314997458698 -0.25890314636295414 -2.1081384989902148
P 6.80079507343092 6.582233919596023 1.46180413871633 0.46304462360399606 1.1596238328991706 0.5182611208751396
P 6.343791844753887 4.0733040667201665 8.759471149698667 -0.7987121686121986 -0.2062533813777222 0.6786730184387151
Ni 1.4421314238327088 8.01903121309361 12.681206686022506 0.17543151090085915 0.36549954076797053 -0.2827439575362937
