# total energy = -340866.5994082779 ev
CRYSTAL
PRIMVEC
9.24427876345929 0.00000000000000 0.00000000000000

0.00000000000000 9.24427876345929 0.00000000000000

0.00000000000000 0.00000000000000 13.52993639634268

PRIMCOORD
 96 1
Ni 2.2920819203999763 1.5000875891812933 0.3212017068483362 -2.756333146334414 0.22038442146246562 -1.152320614369538
Ni 8.189312348503345 7.992104151525404 8.346076826277308 -0.3439945768166592 0.10010281626087277 0.3162791131792618
Ni 8.294308865696213 7.586335783356382 1.852978683328199 0.9938131329175272 -1.6519008710057226 -0.55142089545656
Ni 6.118575436702246 4.105975793489449 3.6594281388005374 -0.2784838967083591 -1.6904795026098693 0.8755372452920533
Ni 6.921256154069455 5.366488656524381 1.9352546123931722 -1.4933417103801703 1.9557312168986705 -1.10282585007352
Ni 8.6013668261715 8.54163029737239 13.170323828550757 1.608372865816101 0.2875622048605435 -0.32732071570540405
Ni 3.1783309169909506 3.652950672732828 0.8992242661394785 -0.3588614666261626 -0.3110613164237482 0.2117588845769837
Ni 5.6099367354356495 1.1927245675097244 11.585982034667998 2.854584768319161 1.531485568439743 -1.7647676718004832
Ni 2.091813867180545 3.8336763208328963 8.43020530878879 -1.5605534323399768 0.5116940091805833 0.22842606082001948
Ni 2.355710290521346 7.171434067856264 11.171668255291626 1.1242547093712576 -1.8579030556045875 -0.5384026288200211
Ni 4.005989675338537 7.825901265224067 3.7203534818372797 -1.1733815488048955 -0.3885057718551567 0.4745266561016666
Ni 8.846830157833962 5.534050451790971 7.908179967572644 -1.0293776602856983 -0.1361460830376752 -0.4983875218796642
Ni 6.141880263242413 0.14318278354436512 6.760977001543183 -0.018766481974225747 -1.3764439340491454 1.870854987779565
Ni 5.600100822925241 2.7039052911012518 1.6036087194976003 -0.8382845315881822 0.5427567920236588 -0.7889327206279315
Ni 1.3828701355798168 3.6508429771948836 12.120468663538308 1.3781339201570588 -1.4516039643217515 0.6055834975418926
Ni 3.4204755526090165 0.9608410812211252 5.953253530158655 0.8020214354910897 -0.7918244403534298 -0.35325311930044967
Ni 9.005748552539245 1.966489181180922 8.55742784520043 -0.2849232245757996 0.03662999251820788 -0.2911193260841825
Ni 3.1385712744089354 8.627639066166406 1.4584190030528503 0.3786196230896963 0.7044634971392577 1.386759971263173
Ni 6.629469741965589 1.725130309250248 8.211670560907173 -0.2189831702395648 0.9280610262223824 0.6095586801395566
Ni 5.755672788750103 2.2611598082314477 5.93525861728952 -0.7033219273356467 -0.8004165528978151 -0.3130654913379705
Ni 7.375288901201672 1.6488280330651857 3.8791683406213995 -0.2728094720314011 0.34758075150602075 0.45740002372370897
Ni 0.4178219831336101 3.4979148750711273 6.60665393776734 -1.7835655212332766 -0.04608779549699805 1.8358931269923997
Ni 0.6970565136522946 5.8252729628956486 12.30512497893107 -0.07014895021125983 1.839993265203702 0.49093235115319966
Ni 9.091960695464117 7.280840105977202 6.13320173442214 0.6412297859905924 -2.0373943383971174 1.6855902928383681
P 9.261103262384164 2.632428528384642 13.455832451006296 1.0908848756615601 1.0480528680976982 0.21703375982267786
P 4.457258383146871 3.4439745090013627 4.8362081744512855 -1.396567444271898 1.5694173104885099 -0.6327009225839748
P 1.4431058554273892 5.500780292838943 6.75074820718908 0.2495962671397314 0.04453356363600072 -0.4544036600995464
P 1.0172589139758421 8.778293075736064 1.3634247953865433 -1.150821147005876 -0.8598704852890738 -0.32996972329247687
P 7.338801733270676 3.3040068855802303 6.64509257292667 2.155546813070849 0.9202091342781313 1.012977878771436
P 3.554323463547169 1.7613124159849622 1.9869384500383216 0.6805789772121763 -0.5159196172261566 0.1716967264487753
P 3.5498862097830752 7.7231233749132455 9.386893860029017 1.1492149788610206 -1.0454938491212704 0.612330586457739
P 8.031503267239087 7.476005317367925 4.336141692800197 -0.31567850348078536 -2.5876518096731953 -0.9249281370203556
Ni 3.2518414210161035 5.513648328754815 2.5043231633595204 1.3178117262282336 0.9501876829180926 0.5005382496740799
Ni 6.290555997175579 6.32206974317932 4.066165307374721 -0.7857610077681693 -0.11513322823143397 0.9847003719829815
Ni 1.641654472813234 2.2774389829784667 3.2392701264457053 1.5328156001050763 -0.49102053999163175 -0.6465943927366155
Ni 8.057119163448052 9.142563876932135 5.730022688710039 0.6595728072741545 2.4002276451868343 -0.017490957695911812
Ni 6.937942077078182 3.9701958283081806 8.679237856447743 0.5108128921272106 1.79995527544521 -0.10585334559140479
Ni 0.07604066309855406 8.284112426317472 10.659695142706887 -0.6512596594227688 -0.942060682935584 0.18922265114768058
Ni 0.09926136670277715 1.4613355729748745 1.6336184213608869 -1.3656442723304802 -0.6159345017589135 0.13548453819427633
Ni 4.834387975980139 1.4955394040730972 3.6850403372980334 -0.08713879990103703 0.004098595549405845 0.4541822881173598
Ni 3.2056754933121785 5.491831831081354 4.9330956103902714 1.6567551137742305 0.4323680204557457 0.5765683412564651
Ni 2.1060870334550463 0.033240577260267294 10.305184450936085 1.0701633268434922 1.5899609389678167 -0.793718314942033
Ni 8.171147340906586 5.0902233883161685 5.383561914809599 0.2225911993057973 -0.17617713081763206 -0.7475017071766545
Ni 1.4193480592321375 6.45794215114734 9.14305752141339 0.36394325202444416 0.8405154778012298 -0.737113421963795
Ni 7.555071632876871 2.3491468526619568 10.51902495410644 0.15952795229672526 0.3204353014394804 -0.023329675864875946
Ni 5.921062178528023 4.964334801317359 6.176713629718416 -1.0023769633271382 -0.08599877275932287 0.34541716819579865
Ni 5.863285436808051 6.416574004075842 8.951675993284425 -0.6177874958072521 0.37110428854925764 -0.20919472339423328
Ni 4.966146679937698 5.115081253673769 0.1800877928714798 0.645587805848972 0.8071142766329649 0.9623451442162331
Ni 4.365194611820601 8.035395108561344 6.642211131263611 -0.01747810218010538 -0.9825753552201788 -0.6896685982182703
Ni 7.823738104014072 3.3632072462161813 2.0997787376870933 1.2539370390614597 -1.4355219711582246 0.11619509383704504
Ni 6.21979104391696 8.279897035241584 2.91763578735537 0.6048160232482487 1.7854064310967577 -0.6406443458007677
Ni 8.824699354685544 9.079749003334182 3.4585360967705303 2.7323789495116624 2.43930044281858 -0.45376191275048944
Ni 0.49078799914479415 1.0941805568321423 11.97143610044828 0.4231914961628002 0.758479546344397 -1.2372222974099403
Ni 4.465837073757452 0.8538496486901497 0.10644786894487397 1.5777913934848182 -0.24772990335495404 -0.3347679160120686
Ni 7.421538027413674 6.5522985035850585 13.37227156720547 0.36180280864267367 -2.876052194164318 -1.4419019065426395
Ni 4.7031654401857415 8.646931875761538 11.396603741727947 -3.340910473938285 -3.70979075825303 0.345723643692624
P 6.625124930988248 3.8521833667406375 13.447755724727777 0.8061040902008956 0.06438556536492136 0.5375971021995902
P 1.5082965086448665 4.363595351609792 2.21061579014695 1.3254232200269045 -0.46827733275784517 1.7930886302323636
P 2.9204894961824026 5.215030394709981 12.95065203439209 -0.8501951669828389 0.7541148416177981 -1.770113252383113
P 4.318760600035095 1.1622092036029046 8.029178331152274 -0.53626887030647 0.48411892777579196 -1.284260886855982
P 6.932081204398108 1.0456111166726663 1.8081809088682024 0.46803667750194883 -1.0431086367185454 -0.42148402655339023
P 6.808568397018823 6.816980690613252 7.065400342596039 -0.15854836199227534 -0.290964288563557 -0.2582896811486713
P 9.153259507359335 2.9493501342063624 4.241932324393414 -3.699254120387764 -1.4592349985044482 -0.18046033157401822
P 0.9469931517656827 2.731924699765769 10.168748141968878 0.61492791487127 -0.8114638118509122 -0.03201434812306744
Ni 2.2451856946807105 8.43051406769654 7.780444373694529 1.7621346050530104 -1.307334995066626 0.31980460983401693
Ni 7.513287493264987 1.58419203656822 12.85572623438798 -0.8103662079113593 -0.3561440676949995 1.4802679079153476
Ni 1.9726551150572773 1.458959793355349 7.9026195339495136 1.4593059609516996 1.4892760249512287 0.45350017444867063
Ni 1.804224357595219 6.689317202108803 0.9520174172256514 -0.7373733604934011 -0.4291405146573835 -0.0689263906580684
Ni 2.789387136010783 3.241829867210867 6.173479981037834 1.2011638611244861 0.14139061926606616 0.7531025983031997
Ni 2.01938494376039 7.50797203302675 5.576971637679902 1.8990324786550452 -0.05107342163704752 0.13087043646103266
Ni 9.189164285733794 5.148924557903658 1.3038241574839566 -1.4569564868829166 0.9447256313622568 -1.491633983660444
Ni 4.684334844524368 6.250361873495829 11.22810180332009 -1.4753097925791236 0.6536885805792355 -0.2750252487357973
Ni 4.929502359269223 3.144034643105976 12.183355642509927 -1.6175555607566334 2.0002475541434905 1.3610962479484818
Ni 1.0243122986050162 1.5466695094256022 5.592220075354638 -0.3210060863412859 -1.753686217175341 -0.806254756846147
Ni 1.3435727069315613 4.216306259477905 4.691316123779877 0.9172999310511364 2.9669370913713484 -1.7291026142987058
Ni 3.6489663886238186 2.3984465908367736 9.83492429701743 -0.9972116170761148 -0.9315610689558408 0.14251624823007714
Ni 1.0411831071872475 6.641727655488899 3.553773428965995 -0.47557977995652934 0.14171689225723336 -0.5142579132530176
Ni 6.423858495671896 8.403899789390653 0.4270847503661558 -1.7848572434615069 2.222856751171417 0.17181988229020084
Ni 1.9019363831920333 8.536878738133339 12.80256700986627 -0.5162070665595884 1.1383690372854522 0.698207488927217
Ni 3.9440252753787024 7.196134780476386 13.275532964153154 -1.0158901673222247 0.8203788549523549 -2.2227657341195073
Ni 0.2644122540908764 4.752187850000301 10.038874346433191 -0.6123460130767067 -0.49493710143721864 0.2577461499403755
Ni 3.3543234944093188 6.206775099542283 7.598967165738168 -0.4736463103792423 -0.23885394102156285 0.19101033917572266
Ni 8.312473873292971 4.083863478898382 12.077254434015373 -0.9315610689558408 -0.11412689845410669 1.048424906725136
Ni 4.3292805891674675 4.315423415433349 8.308869529037514 1.7521620672213307 -1.078537924060433 0.6470291662811889
Ni 5.501353438116805 9.161856686527267 9.263297854141655 -0.2664246515509799 -1.7905674064724066 -0.15300866312096875
Ni 2.8542819723106536 4.732090788160427 10.582128249199057 0.31529875154386344 0.46058767742307133 0.12586604126790582
Ni 7.008522144763298 7.9859936833211 11.303598902832542 -0.5906770127437053 0.6811579896440978 -0.15181515703349985
Ni 6.441727686351047 5.07252059465317 10.936017725442884 -0.24037269165893438 -1.2792217817701774 0.9045670568655002
P 4.900318171491632 7.1140086087259515 1.4979669516532035 1.2198133579048733 -0.5630618221295981 2.702618430419778
P 3.2986636925059676 1.2387333424761715 11.743321506575558 -0.2924994942611608 -0.4844477718701205 1.116026407924194
P 8.118380998228572 6.158825026054046 10.992112932871835 2.415091192562228 1.5110283290266557 0.2921925045437032
P 1.942629697920243 9.044297194614808 4.100030797873431 0.20272582784043794 0.24933427172759637 -0.05069675502391915
P 5.460234886569537 3.387381034951817 10.161090181514346 0.5979380651814927 -0.24058275078721147 -1.4968674641452415
P 0.4726091251300226 9.27506212318371 7.4531146345124055 -2.8299692837633263 0.8601360802456348 -1.3552066219369243
P 5.503451889376074 8.978403976218017 4.889394207381154 -0.9338218399655596 0.11345121254332075 -1.0042896069688187
P 7.600137491418447 0.3600249040005539 9.743232145693902 0.38364381577716505 -0.37268937364819044 0.5681870591713054
