# total energy = -340858.23156950175 ev
CRYSTAL
PRIMVEC
9.37776058651301 0.00000000000000 0.00000000000000

0.00000000000000 9.37776058651301 0.00000000000000

0.00000000000000 0.00000000000000 13.72530053692780

PRIMCOORD
 96 1
Ni 6.364188996748562 2.9316379611308214 5.863818894591752 -0.3928355095787622 1.4669159120884736 -1.3216133593625112
Ni 3.445595500404998 1.5560049028220932 13.623486166315322 0.12565315392615134 -0.5400895296041408 -0.45332148277896117
Ni 7.563351358891516 5.7870628630768595 8.26105204756117 -0.4658306709895655 -1.6663496994412013 -1.2867229752432292
Ni 6.365801971546124 8.761566567228925 11.271092774942069 -2.6738524140306787 1.0189142988605289 -1.2326130807727032
Ni 2.312143105741775 8.9560050524187 5.44705058907902 0.7089541859207596 0.5933183070212942 -1.3821083314237745
Ni 6.610589652596992 7.293768879208366 0.798652279924015 0.9662413939468456 -0.8578555117415743 0.8728900374771934
Ni 0.007323093136138452 6.48078269243509 9.841026506095863 0.8764332747437615 0.26074611310896384 0.10760580950613725
Ni 0.43545255543518324 3.600984991077061 2.4947515461226897 0.7811775021625449 -1.041276211495497 0.7052831648270758
Ni 4.001865494833812 8.684209421269125 1.9498164507509261 2.285712253045057 -0.8687050528615684 -1.0424494058679916
Ni 1.6378164849960872 2.5860674885137107 8.259611623555905 -1.1961160142879337 -0.5477861269174501 0.3178767966836848
Ni 9.221583228389298 0.5093708766376216 9.006034466648414 0.8161956701089428 -0.24598283875686022 -0.05133104617380837
Ni 8.030635784401367 9.06215192296288 0.17566233321490365 0.7151343465895426 0.31938012070208865 0.3904688091187985
Ni 3.786927225298284 0.03457955388679335 11.054439313020065 -1.1704561476279842 -0.8413338599374671 0.43306890317751223
Ni 2.1662720419274155 2.9055302760354067 11.627442983197534 0.2006923423501769 -1.292203538741826 -0.25309888097635125
Ni 8.553661618031601 5.726098042385304 13.223352132290463 -1.6419064787971722 1.462196138015301 0.8383297830038207
Ni 2.750487762500028 6.588054894233384 0.13044652342465501 0.5435764597114767 -0.20116311133900838 1.3928239180690658
Ni 0.8168301307821155 5.75241203821064 2.8524605918674966 0.19214239589763682 -0.39037007875740515 1.3977167273849929
Ni 5.6605662523541405 9.092545244584374 13.53052442696516 -0.8725357394615683 3.673694526751105 0.3312185080979134
Ni 8.73436168416075 0.3427224467681607 11.726965403759172 0.9778141863861096 5.076159567454361 -0.6085132695941778
Ni 6.626625622968097 8.218988103058482 4.244837641461376 1.3325621450645309 1.6257193275143484 -0.5634433738387329
Ni 4.218623049896821 3.852018260588253 1.1698071586033782 0.6744067869631933 -0.2490249680172937 -2.1796976992854398
Ni 7.979892722601335 6.701507040168846 2.809706444195619 -1.3072578619717874 -0.17293934060662475 -1.408625918098329
Ni 9.12914664362439 7.312121156410854 7.128289856067138 0.3009126580255204 1.2380743609975902 1.3918643823692738
Ni 5.432911739647139 5.2714079491610635 6.747975718755341 -0.38853508243119533 -1.6460151016489073 0.612806497652893
P 5.206795179654093 3.938800055801245 4.1377117327261175 1.5369612468423337 0.8303930446552472 0.6493881534316687
P 6.442193208179475 3.7738546272296745 8.077640870885656 -0.18790727477036673 -0.7730096216397719 0.3949296731036295
P 3.9803341568384547 3.6415062939855694 12.656950405470456 0.9049658349658156 -1.0121407275821213 1.0575168417240755
P 8.544424523987425 1.0200002487277593 1.841386095536941 -0.5967201336139916 -0.4778634337843835 1.276683588729356
P 5.206757668612289 7.356206008290719 12.818661444462498 -1.180211170132219 -2.998276267804262 -2.213033080212776
P 6.272821476675062 1.2673855694235363 4.160811032268871 1.4463995373026766 2.011009420645685 -3.2376768253579145
P 4.531033761559411 7.470502152666766 3.578721249990486 -0.5246158594485738 0.09835729432467577 0.4212073758532358
P 5.296099592428387 0.9341140296378323 9.80234887089201 0.021390292750318 -1.2690240153015693 -2.271469627083114
Ni 0.8000261218300775 1.6479819773249054 6.0166641988534755 1.1068650531399002 0.7615250180389401 0.709820647686113
Ni 5.18301317915051 5.175482837508406 9.432095194991982 -0.12686182952227185 -0.7261206703977172 -0.6385938910296421
Ni 8.257568209553646 2.2877984396111373 4.329700746886107 -0.7047810283796766 0.440942392388318 0.34009035666624654
Ni 1.2850345145922042 6.434081445389413 5.070812026459203 -0.484550615996572 1.7568062508615614 0.09595768374424764
Ni 8.821143479373742 2.8401016413692033 0.7045333249342084 -1.8545055998872642 -0.8801078953818713 -1.0885212605253898
Ni 1.0015729494416636 4.37516600510435 10.121970142565328 0.13668781447375813 -0.6697386920635627 -0.24945048559048652
Ni 3.1764350199421396 5.317565286100587 5.58467391257678 1.0576055447831398 -1.0970650363303427 -0.6761330256256807
Ni 7.258517877673285 1.9302713224190784 10.027608303579841 0.42451432873928185 0.15897567933768106 0.5313598630406269
Ni 3.054580400642635 9.077493939060616 8.797423372089137 -1.6094133912654733 -0.06773159901901885 0.4879208180203855
Ni 8.353380788080893 6.279329642428014 5.213115790198025 0.6682050290278557 1.027307922240863 -0.08674979199273447
Ni 2.599965329502002 7.156590999332026 6.85634980740662 -1.4159913573244645 -0.09935951033694501 2.993346691713129
Ni 5.949298118878109 5.367548749304094 13.159172615316326 -0.6436499653963109 -0.41607776793615436 0.8397055803054247
Ni 7.105219627581781 8.781475552666269 7.721332862552219 1.2012147689670796 -0.948320804912683 0.52031723207322
Ni 6.282977591243428 3.367103645430636 2.178012998011991 1.0503617187365328 0.45430107308341117 0.9219204605422832
Ni 1.0864979480853694 1.2860285572000036 13.101471255261696 -0.5260384508277135 -0.3706427755318068 -1.4863621937385434
Ni 3.3236564812614344 1.8245370733347386 5.508113876255311 0.6346032818130104 -0.18579794173684774 -0.48565773301782156
Ni 3.276692656923131 3.7423734853958717 3.218253267121013 -0.6451926272930824 0.11312545377278582 1.8529925056768475
Ni 8.682924668087349 9.3269236115347 5.684017217913803 -0.7451296074000522 -1.5813130334848315 0.6907919131894361
Ni 0.016379196403610477 3.7689875695556374 12.482282114863352 0.5558347082535395 -0.6519340597819739 -1.8224426579144484
Ni 8.199229161788352 7.8114118783397615 11.551116453111296 1.896232547312405 -5.255721041363193 0.2540828421561753
Ni 0.8267705568601111 5.246069240422626 7.348320249527524 -1.0541157864623265 -1.0558355973669107 -0.659909878898599
Ni 5.799235196142179 3.778637285059654 11.37773854234224 0.02886217564733094 1.1421279901072523 0.05102688466982824
Ni 3.118377304990375 5.044137924632551 11.3374141724032 0.144189522167442 1.2226695964067458 -1.1556203681667323
Ni 2.7899868895193847 4.6667111997636 8.339945270682831 1.4454834532463106 0.9856030863029089 1.1873344114405615
P 6.655087125936698 6.859372259599958 6.186431671848919 1.8485982332638937 1.179831161084981 1.821136023287883
P 2.4320565286279354 1.82065468050805 3.395556708414831 -0.3389279609270292 -1.4936579560690082 0.5614620817426459
P 1.327637680320821 8.384636863663872 10.452653420466572 -1.7073320553908338 1.518704614624991 -1.450191143134625
P 2.552804572194229 5.187345704478845 1.8355671951771333 0.10315291594110622 0.4977732853344331 -1.0771094191440225
P 0.20975424355824818 2.1958588761501288 10.505907846515367 0.2434922111245226 0.7265911822762325 -0.412186146191232
P 8.866897572613874 3.2981677283557813 6.448283125816315 -0.23604192549406447 0.819945109849046 -0.1840627042132959
P 1.159119325017443 9.084855481014603 7.134356329302849 -1.3495535374162047 0.041644157903347634 1.8485648089227973
P 3.4684397248634857 6.546736481686546 9.380528765824359 -0.15543064229890005 -0.06515895319583616 0.2748396150875525
Ni 6.396373470616186 0.4104758282501517 5.92230235986799 -2.2588701931515485 -0.993582762074276 0.7441178783060862
Ni 0.6795050200666966 4.199107930398416 4.7662617536065905 0.5397352315885157 -0.5987885861072462 1.310114357583976
Ni 5.122029602938053 7.741097430478619 8.483470956608413 -0.1570344964509102 -0.5569510812461698 0.6989191702822608
Ni 7.850451495097021 4.628646870093237 3.9302400360616274 -1.2195274512333383 -2.2193824194695715 -1.676560835646248
Ni 6.630639304441099 6.157043646147765 10.995215004668202 -0.9240753021017569 1.4080546189758911 0.2702113722869217
Ni 0.40590604558240895 0.703572104487987 3.914181559065439 2.156902812878111 -0.349730707969488 -2.8901914617791773
Ni 3.706944306412223 2.3024277459146023 9.32469451787551 -0.23637719734629614 0.6290671824861296 0.8393111730804835
Ni 2.4753911596717253 7.722707642234327 3.39614750732324 -1.3190648819090445 -0.20693369527419844 0.0829054785459798
Ni 4.668389818884318 7.3851832880841215 6.046255721956415 -0.18577917268377037 1.1265309069999438 -1.90305676932309
Ni 7.643906321165084 1.6699728255823578 7.334814398926081 2.040027662254906 1.4361758026921394 1.3717858664518439
Ni 0.8102253740965191 8.111021946986819 12.916742503242826 -1.8023564286875349 1.4295354145574866 2.084076572945004
Ni 4.403308664217619 1.4833835258900199 2.1861932184533455 -1.507591792541281 2.9637203842062636 0.2773176443143998
Ni 5.786143842552668 2.120827414782164 0.2210628848860358 0.1959679402913141 0.410236478664029 0.6303555622802498
Ni 7.873698963254899 4.406675280219505 10.522514922497933 1.4346997323672452 -1.1082853305261946 -0.717584350791932
Ni 0.7329967034548992 7.588418112576877 1.6742809687335196 0.0020118882237062127 2.1376714754523247 -1.8383986670230728
Ni 5.2307741131271435 1.6749993051840615 11.676112622161865 -0.09837297805395961 0.015050723685535368 2.0448752201551943
Ni 5.265040449814876 1.6024060615333406 7.531854274864946 -0.9305927915053005 0.1501136009613608 1.5227001089376293
Ni 4.914856119055903 6.060283913814975 1.9435989955719533 -0.8109285081727325 -0.29287873197745046 -0.38191474890120036
Ni 1.942706232777024 3.4231263863645474 0.4476173862921416 -0.42448270417039796 0.607657606462102 -0.1601185346928726
Ni 5.898058035774176 6.183329508691748 4.239388224863336 0.26964547248112275 -4.7841043598194695 0.46181589340321755
Ni 6.212194255359739 0.2046414885603961 2.0183331819336234 2.5992839945954844 -0.0974412102683096 0.8102368814223465
Ni 2.45656061668624 7.409021555150408 11.791035200936035 4.931390775744681 -0.5013293781168076 -2.469096700244406
Ni 1.2889919295025003 1.2053423062801225 1.5458253438525988 0.7810674589472419 -0.25143383456910245 1.461120645562935
Ni 4.520296225843085 0.20524822966157186 4.161017342998791 -1.6348488006194426 -1.120706844118999 0.6081998521188171
P 2.5751330198279154 8.923576756779351 0.6126894146297995 -3.1227564844682347 0.09479940177008835 -2.1594075815778355
P 9.35697933377996 7.955416767824383 3.7190481818262504 0.9614018064663572 0.20055273144851912 1.2067395554400508
P 7.340648303702611 2.20295784081149 12.536208926336478 0.9673186861714244 0.09220927244540894 -1.2449119527447141
P 8.055092983657417 4.804667433757367 1.5040183499862667 -0.3801275750937905 -0.016583872500610147 0.5997764039418121
P 4.084258498155764 9.194143901309848 6.957780602220024 0.29667085203003096 1.120335319712193 -0.9739521323275421
P 1.0331197355986232 5.982561035197589 12.264681499135804 -0.3009314270785978 -2.1315473648324583 -0.7218374696413311
P 7.554770708078907 7.518113042476185 9.354354498629741 -0.5839774892363427 1.3311603796209976 1.8746748757462874
P 2.6664817843805144 3.50812640709186 6.534436611079094 -1.0353621600039074 0.21004961519536086 0.6421389280684231
