# total energy = -340860.6517981469 ev
CRYSTAL
PRIMVEC
9.43058475716628 0.00000000000000 0.00000000000000

0.00000000000000 9.43058475716628 0.00000000000000

0.00000000000000 0.00000000000000 13.80261405023153

PRIMCOORD
 96 1
Ni 4.6737599595337285 8.104729200927615 5.9266904421359365 -1.2667331623848634 -1.0100079975098348 -0.6757339904150491
Ni 3.591656970815624 6.471031324371174 9.812899460280612 0.9826247204008753 0.6481360261921224 0.8960284232668697
Ni 6.4751902121389415 4.146628007907611 0.01967219928245458 -1.0645202696251022 0.03521794266202967 -2.385957508421065
Ni 4.657030102617585 3.2732804378455054 10.670455516585061 -0.8335318473945451 0.4123288424166834 -2.1952071077749484
Ni 6.430310060468184 3.472312923874366 6.904039441204198 1.528952260494928 0.7145597050329952 0.44384542496772594
Ni 3.2275043806465433 1.0833761176266057 6.916683025853281 0.08984771419176785 -0.21065896664458558 -0.47559314969296806
Ni 1.127407516691697 6.181776436359933 1.485409479645045 1.9888038310829232 0.04774641414634358 -1.269230989106053
Ni 3.405148301012601 1.2516177452387771 9.34924194379851 -0.43499980165163793 1.0424908006288887 0.7928569953830022
Ni 8.2830426927937 -0.07488732851488186 3.2320885877755945 0.3027139729003173 0.9096820094945625 -0.47818816411365384
Ni 4.438183958538659 6.4683907607091005 3.4262369740880687 0.39359552767323824 -2.232878139963161 0.06377621391569661
Ni 8.017062487346744 4.948114524023263 4.478782624843054 -2.430533495259227 0.806890590657933 -2.7957486720175595
Ni 1.6832178758048444 5.085254083930001 7.74018807067683 1.7035062538868406 -0.9449935403116627 -0.49074954571843227
Ni 4.611112586651013 8.683597339161377 10.65255343801465 -1.9177616796334327 -0.27114314007257173 0.46574325348208173
Ni 3.8053917380915343 5.075087913831013 1.0899869573662992 -0.2712706667893715 -0.11153008426120792 1.9562037856597145
Ni 6.726298385817713 7.743594397800907 3.54032912851715 -2.7013421348105155 -1.0395656565622935 -2.7741840584729065
Ni 7.141074353622564 2.2026073175503793 3.9328196820725427 0.052282097233168026 -0.37375663857044017 -0.7649116751229859
Ni 8.409657720390168 4.610669349179164 0.9835854446030096 -0.10392810354423392 2.0400083789811965 0.908095638844049
Ni 2.584083891459569 4.438542320749941 9.824010574947241 0.5368378554360625 -3.403306262566687 -0.9144012693471026
Ni 4.654917651687926 1.510138358340372 4.557692097650346 -0.21535765767183554 -0.5029206338633274 -0.36486267851492
Ni 0.15322247872567232 2.348111805915188 3.7749186903727447 -1.5665906396729923 -0.021588267693737014 -0.7459189360705669
Ni 5.046334061667925 9.145733702362433 13.280584796337193 -2.6267703729412117 -0.16537412666485712 1.4545882437610562
Ni 0.8780119371594705 7.574541739921098 7.157841932876736 -0.4072496281215632 -0.04863267340603882 -0.9722534044688803
Ni 2.3836934012616413 8.501596488752895 1.4461688175097174 0.16545820173823117 -0.1365821421338293 -0.4105380690648478
Ni 8.948115804009683 2.4630329087224707 9.92823362268932 -0.3789404967642248 -2.111974842017169 1.2529664476180744
P 4.281541949870601 7.579068420484654 0.8478519848463267 -0.06230888534155075 0.18107868188430748 0.6121542087808747
P 9.3540647447156 0.34464636917395586 1.039018420337558 -0.36063089982175955 -0.4047158059561159 0.23960573158592283
P 8.670932064167927 9.16594344496181 7.550554105168052 0.45698016257747104 0.6155442082990302 -1.1525949510768472
P 0.1497143012889163 6.826592652054005 3.5784239746348274 -0.95135804907711 -0.772927603448927 0.8551810502332046
P 6.512186395161506 0.12230242130123138 4.673730724721756 -0.227933180344001 0.8143017955203394 0.0772207694563767
P 6.588074308692624 3.6298602686551362 9.138227900152987 -0.3341714200786503 -1.4359845126169397 -0.1278316496347089
P 7.092987803219286 2.909241014690514 1.5997920960769547 0.045250901417999485 -0.7697067825187841 1.3227315321273543
P 4.524860460746252 2.8592683473857554 6.2957997475221115 -0.9524232571168307 -1.6424770065886618 -0.21041085518952152
Ni 5.664084499825733 3.8381818804237944 4.775220789073588 -0.7508531401473907 1.7112126213921626 -1.4738152103114681
Ni 0.5929442286695199 4.554887441817842 2.8231454364885766 0.597624390595816 -0.947630720824194 1.775914175335606
Ni 2.2181866431566184 7.313173090298265 3.497417139833088 -1.523627505847905 -1.0050563099315142 0.04829354489906521
Ni 1.9411349314979651 3.186311587518182 11.941745461106294 -0.1426813130530317 -1.0729622297448682 0.0008433218369017734
Ni 7.924237244040319 5.171713682693924 11.81351874661751 -0.09417308103999911 0.8431801691175866 0.8377818809201507
Ni 9.294284269523136 7.141461007587367 11.171462863008758 -0.5717488083806347 -1.4707993063032798 0.20858768593785368
Ni 4.313219283230986 3.920539174926995 12.794677701826762 -1.3885862258386343 -2.3411156695160265 0.8736030043838181
Ni 8.08127533725769 1.592533375181602 13.28968059509459 0.13118411104670955 0.6300087204637924 0.9180812893018511
Ni 9.308222673425085 8.59052690065776 12.959715759881767 0.07233387367772058 0.9106356316570833 0.4533027137258838
Ni 3.957695677886185 8.633370046074917 3.65128844277287 0.45030249344697926 2.457192235497336 0.20981873013147737
Ni 5.525417185228795 7.116187041107511 8.198173090577725 -0.37531498419649556 -0.2752908436923581 -0.6881891854592663
Ni 6.184284971838905 6.722478999092212 1.2451700546110618 0.5192923903531316 1.2111893636812883 -0.35489733977209204
Ni 7.122194323438731 8.776922403446694 0.6135340238245454 0.94269651674737 1.2625204098550966 0.014331329021007576
Ni 2.341897050724806 2.5600830538882136 3.7180239740395478 0.8956496997712123 0.24610368060544063 0.5281436700961742
Ni 2.7767790246994513 7.40100955440027 13.152662689727997 -0.36026040385621827 0.7399573191704935 -0.9213095664311617
Ni 6.919955438677351 3.2078038896105663 11.387584511223492 0.8698841607713341 -1.0299019082202845 -0.00031316036504462196
Ni 7.980867904007309 7.435497201943863 5.227049523408046 2.9834494872040747 0.41596232540421263 1.2905729451169385
Ni 8.867456014717817 3.1613771220805935 7.7287044479221585 0.8383958603550656 2.048361636041898 -0.47541934311926515
Ni 2.1614522467600477 5.2047773119768985 13.379315471662157 -1.1136743627522496 -0.43668387422228017 -1.9360543072950334
Ni 6.6716104262592495 8.078125522032215 9.920987161553827 0.8597337026008935 -0.08559870910742677 0.6427734763286285
Ni 0.745214218359944 3.4161349319637324 0.5495984330981172 0.9157171599450487 -1.2904014525360807 -0.6475608704149429
Ni 7.268566425578221 5.751270253596726 6.644495609683548 0.0518159562300269 -0.3121015847628045 1.6287324033090596
Ni 3.4465014140775887 1.0927123962889402 2.2134836106627738 -0.6080658976441141 0.2643921945019833 -1.1978113997124855
Ni 6.677617708590469 0.031670731951230685 11.970827497610241 1.8531280028134474 1.6507130213452086 -0.5469250644687355
P 5.336758342158084 1.9416347524768578 12.184947032734055 0.358294281268783 -1.24544751353321 0.188439750235069
P 2.9972095069756226 4.589318505854392 3.171605534037329 -1.1138800510051527 1.6417208451489274 0.8186248483757256
P 4.794367704798979 9.269066886550325 8.4918650685997 1.1963304442915847 0.1271662481365681 -0.5163266228565883
P 2.201485077993998 0.6639414410750956 5.003309849028225 0.40176469374759194 0.22033608472303343 -0.6613941767536093
P 8.203439128966663 0.2081047083249881 10.474044733049261 0.7021783006495068 0.15134618781688128 -0.34828240555873563
P 1.4612690694229802 2.7144334305209723 8.757744366792426 0.06251843024919555 0.827784917608439 -0.37684221947429936
P 3.7486101887724264 6.077813672750261 7.68470134061059 -1.2042216741142036 0.03251082814351175 -1.0521378368003491
P 2.1456182953721084 0.8709041056162365 11.156915243347628 0.21701807609339396 0.011201268032458129 -1.3233352271496241
Ni 5.625768034972131 0.3360701956229184 2.1185911832323256 0.8296970470294872 -0.9192832800297522 1.656853844135624
Ni 5.327384341157719 1.9178696795181878 0.5741339848110425 -0.19709048393153153 0.928094450563479 -0.6959824562514401
Ni 4.437005135475233 3.2371330074286075 2.555332868471832 0.16040289870251084 -1.8510538938932377 0.16158663459796688
Ni 2.681407523576027 6.528746501556515 5.707918799674619 -0.732212642228068 2.918759246114541 0.2901273944845584
Ni 2.065863842192953 0.5753599607970057 13.179370105052977 0.052827685323992894 0.1403776046205195 1.3594502277046265
Ni 5.935402416103881 4.789454370270619 2.1891772221533783 1.8612606592229106 -0.37552375777319197 1.9362363413988521
Ni 7.363183479941054 1.5630250762579203 7.529739862101751 -0.11595932367715514 -1.8548413859601278 1.6093228884341961
Ni 8.785466513010405 7.660614684720217 9.002188889458264 0.33520860309391304 0.4067366930408866 0.3316630518344998
Ni 8.773895185819816 7.400151371210096 1.6141878833275138 -1.593914781409242 1.304842053441443 0.16004988623846628
Ni 4.969531381439588 5.921831804997721 13.172800759885117 0.8502057085058002 2.688112780604435 -1.6988353307737323
Ni 1.1882913702715276 2.85670322839974 6.029589435813175 2.6615908230545067 -0.9571435454106356 0.6410222979654767
Ni 0.06279637611793315 4.6950353581824436 10.048151049168627 0.584996160308844 0.9365757485616129 -0.4041247093393363
Ni 2.8220269691659983 8.328064303232068 8.26732379453675 0.7662951857340738 -0.3739736396772527 0.33865413844035225
Ni 6.022399558184727 1.2109719260118454 10.026218338779747 0.3542285958398415 0.3773443559216985 -1.0583323956468353
Ni 6.5658747127621835 8.816974095849659 6.788414816792662 1.425015415199946 0.5485091211264037 0.7275507179760244
Ni 1.8873617386367207 8.118827924766192 10.862615935683376 1.271632913679326 0.6633060490643414 -0.236634821883057
Ni 0.4009045210529026 5.1557288419538665 5.668788475378029 1.813870599974721 1.7048493981782962 1.0598704295579167
Ni 4.477179425476794 3.989599345274749 8.105860871068504 -0.605768359859189 0.5580821095268195 1.3610599953939078
Ni 7.334429627777964 5.6671494397906415 9.131339801228776 -0.2380980366921448 0.2041733589202419 0.9404066922719287
Ni 7.044854099893472 7.328742985319996 12.457576743317183 -0.13973714282304323 -1.2295025601681793 0.46660303037921574
Ni 8.713445139127325 0.9849773988763031 5.6549443773211525 -0.0714545563965608 -0.7164939459412305 -0.3291351432063235
Ni 1.1498334466503148 0.35723148419909284 2.9746704100029158 0.6545159615765372 -0.051130757237544205 0.4491020453809749
Ni 1.0722951808304004 0.5566760867709275 8.839829117403363 -0.6907728870260427 -0.4699459787095197 0.3035333834778192
Ni 3.311229109903318 4.53677128897911 5.819913592109253 0.06958356462609307 -2.085754217757743 -0.4498602637032381
P 9.22785523225295 5.779722327055579 7.9274757067601636 -1.7077112931071234 0.4521536877231052 -0.2592206776033729
P 1.7350483682575626 5.750091430533301 11.075354833235304 -0.21914952061409998 2.1216612160669976 2.212374106472538
P 8.702571675190283 3.294461530649145 5.495552410210733 -2.189425725206481 -1.1485143532495703 0.4723892980436897
P 5.692819490819808 6.148618501231885 11.04127647305933 0.23247760518157382 0.6586436105916657 -0.3044273560469983
P 9.193009222498073 6.470908726772579 13.365057370945406 -0.18931803907496425 -0.6888864686366071 0.28441620303239407
P 2.788256046044968 2.702748936316293 0.36906498163898926 1.0024836641083317 -0.07561125887741171 -0.15454258326699188
P 5.99498484902169 6.218103047882472 5.030597245300412 -0.568262392493931 -0.08552851799112365 -0.7678985256654517
P 9.137189592798721 3.385787311018891 12.320944548856945 -0.47813879893295724 -0.27680008124803296 -0.457189964595432
