# total energy = -340888.37804779026 ev
CRYSTAL
PRIMVEC
9.11637039421112 0.00000000000000 0.00000000000000
0.00000000000000 9.11637039421112 0.00000000000000
0.00000000000000 0.00000000000000 13.34272956877284
PRIMCOORD
 96 1
Ni 6.202222181286337 1.9774409751094681 11.31901103854287 0.4185879359525178 1.6980156630859142 -1.1899188843382862
Ni 4.938902948938762 0.6737635719138978 5.689273202865281 -0.9665468410024063 -1.406728701075616 -0.014016111773433924
Ni 2.7900103995943133 1.5829027058617697 4.711998318088876 0.9668535736095477 0.19628367175952002 0.5363994823470633
Ni 3.4766189371112888 4.338799648190847 4.696787654420505 -0.46720441140864055 0.34271699565581626 0.8427289405127808
Ni 3.7577404447778004 2.9163268249997416 2.764960437575763 0.22830650452301973 -0.5613204139584591 -0.6667466993147743
Ni 5.415160360603771 4.748361695517945 2.659686417851687 -0.32102665516657614 -0.2327534845507798 -0.19930111842960516
Ni 5.315135546837291 4.87393057856748 11.552014521052415 0.06223098091576379 -1.1811457661313465 -1.0289128048341376
Ni 6.081092970521186 8.225536731211056 12.345800576389934 -0.8704384906129075 -0.31001899120216286 -0.686514625970321
Ni 1.8298469416716885 6.509115667490748 0.7569468033843342 -0.5918746325962323 1.0015279850632817 -2.0472149240319646
Ni 2.8718115893433684 1.3516477431553975 0.3554819160633789 -0.5258736431150749 1.1584385543418176 0.04852288730105192
Ni 8.445113623699157 9.078291115510215 6.760614441849494 -1.1526304323004728 -0.5197559602531113 0.7580383450419202
Ni 9.137064354149706 2.2933232023249763 1.430767808430453 -1.4551523437946423 -0.6468417328607312 0.39107019014822325
Ni 7.086874744893636 0.7558820113456972 4.457925992424417 -0.5146512920366944 -0.20185705208223947 -0.3147084262580322
Ni 0.67135958509379 7.74833121704589 2.6877329307529423 1.3472179473044927 -0.09710516708512953 -0.5804265386602907
Ni 7.965938973572128 3.8043615619489435 3.5216136938398566 -1.2497808508012411 0.8147635656481064 0.23198652447776824
Ni 7.767466478082697 4.162215557536752 12.360477932401967 0.05527717530574996 -0.6612861904208354 0.1954166957735344
Ni 8.54600449263405 7.405801839753876 8.781103828651151 -1.2680143430901323 0.826269509405177 0.6010151614449198
Ni 6.922242215563625 1.225167223086481 0.043130459023933344 1.1285471660990243 -0.43158306266060514 1.5544475765525552
Ni 1.8282789259983532 6.730442903056061 9.20366764314866 0.7072402885534466 -0.49808695992010993 0.9128393241766215
Ni 0.33178938156668675 4.7499661766720545 1.3622263791282943 -0.9915881002417503 0.5725687331787687 0.8217849912712621
Ni 6.6462441079460355 1.8534583404736555 6.694474264456385 -0.9074397504276048 1.0935480243160198 1.4995195570561077
Ni 3.2832060270794217 4.5310730119484885 0.20917693737100362 1.28947971205276 1.0017136187115265 -0.39821194339932714
Ni 6.420349570913622 5.8524544060604375 4.638853121838843 -0.9005869891718296 -0.4331180112478928 -0.09062367312584392
Ni 4.982005147215094 2.899725914876814 9.27706627449008 1.0770196876436935 -1.4558131173070927 0.17465812306994435
P 0.3621405128529376 5.645248427925336 12.278005777806648 0.5010283019366211 0.8020168075053995 1.4392747533324373
P 4.270919155727739 6.371048240905499 12.55737603075893 -0.5426521481249945 0.08943299525185243 0.11136501943825336
P 2.3649140574569643 8.55883122549674 1.230723650719608 -0.3422418557916106 -0.17922054562964618 0.3810788832634663
P 6.739386062216188 8.012213668675908 5.691487569185358 -0.9574587626582093 -0.01067033522965259 0.24094784743611408
P 4.837155141205651 1.1423267671353317 12.739878468942845 -0.850199023637581 1.2168067098680657 -2.313035109229726
P 4.300674988040334 6.4116069718977595 8.208753493684252 -0.9194262333655198 0.1450097040758922 -1.0175850385261442
P 4.851887195438848 1.003393285381671 3.3669581200499517 0.15462768678163047 0.4183645070878021 0.7758105814236768
P 0.44549695535705647 5.617735222680418 3.61932203794009 -0.06383689195030295 -0.6929187297244518 -2.0628981390951764
Ni 0.6790966484772765 -0.10323286443768231 4.865853474575765 0.523362189547131 0.7057235947986039 -1.3706833774162845
Ni 1.9573576115725055 6.672398974032075 4.719749967664672 1.2577178462601306 0.07292188497070667 -0.34321578966910565
Ni 6.239289342494367 5.923580326312541 9.247872010581425 0.47561963205552926 -1.0730990124330486 -0.41813259358265403
Ni 8.614231407164521 2.6682339265454025 10.218889418856799 0.5303602181315189 -0.03797210836839912 -0.047138862469331716
Ni 2.583187309007352 5.437832773275776 7.109032994286709 0.11883715944558243 -0.2893617199631275 -0.7490983622398132
Ni 0.5353561047204198 9.433711040256275 9.114818587602771 -0.2078389806972872 0.08136693041426632 0.18358884990067093
Ni 1.5598109401608495 1.4058719130681778 11.205650798456883 -0.2640633504076549 -0.45207064109099565 0.8756686286635952
Ni 4.204688726269712 6.727051613343964 1.380411714390906 0.5449555994471905 1.043791521718183 0.22095314948174205
Ni 6.002117855532212 8.000189176390272 7.851769199812933 -0.5809554145805672 0.7583926430575455 -0.3726875738759775
Ni 5.327077991791182 2.977588832702143 4.77536256075797 0.945095870217482 -0.40953713860415913 -0.1179807249825581
Ni 1.0755220063550937 7.298073693173626 6.8150792839353915 -1.0270752374047667 0.5693314571883936 0.012611003895791183
Ni 5.387656271729047 4.647917528722549 7.42956548193808 -0.4770224259403268 -0.2906328733660672 -0.5221496572962684
Ni 0.3498279432691781 7.704299149009789 11.221595329925858 2.122004458339029 -0.4385921469885866 -0.21697565289123277
Ni 4.3685919459842175 0.626078574341137 10.58740227447521 -0.46941298902418516 -0.3450790681300896 -0.5084508196529373
Ni 8.383605474001524 7.213792850731855 4.518328326417542 -0.01605268258748848 0.12055645612953432 0.46385323554822055
Ni 7.625725154309342 6.1775350508015 6.770007038060177 -0.6532167831491396 0.7569965340409672 0.5538788700787493
Ni 2.7115002194852234 5.31494410306322 2.573158390157141 -1.455122004777339 -0.7457582421229866 0.5991094597817747
Ni 2.508177815052685 5.496979783093214 11.258874902559404 -0.6984733409940939 -0.4547636145421265 0.8972448121724742
Ni 1.0765795052975757 3.252611488708996 3.6997384510567053 1.2858719400968435 0.6849336546364461 0.20190821703514905
Ni 1.8758025638186833 1.235951889025758 2.6363102214007195 -0.45568921168018944 -0.9353177077847956 -0.9372205812344633
Ni 1.2336363309965301 3.491232478531966 8.023676592557603 -0.8209789504301991 -0.14880516656258244 0.2058018956626004
Ni 3.6987848787344326 2.96286589483914 6.97532501592814 0.23325844921165637 -0.8224262243996868 0.03637545330524058
Ni 4.29817710260723 7.1321648720164825 5.770583931897909 0.457183793947845 0.32126602487089184 0.9355321377884469
Ni 0.5976792579133808 0.08854092223333851 0.016832465925850335 0.42740887667825744 0.3250082655221435 -0.06895775811663608
P 0.30956914085629483 5.656662123407986 8.101024435466982 0.8435072134397021 -1.2018845413405947 -1.710731567990686
P 8.55354373078433 1.8434121005200772 7.924660960971578 1.3944470554947856 0.8051653804367102 -0.7845309920158102
P 1.944922882628149 3.399795285488054 10.32451077228526 -0.1090170880313671 0.05140303706232438 -0.12146097022167471
P 4.2465784473102675 6.186642304625115 3.835247824165571 0.2899242773348168 0.9113786804706948 -0.6881868714664212
P 6.779844513136317 3.9295749065609207 10.123795649728152 0.2373804417998299 -0.06384794769389648 0.6352648266564092
P 6.724781637165705 7.857262724491723 9.968806416789151 -0.3119601740889337 2.1984045316663234 0.6276448482173062
P 2.6828565843362733 8.652173739911158 5.656837157715707 0.33271926101315596 -0.12444370699908246 0.028480366827879983
P 7.094660125039148 4.183584329271042 1.3996919257137943 0.9782021658531477 -0.5531165379914281 -0.360461721233747
Ni 5.451698772340561 3.191850881367254 0.05461070400899797 0.10168224493285068 0.7058048416585005 0.9734199139731559
Ni 1.6112728499049056 1.0179247794706037 6.7754112223110665 -0.6105588392692969 1.7532167337380904 0.8217695646522943
Ni 6.989338700190065 1.1491366956701075 9.102062962427592 -1.6588495344094143 -1.4059565987962819 0.3474048880497888
Ni 2.6075553665354048 1.5397458093642742 8.91961431082782 1.3221103536035874 1.1376288166853181 0.8918871474049865
Ni 6.381112713599465 2.290314800161019 2.4011443358812032 0.01192991866836655 -0.35277437989181826 -0.26170050660243316
Ni 4.380178852500549 7.045021489333855 10.288204827988412 -0.6752141133558371 1.0381304667776636 0.7176301164282028
Ni 8.327539797309592 7.3701750650364675 13.486430787032196 0.8427569655372389 -0.8327306916494883 -1.0057775043682549
Ni 7.791533695394354 4.151230331453211 8.119317343897881 0.066480243110421 -1.2221623177530243 -0.276606220069672
Ni 3.4503273254723417 8.398538088378984 12.54463408013904 -0.4946046577984643 -0.50047448631568 -0.5362868680285989
Ni 9.099286116066558 5.141213436279788 10.196140428675168 0.6016630794415638 -1.1790634296810212 -0.4294228217844927
Ni 8.567418846219308 2.240685280825919 5.58307842975163 1.9212226415988398 1.3667549888961559 -0.3725975852653325
Ni 3.4943138116574737 2.8687849544390236 11.90753199095955 0.3679785984360824 0.07581103359304363 -1.4118084295913684
Ni 1.0689855689261323 3.3673318912278973 12.965277075436715 0.6364431632352264 0.510703620242856 -3.6304668264107214
Ni 2.7945321192104426 8.46361985519259 8.028867453745958 2.0967695950316405 -0.3049114947722684 -0.4597284147465695
Ni 6.094986318696552 7.830971112852776 3.457755343906258 -1.442184985000697 0.856347302627164 -0.9562822258516046
Ni 3.3448326895895755 8.412777858621714 3.160331943059176 0.5522320785039457 -0.5098083621220962 1.1251191142540817
Ni 3.515144717550329 4.519084985143629 9.169029994597281 -0.8883235984234443 0.9265903552141268 0.248455725777385
Ni 7.494330910705962 6.425564134664482 11.288696372737393 -0.7846472058787003 -0.5502523290697555 1.2045168367571193
Ni 7.981628246675676 9.014923226293043 1.865153731795294 0.7419324406189932 1.5838468556502787 1.3683112776396822
Ni 5.005698593348806 0.22434384246244493 1.189733715417181 -0.9849965630671617 -0.6904525275721463 2.6591099656141814
Ni 6.274469415072279 5.907298489146397 0.3168230366195092 -0.5406528583067786 -0.9383343831239322 -1.1443581649893517
Ni 7.948152935324006 9.411922915493069 11.224170704505608 0.14445640267558346 -0.041907953087695564 -0.11805477275360315
Ni 0.20924713342149598 4.915008942660786 5.646963217158792 0.24017651648772828 -0.9505733483922855 0.648121113793787
Ni 7.746252684641702 6.266319380119013 2.245634558204138 -0.21271173540855623 -0.3898278331006899 1.0835101804640437
P 8.879444848842835 1.3648573635662278 3.419555017883137 0.12849962223601094 0.3889688275345043 0.1035961741261119
P 2.0716860101730736 3.3464462871138796 1.4135023149203967 0.4285905556911845 -1.251700179311141 2.696704636038504
P 4.766785879679634 1.0380993067095048 8.050829701179866 -0.017375772274286203 0.4780076726717316 -0.15376559589165134
P 8.718823522398102 1.8870977464888135 12.499415060703706 0.1458314286462392 0.36321922937422607 -0.7355373357259268
P 6.466186680248098 7.832092426386614 1.1414515955967257 -0.5076213817731063 -0.8916562623411031 0.7429876213563849
P 1.8827127724255912 3.3792469870712067 5.862034799497112 -0.4690738605172115 -0.5452294219338674 -0.1248594543802624
P 6.808114377107321 4.227826073821601 5.89352365378355 1.5143684491434823 -1.781314777525887 -0.13203077531772098
P 2.3959370652264993 8.600565968244002 10.3165585625652 -0.10707976179933816 0.27691526666965854 0.07009572837582122
