# total energy = -340891.0548868602 ev
CRYSTAL
PRIMVEC
9.07894690496664 0.00000000000000 0.00000000000000
0.00000000000000 9.07894690496664 0.00000000000000
0.00000000000000 0.00000000000000 13.28795650943531
PRIMCOORD
 96 1
Ni 6.405605507048661 1.8356450129384345 11.328873215166215 -0.25961894148305614 0.2140181129248056 1.2081444062073774
Ni 4.767182455047684 0.23650747155626975 5.881010343585619 -0.45268359208464615 -1.1658075931123792 -0.4828086936048007
Ni 2.8706903407787316 1.4509791167473414 4.807130728781557 -0.5359883629515737 0.27518234313895185 0.11650979686398644
Ni 3.670037131221003 4.621038648703705 5.353411864527212 -0.9834801264226354 -1.3902389309507088 -1.8508214661674574
Ni 5.419168860277238 4.660967856649336 2.6838619581168905 -0.7197065393412573 -0.12959748328588003 -0.7888656148354221
Ni 7.601084903467231 6.120245130755092 2.555540124305262 -1.237495862786301 0.1583691561019337 -0.4086195118858963
Ni 5.1286334843181365 4.60007536058491 11.846824405374456 -0.27787351681786987 -0.27628354662293064 -1.3299159656909354
Ni 5.539156220943326 8.049820927096322 12.5045114812882 -0.13110492106934196 -0.572983195008368 -0.09602401820580882
Ni 1.829562118594739 6.626922992744578 0.2855119947048228 0.6617333052605829 -0.9029603745000128 0.11944753933607169
Ni 2.6092711471483336 1.6297435788777344 0.4310638537186387 -0.1907267464970328 -0.4699727181823971 0.4479869579399252
Ni 0.39582029020700976 0.18827102730544304 5.177957586393402 0.5432761548622386 -0.34804406429568446 -1.0323339147005446
Ni 8.939748369578966 2.2778623527783113 1.1068225732012256 -0.023754936327752635 1.1810177251939145 0.8586785218635019
Ni 7.000866652786559 0.45404448381231316 4.662531251285134 -0.3943588882018241 0.6029733136125551 0.08664643364565078
Ni 0.5263937028204843 7.563280169068503 2.320037692157719 0.7877790666394626 -0.8170850146924314 0.6025372545164009
Ni 7.616037928816583 3.873450933863535 3.770483874728978 0.8466488443924773 -0.19608955347084295 0.7278294255587078
Ni 7.605088718997932 3.888449353946796 12.663010826307303 0.49346951575275655 -0.5086660209875369 -0.49107581870959943
Ni 7.890957516311272 -0.3110982825248265 6.992853574357088 0.2768931551824715 0.09535501716324223 0.08868377579065372
Ni 6.63365957125655 0.8222066705437501 0.41113828921698437 0.7589773119164219 -0.02757456718415896 -0.717064730843036
Ni 1.802824620322824 6.498383264210189 9.141130303931767 0.09496986590968161 0.7473196730728354 1.2147763097015982
Ni 0.12064921588646926 4.989816388026937 1.1016248761687395 0.15011900027799951 -0.8750291953073833 1.4839610404962185
Ni 6.158703549322098 1.773472385377798 6.991710534957281 1.1686967417347163 0.23362174608834602 0.029834566862929263
Ni 3.4047230694212836 4.4283380032635025 0.5656492529149176 0.20036324114553233 -0.18178085015765466 0.04250522035206228
Ni 6.076711580937152 5.611624374154336 4.733808246678394 0.12713899444305848 -0.9021728456017107 1.3191702971386572
Ni 5.509449907073816 2.6319503562088578 9.212008733561314 -0.9346281379169389 0.011928633116785908 0.2134498991261614
P 0.2012657238339972 5.68250371167856 12.43579928836075 -0.060860840041114535 -0.2694467262067553 -1.4554719319175902
P 4.063228158440052 6.228357229030801 12.835355565168403 -0.6039030245156761 0.9498791505387384 -1.0416101977961478
P 2.333371033401228 8.44155932283031 1.3005173633140172 0.6157493823313007 1.4559846098879505 1.3679744631255537
P 6.521752473226118 7.582164378374304 5.7196011961229996 -0.9842555711360792 0.22571251854359836 3.009168489236734
P 4.522159839304919 0.9510378332698288 12.778948068814104 1.00355632834722 -0.10017275026685973 0.10323621968353187
P 4.0822303940540134 6.1779327586056 8.131471527082278 -0.43730299586351784 -0.4320803140119978 0.5090971949876845
P 4.736949562264839 1.2839537328056023 3.6876466563986625 -0.31710700839719586 -1.4051017069951541 0.3731393167014154
P 0.23897785297555263 5.397324914320624 3.6477828168698596 0.37509901153094755 0.5495671300772729 0.07076061565332975
Ni 1.4387860912196055 0.9605071747630741 2.8182694099562493 -0.13550253591640535 0.28903081898627 -0.5500939491150204
Ni 1.4861055618454873 6.640850097107606 4.94019631228659 1.9377298952252435 -0.3866954581192953 -1.3387806151704167
Ni 5.794410809708994 5.765176601072129 9.473396150877976 0.8201055466863102 -0.9068219143379479 -0.5211111887294251
Ni 8.476368004791098 2.3318185335015684 10.139335081521546 0.6339458507346695 0.43277374053459655 0.9549205696173876
Ni 2.257552748827794 5.488640961050309 7.112551316620843 -0.08771806944327473 -0.9459669599685255 -0.406771402933564
Ni 0.5037299279694888 9.043248362889605 9.271976992843369 0.08643071809041888 0.9480269278213481 -0.5928452240396177
Ni 1.267693339119694 1.230805578345911 11.489842941604602 1.4282377787919853 0.13938310191773412 -1.5036279227975264
Ni 4.529858786175746 7.158286511033329 1.5981688177605642 -0.9488070005204822 -1.6737480487878011 0.1005663861608526
Ni 5.644862398321902 7.759412656392163 7.893231792480072 0.24391438626360573 0.43455782901821294 -0.1114030717650404
Ni 5.313553472366478 2.9651567820416442 4.806532426188646 -0.37693760740158305 0.04679356331477102 -0.17418118343352584
Ni 1.03667045931421 7.544740959740404 6.977107049059021 -2.7955602101558368 0.2244768463642844 1.448715329920047
Ni 4.982017572741513 4.290174591140581 7.253776149598531 0.7443870728070728 0.5110633175751199 0.6955566815679312
Ni 8.249566835239074 7.198252034766086 9.262409598724881 -1.3826840014215864 -0.8218898922802425 -0.6684127741632875
Ni 4.557059310733523 0.16899006802528477 10.49213024293039 0.9464719246294022 1.4850833270261197 0.16772771449869822
Ni 8.314481304727764 7.149189406358131 4.798626479331199 0.15839769534702397 -0.30853443623683635 -0.5635014807701779
Ni 7.332529657666468 5.79738870425337 7.02555503276986 -1.07866827899071 0.7411551961333365 -0.39660063304814924
Ni 2.2566993278303205 5.359474785187988 2.6655506303530108 -0.25314104706819623 0.609779280790795 0.03283735824499506
Ni 2.3870003720403457 5.364749653268118 11.275415468621269 -0.044954967444135484 -0.4261739758298919 1.072567565409611
Ni 1.3438384657772668 3.248292816373713 3.858995434797816 -1.4987731658083865 0.3720895352806624 1.1249604771890303
Ni 3.5352874030879766 3.119998219402429 2.9722238342164684 0.9496999446483966 -0.516048172384221 -0.49081973683473534
Ni 0.9927283568910967 3.4889756955548563 8.354550328453831 0.0879057599740486 0.49556959281489493 0.15340487011812287
Ni 3.7324367324511805 2.2633905116083852 6.9271973549163395 0.8797718521986913 -0.24425557165310838 0.543037299378555
Ni 3.971558032785883 6.818307190901443 5.849756977184518 0.46959528023832026 1.8362196570938827 0.39392977108420546
Ni 0.5267831896374163 7.474842148468596 11.250208680776739 2.167528668023073 -0.9893638388969219 0.3211474970151566
P 0.10149263817721943 5.6490114770011095 7.9873505100812485 0.8800564733186457 -0.4679176354255812 0.586223604958042
P 8.58577839245658 1.7717746223296322 8.028702388987561 -0.6672979438325539 -1.81466764195472 0.9810915715858007
P 1.9068330346532343 3.136957691990523 10.429663457494028 -0.08379893689452664 1.1032462254403903 0.3848599475724533
P 4.015336714166927 6.234076965503232 3.7279226801113516 0.007255138900516537 -1.0947515577058178 -0.3090170323002097
P 6.82062232233076 3.9398180348372867 10.493485729684886 0.10058901186867192 0.38885492766445934 -0.24328215199624556
P 6.283493672835671 7.772568050278752 10.328130871950968 -0.3077314807195668 -0.4646798452145739 -0.33160443068242246
P 2.3377561646967577 8.614186416936317 5.7547612333242375 1.7343546067262645 0.6418777039872364 -0.7599111365846009
P 7.185913746089844 3.928088035595415 1.5704898327073937 -0.6236987190853647 0.4425128221992314 -0.7509662686864873
Ni 5.376988073529762 2.9753615182242017 0.37587929149582666 -0.08220536715516165 -0.2381936817297446 0.6147430525539735
Ni 1.3943718835638472 1.2502980770860814 7.26811362235609 0.931479307875312 -0.27339979731723235 -1.053149051673683
Ni 7.110485856228021 0.4875058500707071 9.14744198773436 -1.3414807877103994 0.1648894737189547 -0.028422002786118797
Ni 2.8851077082679684 1.5326351641013665 9.204966194542799 -0.47470869020548573 0.8609308082327883 0.38119278313351124
Ni 6.473606818443107 2.037034210448662 2.597516634750151 0.31601094711953964 0.3033487782708389 -0.09419262142402487
Ni 3.9519202708972063 7.033115071754927 10.46276438956519 -0.0988378335055201 -1.1001395614906084 -0.16171236154255375
Ni 8.030836849375923 7.371387549891866 0.17391267297028726 -0.6250385209427106 -0.06089143616873383 0.9211684128676071
Ni 7.4961595155118745 3.6138838453765905 8.261068952916727 0.0672250916962455 0.9860890248003922 -0.2683640346655378
Ni 2.912698627537357 8.358078407173174 12.276490101288724 0.3568356944453855 0.29367423129555226 0.25576485784428854
Ni 0.14016713567762817 4.926999155244805 10.261026560498546 -0.42112947142744894 -0.5279845188104907 0.11442540353113197
Ni 8.483613004322843 2.1941907792387636 5.912742170482112 -0.7955759369760621 1.3572928150419914 1.2359035785985168
Ni 3.8625561977255733 2.5768411492443337 11.678997350431898 -0.8600088106391512 0.8169824276762963 -1.2603809949145908
Ni 1.273585575580975 3.4692471441983637 12.597274712134876 -0.3734632756997375 0.48247779262794327 -0.16571042695835334
Ni 3.0672767754414743 8.21750907415312 7.871373320208608 1.0243380409792615 0.5530319486974218 0.586969224874815
Ni 5.680551738120509 7.7462754203991375 3.870329591960009 -1.578372719909585 0.7407936990288596 -2.180352045039987
Ni 3.2039784771325523 8.342090381890715 3.439109580356726 -0.40669941204504795 -0.14393909671953276 0.5735403530634188
Ni 3.6103884508656616 4.239423278631242 9.340662856825151 -0.49130438978063773 0.06749068665280634 0.25580985214961105
Ni 7.261868214865002 6.117966315112901 11.502972006545525 0.1834124722238067 -0.24137850721562942 -0.6987373932887578
Ni 0.6252824990607307 8.97664520929953 0.055918141122768085 0.32577214027136153 -0.18621857421403412 0.7131903354892943
Ni 4.605931281259065 0.3947035797528687 1.685431114752249 -0.43428760607596173 0.8993664865011671 -0.022495609999354807
Ni 6.112437236522886 5.792595020352667 0.31627872955842745 0.41887718505816246 -0.27814836774581125 1.6326332810253628
Ni 7.882223569507341 8.830356139807046 11.37100951507446 -0.8202562133315616 0.7731116944352749 0.507130558179617
Ni 0.09847479626700396 4.546663916668551 5.7455134181324645 0.23272854485011532 0.384201488052848 0.7943988859488255
Ni 8.222484336989456 9.386087551257706 2.120638599782026 -0.045267099367915585 -0.25725481212625373 1.2353554194045306
P 8.531168527565045 1.787626463410367 3.89248131421252 0.8681008436186664 -0.8441710722759461 -2.8305261847080607
P 1.779609753402183 3.3504309676671067 1.7029316925685285 0.046435151534087775 -0.48620820620465294 -0.9835081514470935
P 4.683075092062617 0.6932665604562919 8.337408369035426 1.3854731341309494 0.5867367971490346 -1.354532735798351
P 8.523106422822954 1.4985346399895456 12.488672350732958 -1.9841118249238925 1.0477008840749182 -0.6433900268667049
P 6.5079070793841245 8.106101318195677 1.8619349191340149 0.6504538756920217 -0.4615778092504825 -1.1041602526142273
P 2.09000078597272 3.4238251734498437 6.457747714204948 -0.8172536790598119 -0.1272634358360647 -1.7328543680316544
P 6.756642984360579 3.803488569964256 6.06451673962006 1.4810801194039975 0.8963714084285853 0.2945311799792089
P 2.3897785297555263 8.741745619218289 10.121356951104552 -0.18894445778562943 -1.7985434826993478 0.9181892756346252
