# total energy = -381167.61186414165 ev
CRYSTAL
PRIMVEC
9.25092718737986 0.00000000000000 0.00000000000000
0.00000000000000 9.25092718737986 0.00000000000000
0.00000000000000 0.00000000000000 13.53966703677814
PRIMCOORD
 96 1
Ni 0.12886079123531116 0.8825190334317161 2.1046867862204497 0.47826349743627955 0.4976131056074849 -1.9122245518652872
Ni 6.60950999776681 0.6984117046137727 4.672403758818527 -1.0085784641521598 1.2964707986586124 -0.5914128624684654
Ni 0.24531331373994839 6.936752298578604 9.575320272857503 -0.33891664807311955 1.4029939166235321 -0.09294332239795607
Ni 3.808477238989218 8.366076065447693 11.838218267223581 1.0437102748582863 0.952585750836624 2.0304667580393483
Ni 4.747224333385603 8.4906027972628 4.730759533052453 0.54922928712188 0.08670119814298616 0.36074145725769485
Ni 0.980302259637708 7.960052868109828 3.066206888246969 0.024936615340679633 -1.1488262280630344 -0.8729026358826838
Ni 0.3005348738189852 4.146348855220043 6.398914488932062 0.487623855605257 -0.30273017085023346 0.4125000778872251
Ni 2.6828521630612268 3.280804348213372 4.989137006265642 -0.7525716655003942 0.5691784765502972 1.032154194589571
Ni 7.443952887333291 2.0105410246121624 2.8216391992439864 -0.7666744234503635 -0.376815480001422 -1.0261509258182844
Ni 4.058206020309238 7.243735068696164 6.598083252418171 0.04339739314902849 -0.7184775520301626 -0.7549735900736675
Ni 1.2959623995229361 3.789984635401194 11.947049875853374 0.5183557374714751 1.6127020893190742 -0.8203598287889613
Ni 7.05810596234434 2.958918334283751 9.151339175527104 0.2703036748904119 0.1790274557822336 -1.3679124995393668
Ni 8.45895537511441 7.515962105106769 12.956973604570049 -0.3956727219172412 -0.35166109222298153 0.02409535038630689
Ni 5.234248649791374 2.4334379132679658 7.635207482550488 0.5745873062706942 -0.31883581816284445 -0.14185341783509764
Ni 0.7197979982479872 1.6086622426857193 11.677786836536118 -1.2417093866470164 0.20274973909983796 -0.32006917634931326
Ni 6.216521356934958 4.986074024250637 9.276513472250244 1.0114925524751612 1.8843211405868001 2.271648318752823
Ni 2.3433246308512845 2.3196977626352693 10.204346322668064 0.7503610310023205 0.5859181579024813 -0.9657747387230721
Ni 3.182689013718831 1.0536436109362863 4.320385624625318 -0.4022051237191202 0.60293114752071 0.30920857948572555
Ni 5.057417175261564 2.381096166844233 10.36863631511469 -1.8067123916633852 -0.9367816939248317 -1.9095156375745566
Ni 5.973147962640938 3.9543643618422175 11.48829916842513 2.9983891392330424 1.1169923713818892 0.9617951852500339
Ni 2.3626683197470117 4.278035804732563 0.4406827214013442 0.30077741799923685 0.39840040526104936 0.10739909281196988
Ni 0.14162892103630736 3.306050128699474 9.718881712597932 -0.21985760242471816 -1.7250577548053712 0.18169240420890645
Ni 3.749141791558708 4.183001029014816 3.284045873124449 0.057477268280862304 -1.1408462951813514 -1.8016676301506265
Ni 3.8861387733171147 3.8846771268104074 8.844164911215309 0.3158047446460045 0.6922597559842142 0.43385591785518185
P 8.301476840407586 4.033598553803913 2.83340545362298 -0.09943432943893843 1.4179022011939324 0.20627086487921892
Ni 2.775028402256362 5.7840867622765275 4.581390361179677 1.8528886331091317 2.6198541054373523 0.08925841734720111
P 6.31381335890357 0.9759173201175861 0.8698887424468588 0.5472112282505867 -0.31636421669390036 1.1382175993092527
Ni 3.172281720553985 8.24910734120208 2.9369436816759507 1.3749699206067805 -0.04333851488663504 -1.205488199531453
P 2.4660011772148627 7.381888416361776 0.5162822240435128 -0.46209074433115904 0.2822793591950493 -0.20130812155730493
P 3.498302898967771 1.9956377808001027 6.43162576771508 0.08622811516130956 -0.8877561559557484 0.11852579885275072
P 8.024208048641569 8.815717384805337 11.06588887854308 1.0423774149794758 0.00046382701029597543 -1.5648536023772275
Ni -0.361297739325349 8.035827213277164 7.418572968401953 0.7599826132524847 -0.5011591710875305 -0.11937863377134923
Ni 8.632234493577284 0.5804993857878796 5.954569325429418 1.218278666427902 1.795421135020282 -1.0143822153181303
Ni 3.363378124915076 0.8704595246586554 8.407050272457237 0.655906928386793 0.217861912150928 0.2909208369201312
Ni 4.302615518456115 2.8859100163664477 0.9607189717260076 -1.7910039797891928 0.9332052894274832 -0.17449794334299626
Ni 1.2151000443638957 3.036912901992923 2.9362526374098046 0.4170696995357785 -2.1356431321683864 -1.9783217006046767
Ni 0.9046472514319936 8.67558433870659 11.65518959652388 -0.06441590438222455 -2.1797159541178845 -3.477289241812056
Ni 5.920732208799143 0.3711064974966258 10.253197694237489 0.6404728532199099 -0.6411125436864378 -0.5214361761690116
Ni 3.852206372136087 3.589822322327614 12.07516226707354 -1.2489514129214103 0.9671425656048762 0.31278986907908063
Ni 5.330375034925522 7.282394693705847 10.445893583921427 0.43679468876853167 -0.9825226476053724 0.7628995297889635
Ni 1.1172159830507957 6.254228136437105 12.118015337409114 -1.1283517622587664 -0.20950042756011017 0.16122693726570297
Ni 0.410388709910747 0.6384471941297433 9.263542747142306 -0.2549986691022254 -0.4264904786290461 1.1465232909614707
Ni 7.4173749733220875 5.562610312801343 1.1306945840651788 -0.6447514259906056 0.13523179875352195 -0.21698696574514242
Ni 3.0887550983447434 1.426196953456007 12.147017919454543 0.010492414890891607 -0.9764656427780152 1.1597369614382673
Ni 2.475908920307796 5.843144681889308 2.013551276341799 1.2949870150242342 0.5266372607539769 2.205494605743886
Ni 7.31226593782077 6.196345084586044 7.147319129538852 -1.4026792135965906 0.6870427305596489 -1.5152467379833776
Ni 9.087935170288683 3.7537302514784985 0.8475801313650574 0.2540635588824656 0.38350497620645563 0.43059447349509067
Ni 6.474844249677328 6.675330345204926 4.8605102634899495 -0.6165227701622156 3.325294621777899 -0.305328527705029
Ni 1.2864801990838541 -0.10161403518338094 0.09843634167038123 0.7723223657647601 0.0033807435467748228 2.734379010660826
Ni 1.406251954288533 2.222507520866492 0.2293073593987778 0.2620023541135681 -0.345109921368025 0.66753397110276
Ni 4.073016754848722 6.347958531411523 8.66805408391887 -0.3299856641320768 -0.41229079008989644 -0.4144242914931315
Ni 0.5334038402119547 6.255116225453838 1.0180802712797368 -1.1040031582110728 0.34815025085624557 -0.29439465440134455
Ni 7.660924135234004 1.9576812262620014 10.962662406738692 -0.06401995449538651 -1.3289384322690145 1.8224362301565455
Ni 6.299085882709406 6.092734699300464 12.483627709207425 0.35382698952604874 0.30431885549359206 -0.004290399845237772
Ni 4.257563502711403 0.3096581382804708 0.680186452823494 -0.28490008464734806 -0.8950076953118393 -0.25111913154216103
Ni 2.439238244658507 8.377713731937806 5.383182102990315 -1.2856199719870374 -0.7104076305378345 0.2096382386895551
P 0.9897382054405018 0.7976852552009703 3.9842504074407525 0.49046415326752946 0.3726672621610034 1.433883664223853
Ni 7.443943636406033 2.737867427462418 6.615224295533854 -0.5292695561705013 0.36189151170173806 0.6492480283093787
P 8.513332325534824 3.4249985513782226 12.366725591638067 -1.565262407779872 0.02737273558599802 -0.8931364464310554
Ni 8.292068647386564 1.1694097146384066 13.553342030975685 -0.3974547535183284 0.2579850054240589 -0.8915050814752195
P 4.286213624428318 5.208827101687376 10.458418414335547 -0.21750247192898026 0.18939414372853833 2.1188695122544736
P 5.434595981410106 8.380452006406069 2.7078796216640484 -0.9811771893210717 0.5153066662325061 0.30800427476497927
P 5.416834201075435 4.984279344362655 7.484592210776108 -1.2693284339158657 -0.32432100964713173 -3.6074012028405105
Ni 1.407667346158952 0.48036087350209244 7.1181953603463475 0.7280034892427268 0.7028329035143701 -0.8901439394616347
Ni 2.532931635923896 1.219808766338035 1.932882265562443 0.13717375297124118 0.024330092104932293 0.9946983637359578
Ni 8.565452049704374 4.864877626248282 8.271572292954536 0.5905469149237441 -0.07731101517733784 1.445548502156291
Ni 8.289247114572985 8.900798162793862 3.646165094790277 -0.9356606929465111 -0.4546391731491203 1.54739092681609
Ni 8.639107932529713 2.971027798064003 4.6704407120544555 0.45846754575627496 -2.0661279588863835 -0.6199801325831967
Ni 1.5320368122106787 5.08822276302951 9.774597272192526 1.3602259295283865 -0.527717381192033 -0.3775721556617885
Ni 2.4835224334408346 5.022800205463471 6.772419751866594 0.69708623083858 0.8319925279318832 0.8691141153745289
Ni 8.241336562305662 6.349457181627262 3.201197343883193 0.7025220571421708 -0.5114929489133708 0.8119867742339177
Ni 0.9591361380722252 4.749833094872257 4.151898486481901 -2.5664605203075608 1.2520529346648697 0.46798062745303276
Ni 3.318723899042442 6.0440008145072115 12.321015834965335 1.1303392250024404 -1.5174319185601546 -0.2368420527978566
Ni 4.933612015772554 1.54148200894073 2.719144475785678 0.975543645184378 -0.6865971583817981 0.5393714204911937
Ni 2.219362205598894 7.893251922382401 8.337158591933033 0.035013025740075185 0.35064113559889937 -1.7011788913052444
Ni 4.8060602307442 6.317689497424522 2.977711593007649 0.17989751709201277 -0.3341562505699987 -0.41964594490338697
Ni 4.858096696568431 5.1467533797886045 5.311042447142503 0.16344425663199594 -1.2615169082912467 0.7003600164938454
Ni 8.33220842075747 5.446594434063266 10.904523104202594 -0.6076295814376439 -1.384812360618499 0.5800748117478267
Ni 6.463521114713975 8.721348675850141 12.37327894850738 -1.7434002618683009 -0.2815507085591409 1.6881081741642154
Ni 5.221954167465968 2.4442337453776326 5.02229602992793 -0.5763130307125494 1.356554137103754 0.3089419560879002
Ni 7.2286653081934675 7.542743539517639 8.958263072732876 -0.1315641200939476 0.7902334417172261 1.8699458457017344
Ni 7.30363482268939 0.7793406664490682 8.18453956931465 -0.1407254748782415 -0.8635808442611256 -0.4962463071669454
Ni 5.398915154977384 1.7381382205836637 12.646049014348007 0.19289778600642263 -0.6097563979726596 -1.6513689097616528
Ni 4.628830966342313 7.203040239689802 0.24166659821498626 1.0064315930124859 -0.1836101900569096 1.9322801849645819
Ni 5.064235108650446 8.516181611130177 8.344402067975766 0.25181152962349534 0.08795563937537755 -0.6285259652706788
Ni 7.246880383963762 8.066891827008325 1.8330545844325126 0.6871463460170489 -0.06090763411864994 -2.329432319640827
Ni 2.52632647386194 7.144093331204113 10.379806809778291 0.0907529996148566 -0.6453024133980693 0.5785540042279261
Ni 7.291830639508641 4.764930608156727 5.18131946948678 0.8227992914683893 -1.8249068031842248 -0.12988030463362146
P 7.014469338470046 8.510760567757199 6.074530724642878 -0.6891255812306066 -2.2849517207299486 1.5644034022136863
Ni 2.1360761074983516 2.954154106746066 7.947689928922716 -2.2266588985263267 -0.5700665355822053 -1.629939279132967
P 0.934167885403852 6.8138074753245546 4.901711118217305 -0.9585990469102394 0.28269587790717765 0.4507146412837334
Ni 6.0496901347706595 4.096208829483627 2.8958908417847167 0.270461797734831 0.18656438758922708 0.1605427667144848
P 2.790727225812579 0.07174649143936102 10.326433584965331 -1.176729896451838 0.877991620369817 -0.8301737295555895
P 5.19845681223156 4.981531818967135 0.6553412374876474 -0.05485165773255715 0.4498355811128898 0.39108510254655876
P 9.26794896379512 2.088461584903273 7.634205607128485 -0.4862619422607238 0.8306588967221243 0.33359729274273514
Ni 6.501977219323989 3.2268066858105207 0.4939347590672292 2.592988905615392 0.7051186142247534 -0.15722861473958727
