# total energy = -340853.3160575004 ev
CRYSTAL
PRIMVEC
9.44417140192943 0.00000000000000 0.00000000000000

0.00000000000000 9.44417140192943 0.00000000000000

0.00000000000000 0.00000000000000 13.82249947819435

PRIMCOORD
 96 1
Ni 0.2757575196387373 8.541261151136036 1.7918661993464338 1.215265847743507 0.8025215150559598 -1.498953914360625
Ni 8.631046886090177 7.245407541740056 12.52557562373948 0.2970968838238561 -0.4050634191035218 0.8271249154269368
Ni 6.2349378956178985 7.975328640208095 1.8160272223540261 0.1523147223777377 0.668427686561623 -0.6001381581566051
Ni 1.1350099308429171 8.976580775305193 6.509207958303309 0.852264647917358 -1.59901739274313 -0.04771196136398234
Ni 3.6471783403592104 8.303079155181116 4.964585437113173 0.05268447487790927 0.8429973636828191 1.0331718372208079
Ni 6.757549993562286 9.301601924820998 8.209873685859993 2.7387681408674576 -0.3602123242271022 1.4448594465090663
Ni 3.6959574842571943 4.159798505245695 12.176543613537085 -2.908010235128153 0.03977882255983471 -0.916143963069822
Ni 0.40862473004678634 4.983188565409446 10.355318319391879 0.11660107102621207 0.09743966760641283 2.1680498306338665
Ni 0.3618269732523444 1.5657113553284117 5.9425406908612795 1.6603248334033598 -0.8388656009026326 -1.6964040956244204
Ni 2.6111244346398323 1.611449476121817 12.823160511699035 1.3061630862457116 2.932860975623246 1.036581377122989
Ni 7.146460960787649 2.0687645748579446 13.16620680623782 0.3422495691010944 3.0664922626588673 -2.795424455908921
Ni 7.730932379648165 5.574044243955352 10.653000482314095 -0.9581581027180789 0.10974702421885615 -0.05812312939497732
Ni 1.2258345246216036 7.551445907280072 4.085239607408054 -1.1761470273651744 -1.140969708133093 0.5116204756301704
Ni 5.037284777654879 6.808369078424833 11.045420903532195 -2.4097196438376693 -0.6941163495769788 0.1697943672197398
Ni 5.008697271637608 5.439757574626128 14.031080388099907 2.688430826065486 1.7089266535714636 -3.8384269060669056
Ni 3.9107273799753095 1.4446370814131821 6.519078061553605 -1.2806608282095493 0.5427395656324782 1.0630699103318209
Ni 6.586714381951319 3.733271404400648 0.9738725385676411 -0.7326276182782996 0.20931762212534274 0.6654956005164926
Ni 3.5183315136021527 5.599014632428976 8.82769719507399 1.667631394367102 1.1258611346264287 0.7871465752617863
Ni 6.3044847718356625 5.983250734943883 8.805069905458272 -0.5749637157735065 -2.298224783689771 0.3871669984390751
Ni 3.2457916230681674 6.27491507202064 3.9628270944433877 0.032684634717214674 -1.2855698354753924 0.5613764640073752
Ni 7.404334053553276 0.8221320965689373 3.9905967352406053 -0.59770049524939 1.8818202285418173 -1.5982933700929118
Ni 5.417592104978777 9.320197497780365 6.510369591352573 0.2577278951079303 -1.6202778447838029 -1.333616297360658
Ni 1.5127389994477158 1.119823703662286 0.8598908371727187 -0.6126429754918352 -0.28986745595495245 1.1805546695145668
Ni 6.8591409424317185 7.671670205793401 10.142935910135993 1.4663420418628748 2.6843967652054284 0.1904153859042011
P 3.093627137785626 8.878323618845439 7.833998508048451 1.192171942038521 1.1503220958822706 -0.9227573546212817
P 8.706779694399556 8.251003995557982 8.879393643434721 0.38209858277723224 -0.042541472906636416 0.06209111290378984
P 1.8164729872314676 0.015492218325315325 4.398305380687566 0.13039966747220122 1.09162072538632 1.6151994018196312
P 4.715285762901387 2.6594785908368666 13.444246037622106 0.5074280348153777 0.2500940327117564 0.17639850279981878
P 9.38107462489874 2.9368255644771586 13.562332175791095 1.3748148830861548 -2.5958682840457166 2.068890352122869
P 8.878512502268084 7.0916375473650355 5.596342876415667 1.163689518328112 2.7855758452496158 0.2145246202475789
P 4.907446312928935 6.039802431683695 6.840768251911072 0.12159415336542928 -0.24273502124352392 0.32016713537975827
P 4.181708982272476 2.698596347666576 10.115788640216387 -1.6210013532133891 -1.3688761490042167 0.30099570465763
Ni 6.835861060590763 4.541975778453776 6.851370278424117 -0.35231800908069 0.3612677620748101 0.7868604114799351
Ni 1.33277087435188 4.756632344118305 13.12077184333776 -0.2703047033316764 1.054362869476126 -0.4912745649839668
Ni 1.3671665456154733 5.28735698506528 8.40172918915997 1.9399945228897042 -0.5970880584763717 0.28428893342591044
Ni 1.6774075673093336 7.5373929806353095 8.520907073511848 -0.6615080766236542 0.46020895392741384 0.2516906877749149
Ni 8.373051019099831 2.990090689662954 5.5731206040186185 -2.264844408457112 0.8581344764345739 -0.4997157537727846
Ni 4.027041791639894 9.200105417662888 10.215393479896713 -0.27402817492985065 -0.8347564638302656 -3.1631438871463464
Ni 6.472647683016207 8.511275907791196 12.612851098006674 -0.5436942162362637 0.6801380330200157 -0.1110955678269506
Ni 0.9818821401048882 3.879042185826667 4.478738552969456 -0.5887304305402957 -0.09396790700772849 0.45900156388287405
Ni 7.129810887081522 7.14710316442464 7.145485377909688 1.1925066996701204 0.5748796407001325 -1.7212728338416419
Ni 4.5492477902255954 5.415023290430809 2.215981258884309 1.5108522084601075 0.5668220605029786 3.0282951827638556
Ni 8.272253380605505 5.284089301853528 5.054210621158066 -2.490165347989247 -1.0648946222453854 -4.256736905767688
Ni 0.14476308836621002 5.292607944214802 6.713242664695414 0.3616081761333643 0.007408376648929176 -1.489818270607944
Ni 7.751312900951524 3.160888524589391 10.490433242529399 0.975674000114655 -1.240856551728418 0.13488932781243865
Ni 0.3357941155263437 1.1853756954911165 3.3328810471640558 -0.44976873243069637 -0.08864006703691187 -0.17035383926763564
Ni 3.0255724406067537 6.907872865474041 13.364158522003654 -0.39194307967147984 -0.6900884593645082 -0.8194044068542274
Ni 5.3747816772363635 1.1823724490710665 11.334352097483285 1.2917376548490014 1.309828708022757 0.3693577381717962
Ni 7.929703849468277 9.131975167114957 5.732728984987586 0.7519972810541629 -1.4461018035565998 1.941904338317907
Ni 8.540958937659806 0.4374832837755513 13.29573739098485 1.8208688856694255 -1.7740640095007447 0.527179249300376
Ni 8.766211863334698 4.5848712037363795 1.192897033380827 -0.45465279999587505 1.010008254620151 0.35808679324366716
Ni 0.8470061544970131 9.695102759216626 10.01087617635975 -3.893365209975998 -2.710227353115287 -1.5817102689232503
Ni 3.205323349766548 4.322908784870495 0.6603090574694611 -2.427718651518251 -0.4232606588378388 -0.371046952948761
Ni 0.71577561894618 2.9509351561487147 11.532788299228201 -1.0414736722182838 -0.9119988305531971 0.6357417662928276
Ni 5.833154523139301 1.0129912398144643 0.591265555573044 -1.3737661301066664 -2.389396873119917 1.815046365450377
Ni 2.294735257538888 1.5030020590103834 10.55819139273472 4.358847239376893 1.7730386535600238 -0.4447316842274212
P 6.579631253602145 6.308885755583284 12.39858835427836 0.729253559599744 -0.21636424455947895 0.7599000808410075
P 2.3725646718396223 5.985385117619768 11.135640125941306 0.531652197470065 -0.7488736478235167 -0.29346597193948815
P 1.70390791150638 0.0036681160677593714 11.962432920964 -1.009361107954455 -2.720007829540819 0.5782524138271073
P 0.27322270410684585 2.5194781979726417 9.065817803916552 0.08425479348502263 0.7023922164325258 1.4512926037289198
P 2.9979010191893107 1.0984232118766457 2.713536081980656 -0.5202485836188138 1.4782969002319055 -1.6406224698784262
P 8.277664890664276 3.0406736702471946 3.1406789427835253 0.8673534239296805 0.2316952184895945 0.408532865709361
P 6.7553117250039465 5.969509465946484 2.396766304783083 0.34034386743794937 -1.3535518599423204 0.15778140191926374
P 8.651200747286362 4.836737803661906 8.535752366114604 -2.4753884467903884 -0.43345868241676316 0.4782989786599053
Ni 4.335611195043349 2.754675835849777 1.8378394800010318 0.47266414897163117 -1.126559446245034 1.0947009069735403
Ni 7.259781570203314 2.324493840776555 8.152371905504276 0.667120023493793 1.449502858818349 -1.0672579802712394
Ni 5.808656343222289 4.291639134251671 11.905830225700074 2.6145710026615423 -0.14936875237553632 0.6176021192693235
Ni 4.17592914953955 3.7330919651491357 4.305390791837316 -0.5428532083922071 1.2009504595620994 0.7394230439335782
Ni 3.7199645672753316 3.5348777014258252 7.653808444931009 2.6673886606832062 1.0077166303724967 1.0348507675851275
Ni 1.8646004833213277 2.37230023504792 7.530165356467811 -1.4293029868317062 -0.6876446258097061 0.4428717482005469
Ni 0.6756227809603773 7.340595342581834 10.581841486084057 -0.1222397573692282 0.3355356474160286 0.6515262828205941
Ni 8.365193468717813 7.41665869688084 3.0369828881687178 -1.5452741375834032 -1.3558897640468777 1.7023083769239975
Ni 5.761529929272444 5.815229486330322 4.676303057718869 -0.2326053890086897 0.8430392726643481 -0.12081150956313388
Ni 2.2119193208803356 3.616513116692849 9.957134120531776 1.500637472710635 1.468476314597058 -1.1488614521763438
Ni 2.247712729471499 6.934920971596758 1.894995603693307 0.767617246979607 0.5634899108059522 -0.2487480602068232
Ni 0.7079511231631248 5.441278086178417 2.865293523487398 0.07727681950529271 0.7085746910941539 -0.18242979659556324
Ni 4.907899633143283 1.070090698479946 4.499568616818709 0.4752982441603686 0.6886098179364527 -1.6039274284502374
Ni 5.703816599483368 3.853391817031522 9.627467383236025 0.9785613489647792 0.793368387801782 -1.5523500705935782
Ni 3.877550006787774 9.113256819930871 12.367073155210099 -0.04194729096606324 -0.6726167849423061 1.4714464529689757
Ni 4.153187585453132 8.863250721718394 2.696272137150934 0.673338236489363 -1.401795782550373 -0.8172187120568184
Ni 0.9260642554620503 3.081359159484855 1.9947524945288597 0.7272645541941732 0.6722763708837518 -0.14490326040501494
Ni 2.5626191717046827 2.212382085265815 4.566387071996372 -0.4741525605916996 -1.847447150378586 0.3137985128492531
Ni 6.357476016058623 3.437300525287592 4.220727575305298 1.3164899220930166 0.028968619318208173 -1.303006542894601
Ni 2.3932285182769486 6.605564947531257 6.376125420793445 0.6294268798183934 -0.8700001175239082 -0.11874999904841485
Ni 9.07395962384965 0.8619128342121298 8.00015831053185 -0.4038799403183818 -1.6235488022255908 -0.4581782966506303
Ni 4.951947247304019 7.724510343278245 8.33061269170003 -1.2431913705091815 0.59414543090828 0.1169682245576437
Ni 5.2555584608630515 1.4456759402377277 8.562927968547605 -1.9467529246594601 0.6819930839508835 0.7779155435818216
Ni 8.3112200306971 4.364113703520428 12.704328284010598 -1.8595184797208233 1.9497477456217258 -1.8210514339938766
P 7.723443151940303 0.8128853086133677 11.189561621020792 -0.8995559768041541 0.07410253554236916 0.9290827826186774
P 4.496993191350949 8.348467841642629 0.4120652415902589 0.3373567597851674 -0.31923922424885015 1.1984783438725228
P 0.7911674926776843 6.728244730538966 0.3219092951277344 -0.6118857856108365 -0.17315197083806308 -0.003528581978548762
P 2.8098959044599443 4.309941937905939 2.773041915450631 -2.0588990452381126 0.14761011781321673 0.49100202804887044
P 7.869006161601413 0.33152818342591395 1.9111404142438597 0.02210300254662645 -1.1268103859135754 -0.7066939291316733
P 6.155465195540155 8.380493025952031 4.417118169582974 -1.0531899322139473 0.32791875430071915 0.21868157983874598
P 2.375719024997788 4.09168714304003 6.1605773253740335 -0.9029655167063353 0.6662841578560589 -0.4389307612749279
P 6.026344487820263 2.6650600959760165 6.115861063897135 -0.67967883399541 -1.3878562896511453 1.0852834703143825
