# total energy = -340888.7910712904 ev
CRYSTAL
PRIMVEC
9.07981447219503 0.00000000000000 0.00000000000000

0.00000000000000 9.07981447219503 0.00000000000000

0.00000000000000 0.00000000000000 13.28922628176974

PRIMCOORD
 96 1
Ni 5.066518405169972 3.1845815456006554 10.06387767824897 0.08882184403041476 -1.5984226965819246 -1.5440572344571666
Ni 4.372820567265561 0.6887320872820304 6.6039879811651225 1.3573612063860816 0.16911456754389584 -1.3080178800662634
Ni 3.533128389889093 2.9685455160553715 3.138529633767313 -0.36124050838130045 -1.1253859947622231 0.8671816742385066
Ni 5.058791482917921 4.674424769905231 3.4303085689934183 0.7608984401985348 0.11070296037422225 -0.23312886561232757
Ni 5.020302148691785 4.527059378423704 11.878336079415744 0.8886002491235987 0.7208018292879651 0.5583060526121675
Ni 5.934793839008782 5.931370748892422 5.412289550125329 -1.216217155913183 -0.2662043080100577 0.7378675265210002
Ni 3.2270387588210876 2.6161034312896962 7.630328460048111 1.4780619014029641 0.27313137414719413 0.6947555258228745
Ni 5.689257491723297 8.321995143419286 13.083456292444941 -0.6968175505582257 -0.39721898335843847 -0.31923459626315986
Ni 2.5596633035355887 5.519909869017078 11.343179068842241 -0.6099116926036011 0.0423776936352625 1.5038804051279648
Ni 8.462650551887576 7.2815664241528895 9.802518845985315 -1.837215959568881 -0.34323378739123467 -1.1211531876277983
Ni 7.683030428118119 0.0012421186416927158 7.668149519917313 0.670423119725097 -0.19627364445719103 -0.5190201105283513
Ni 8.728226050066452 2.641917344289202 1.9971715110116757 0.03684339408059461 0.5141607255535209 -0.13323996513447373
Ni 1.3063129311427708 1.3093819084884737 3.331409412055952 -0.17050116347877733 -0.7512789148308997 -0.5744417818317655
Ni 1.7953154279775876 6.405791063427834 0.6992201811637501 1.356690405571302 0.0023988392494797397 -0.6870113631010814
Ni 7.709597965732102 4.2279793642518015 4.386667284579752 -1.4387312221241415 -1.6016329759891061 -0.15159069972751957
Ni 7.872317323756775 3.9877274690822895 13.102671904151185 -0.04014726164284699 0.16244075506814606 0.33740278253175443
Ni 4.750268461528471 0.4071170965552728 11.125169087595905 -0.5294222796982817 2.44333167546516 -0.010707873335807366
Ni 0.5224597977917561 9.30036332967421 0.5787310409937036 0.4576663900112182 -0.909081399796086 0.7163538208189405
Ni 2.9563331653749865 4.277110241226942 9.365807909599129 0.5395074318484258 0.6123064180880229 0.2694899207398649
Ni -0.12702206679795505 5.271894732336986 1.852890532560727 -0.7212420021491771 -1.2811807052687614 -1.1221284070568738
Ni 6.096005947804501 2.255271597803815 7.472638411348247 0.2954755461703492 -0.28867035032305766 0.748156567151834
Ni 3.6404245593984705 4.506584396427966 1.3609498077109123 0.13488290005453546 1.737442501622969 -1.4071917567549637
Ni 0.13332164218981474 0.3973917071026627 5.399200089351468 1.0422522022555214 0.2125764953822726 0.2973948746802491
Ni 6.958007229732422 0.994657373705192 1.0329224365099112 0.4853887956271511 0.01964579925538552 -0.9966590870067545
P 0.10062704566198484 5.976406629468415 12.7916782652003 -0.5832159284799697 -0.9865022010784107 -0.07503044667327723
P 4.105492664862658 6.103015564700602 12.849273345375629 -0.8742295822242234 1.8231561390417055 1.7284567531845911
P 2.2028629077464292 8.688120508835773 2.0368666446209756 0.2010479259173828 0.21880936366586187 -0.908335779879313
P 6.063282295869848 8.015124648292907 6.292860868939141 1.3646230301548177 -0.07326487013242221 0.9905498887852232
P 4.4739697022689 1.3322630413617604 13.38982558180362 0.38057777525733166 -1.0141554440193048 -2.0002334130761033
P 3.967797275964486 6.389392918201978 8.461967749827231 -0.3513898408394658 0.13476951440512275 0.6750107390957795
P 4.672100337359373 1.2109748775040754 4.456914178463669 0.3291246016833622 1.0154134847961223 -1.2598580325315851
P 0.024654420670966605 5.79995859171977 3.9133047684489974 1.1240814170181865 1.7212694914075322 1.4015877803046248
Ni 2.6283157819700813 1.9195091325175946 5.265590617037811 -0.20401960695119703 -1.0738993968471569 -0.4577270680458246
Ni 1.572778251155608 7.003097589196209 5.325883310140384 -0.05589218318192955 -0.9804040586004729 -2.5004055376600163
Ni 6.833858924265575 0.7133220412691079 9.97211616359392 -0.8953841048146515 1.5856759384392176 -2.1187473848543124
Ni 8.520561609612109 2.484763912634103 10.741748491267895 0.553076428782112 0.17388936322471987 0.7829914154428322
Ni 2.8666609160668193 4.755598312717606 5.2008052316551945 0.8008263867417241 -0.14539459821913667 -0.23191273381703933
Ni 1.9180563621764333 6.937241693668451 9.447191196129507 0.5752156838833126 -0.2763552804011305 -0.3855952830765811
Ni 1.3682826660079228 1.171232528858688 11.831996337458559 -0.405807753468714 1.0840683669603588 1.915670858542675
Ni 3.969567839817776 7.276409089441767 1.9459677123559906 -0.03180634587731942 -0.16263924423219733 0.16028154263329816
Ni 5.648098691995277 7.9904093928639055 8.509743010477775 -0.9532156711111389 0.022931411985192763 0.19572111438783069
Ni 6.781559191983777 0.9782955477378655 5.452635706443761 -0.7975135203184072 -0.32037462340487405 -0.239160159408072
Ni 8.104987573708353 7.43035734653168 5.371345942004094 -0.4760796024110833 0.01966431119814678 -0.3154864420746373
Ni 4.802777029546811 4.503815052965128 7.72263567156256 0.3133529406714023 0.5950147208871107 -0.11709266595064995
Ni 0.8072690673061416 7.717697160384075 7.2749081960830555 -0.8315441275405551 0.5167788799026584 1.6585294320658341
Ni 6.492821086678015 2.064622729970321 12.203615898709025 -0.6479776462373873 0.09339120856865206 -1.197932498671382
Ni 0.3584965051624647 7.606796304465692 2.2658795452386804 0.1356056371531729 -0.572079452247176 1.4499777415722384
Ni 7.361741187355716 6.192642414935609 7.391321407464681 -1.4047381530081486 0.6244911330796729 0.3108713119001291
Ni 2.0918984931256204 5.529915824741824 3.0408544358422747 -0.5340839468400093 1.0909455536961665 -0.08294070265928942
Ni 1.2421731205805095 1.2537771236805337 7.566659891865265 -0.15868874422488155 -0.06541657773259701 -0.7697854582755195
Ni 1.0211704324313815 3.581896074278944 4.205376073706261 -0.5511115917462573 -0.12190217152415135 0.04187684273944401
Ni 0.8358595876201914 7.5768964748816705 11.486130762431028 0.8069008750705781 -0.5442997110307465 2.011513099754981
Ni 2.1658717429346153 5.561731495213252 7.289685594397054 0.0972838587548389 -0.07198163254462442 1.4611918651205027
Ni 6.289278882066716 2.1840495318283932 3.1603239128291185 0.590520432561183 1.0862291220571034 0.767189158303253
Ni 3.902658685792676 7.35113596386524 6.2292585834031104 0.6626612163914909 -1.3773055107184924 0.06140000037403619
Ni 7.8682223273576275 7.472006456249842 0.4077708432087953 0.7797816502562828 0.4037321018866079 0.002945455781569121
P -0.09341222495519366 5.589352291324577 8.541664006798937 1.9106132415141095 1.0943738626514248 -0.13374904356040837
P 8.44653388091532 1.7999098141815093 8.716869017924425 -0.4751023260994786 -0.8251040283421661 -0.902965259596019
P 1.625804368607987 3.4897268759469062 11.109819660960076 -0.126030334759912 -0.13927845801906982 -3.0029019395017316
P 3.8372749406257958 6.329756695697316 4.079234748927635 0.8359240017758056 1.2994363090448395 0.3553693943125041
P 6.914496758014648 4.073804111796083 10.877790445921534 -0.7386846231056569 -0.910256908161426 0.23894495807347232
P 6.457881959973091 7.876484958672981 10.771383190264656 -0.204735402071299 -0.9115956815775075 0.392905186474433
P 2.3768139964712027 8.90682600388294 5.964962431105919 -2.2587753194448967 0.970738767596567 2.2108188461702762
P 6.7599764726029035 4.080868207579979 2.078514846357674 1.1024352995033206 0.7664517659165961 0.1434081639167272
Ni 2.5948385054209506 1.7024380041042337 1.2596245243037067 -0.07938718098007617 -0.34511146402992177 -1.2572313935420154
Ni 0.7668720640257684 3.5739239970318226 8.718250965711455 1.3392161600459385 -0.19067223911001355 -0.4725533344253797
Ni 0.6160763185761755 0.1857021848218404 9.696497482450305 -0.4021506163321009 -0.06630257988197613 -0.7006934885738643
Ni 2.321136573146205 1.8567222143355395 9.862001619622692 1.8253886279166498 -0.09944204274842229 -1.1580803996714506
Ni 5.352532566086057 3.165477615614387 0.7331133132230379 0.5111543346270294 -0.08128902598847935 0.2522712428687333
Ni 4.262028669122763 7.31206552150264 10.81735065982192 -0.22627481880497158 -2.032069583750094 -0.6358667219064662
Ni 7.016145282822762 6.000141264917135 11.92490100077581 -0.05453875447782865 1.284179125775453 0.28166435131886974
Ni 7.540168624694192 3.916096811448416 8.670569227151622 -1.366969161789491 -0.2944028819314607 -0.18562130694966741
Ni 3.1062953838413385 8.396694778398862 12.983601031026698 -0.06539600890730674 0.26475266316519563 0.21356148500336122
Ni 8.89383278914418 4.928096631101218 10.699155988809443 1.3828524086786507 0.6206205943806731 0.6492043195556367
Ni 8.42669448594384 2.624311583717256 6.653091618696367 0.28380556603158863 0.8111658209945192 -1.2464397022431501
Ni 3.4770968537934372 2.9167179341344505 12.02340155385092 0.1085226648934518 -1.500367763989016 0.7425610753419276
Ni 1.388176539867197 3.7204449657525487 13.127310889137279 -1.1990915519764898 0.48021547895632777 0.878271613504081
Ni 3.105151327197674 8.735553460474684 8.168302937102006 -0.7996534494795454 -0.6219552540316966 1.9584396169687692
Ni 5.559652217662465 8.17137009848478 4.171727188660581 -0.0625276862205762 0.11845303663328632 -0.884144270234774
Ni 3.1006749785839713 8.485976595677844 4.053864838863647 0.5133482569545547 0.41817553100544763 -1.2940989559923262
Ni 4.692239366213719 3.2688059061294683 5.518032163351126 0.9573695453785125 -0.6203953657437444 -0.16571325517183072
Ni 6.153608291831537 5.747595300735546 9.597931554709843 -0.8308671560781884 0.618822879050302 0.1311738266340644
Ni 7.9574859850073425 0.1795224629831265 2.9154839873259273 -0.06636402924753088 -0.13148493011658002 1.608236854458869
Ni 4.887982010055908 0.6747074056010467 2.092694792868869 -1.3248658048615376 -1.1967515909894035 0.8117648880310986
Ni 5.86417104079909 5.910913926525947 1.0788181755315793 0.13303144866809347 -0.5846840283850641 -0.7488733907132006
Ni 8.10903717103434 9.115589101907787 11.711436374734381 0.17825741038542847 -0.0380330435133216 1.6287349744122208
Ni 0.04768900241153862 5.3011771345260135 6.130492899740737 0.40868456079587684 -1.2426486106318342 0.08232595189342595
Ni 7.033705644321547 6.3095359485112805 3.4563422135070248 0.23482142282340204 0.6158771661584167 -2.5258208924093277
P 8.34200705486878 2.0641324199801794 4.247050606905393 0.4844904521825979 -0.6233665325569264 -0.20707047796237887
P 1.7849825989260795 3.7188015193041104 1.9058739748843347 -0.9763800250427442 -1.0081778862796313 1.849846503848698
P 4.61241871578155 1.293265237516218 8.747939235614544 0.4616796249356694 -0.4639691923007945 1.6558346588424901
P 8.588124510290731 1.8791765959211104 13.09760899951224 -0.5746310150244361 0.410964357968989 -0.598258167525073
P 6.386678053626935 7.910316347992769 1.907641814793235 -0.4313886872616119 0.4845940676399976 0.9919164301154467
P 1.7154766179161542 3.4062198207740413 6.496810757227428 -2.36842361330236 1.1200802662785936 -0.05230215183782606
P 6.5862069801707745 4.097847460942298 6.4041448930350064 0.5935093399861779 0.42696150472819366 0.430907119639503
P 2.548249976542842 8.808863883815524 10.799635941474385 0.4377246567819687 -0.5646062837985825 -0.8945047875334917
