# total energy = -340895.1578726538 ev
CRYSTAL
PRIMVEC
9.03747218884035 0.00000000000000 0.00000000000000

0.00000000000000 9.03747218884035 0.00000000000000

0.00000000000000 0.00000000000000 13.22725407006006

PRIMCOORD
 96 1
Ni 6.278883076378077 1.7964777193963257 11.531493427393325 0.33958667755695066 1.5738673758400636 -0.7634471747623175
Ni 4.446047607170998 0.46772261406433013 6.099496487378919 0.578949439894132 -0.7229129620936969 -1.0867207169815414
Ni 2.648187154560393 1.4982321062954853 4.748755923939885 -0.2379103461613709 0.03341534223565213 0.42634238308695604
Ni 3.6379891617126074 4.305795079377538 4.810805399120265 -0.5015039560214589 0.15402656286252184 -0.10234121867308826
Ni 5.074459184436954 4.660895428759625 2.5823301924311504 0.013275119842351331 -0.12825845275948233 0.6403216723540263
Ni 7.212670832144 6.331472125880631 2.6800794894615034 -0.08147054587166615 -1.7979539287444646 -1.1830226714390852
Ni 4.841391819319002 4.470954879972002 11.26704072955283 1.0297656397527362 0.46982282286809407 0.34059609265807145
Ni 5.566811620912233 7.865763745411241 12.185806399379048 0.4371068206923117 0.16698955078109304 1.0941524906692381
Ni 1.8625777895220657 6.586446323099322 0.3107995654404172 -0.36265975732633027 -1.0832813522826892 -0.9339948752083139
Ni 2.5482146394208067 1.608850763437823 0.5020433176888188 1.1188181117367184 -0.6753730075312045 -0.44894058010244614
Ni 0.5606205961311208 0.11886173534327935 4.665940145623747 0.5541182397830651 -1.312565904448262 0.9979708638396425
Ni 8.406159382978732 2.274099076529937 1.261485586330911 0.7556508186463502 0.44402668774059656 0.20518225980073052
Ni 6.77635072199899 0.8685941440806548 4.916477847843158 0.6277050120312803 -0.36933819778777033 0.13170553076781835
Ni 0.7543758618451969 7.290998601870523 2.374172811355798 -0.2972971727601203 -0.07256321607970728 0.7931169339126083
Ni 7.682529000839272 3.737247716565083 3.608487238152522 0.9505077852616727 1.0787672664624197 0.6200356684114805
Ni 7.752262134704491 3.8478392612914543 12.543749033701598 -0.5200500944547624 -0.5789131873395579 0.3999119568095693
Ni 8.136716193106047 8.808471486030063 6.829032857463028 -0.3862036060845413 0.2546158318415099 0.20082989636930576
Ni 6.511869104248131 0.7749162281812348 0.48762764611955883 1.5821306442901204 -0.4324922047384358 -1.045355266660877
Ni 1.9172996824139654 6.457327960796007 9.291246009691662 0.13496414691443206 0.5159489278021953 -0.5385512385827435
Ni 0.30795276176395997 4.7860373033878885 1.3749465284137112 -1.3432363369489253 0.5991559967489939 0.1036815347510666
Ni 6.628524792678956 1.8437165854815378 7.110865517685094 -0.30596770395092465 1.0697786898105641 -0.514864693599081
Ni 3.252812105551951 4.42595730694 0.34322511118886434 0.6508644808668791 -0.5219318848585075 0.15563093123516422
Ni 6.176497556217494 5.604226754945671 4.833582539773519 -0.5634328323157716 0.40966749353443643 0.31406333647486556
Ni 5.209569390668813 2.86202277928628 9.321880328491938 0.6056693723874795 -0.1382052795595491 0.09655237990545308
P 0.05570336234987847 5.621759450603852 12.46496758288124 0.44450105627385383 -0.3151383147065992 -0.1588725781009135
P 4.043627054455801 6.199326210461083 12.485456435626942 -0.38612030234211564 -0.09707637072972314 -0.13394136207687254
P 2.3734118562143443 8.326457917509918 1.3631878736091447 0.3953600757728288 1.7555086150960608 -0.01946376515156648
P 6.342841265642482 7.94209423382825 5.838324391870342 -0.017614370647653536 -0.6503613159782153 0.4835579130659995
P 4.53474135726862 1.338738800637971 12.698507607784205 -0.03293454594449167 -1.3929696996183107 0.025564992953297904
P 3.9651727601214355 5.994293083452243 8.166731445075094 0.5708103557267653 2.6176257303274664 -0.27158691247820965
P 4.583616005783798 1.135242043867218 3.797425531296593 1.0460111550773212 -0.09482357013980444 0.3767787132262156
P 0.08783067152269679 5.538894869938975 3.510076398172592 0.9075405376715274 -0.22770332372138202 1.307824790218851
Ni 1.2900177891466031 0.9078592486301904 2.4525710733638326 0.4113050291378594 0.5093774452322647 0.22373482599193728
Ni 1.99670291130715 6.345706144262917 4.630121029143523 -0.5676882651580158 0.7390525479680369 0.7656588377016555
Ni 6.0825530348944055 5.513743585394275 9.17915876335115 -1.061099159758695 0.3515693038401235 0.056271163787903096
Ni 8.578829322795848 2.202775347594698 10.254957738959545 0.5189368067859256 1.2313293289642728 -0.04327192331475773
Ni 2.3868144271736655 5.161914800872118 6.803411624374913 -0.22376259390607917 1.1609785471548522 1.0944903336246312
Ni 0.5328068723385343 0.042251989041818386 9.216207879769046 0.4744796049138151 -0.5556246491252624 0.6046118776572427
Ni 1.5352857414493728 1.05354329708889 11.587920691249503 -0.9258745600940248 0.8922527582745214 -1.008878511891082
Ni 4.016839987481137 6.782902889190836 1.5442689886061933 0.3795408493523851 0.42766161611901193 0.153740913301303
Ni 5.6061517364792754 7.726369777456713 8.049630209275223 -0.07788874205767875 0.6108298335424964 -0.15562733169073842
Ni 5.605808312543703 3.058416083073873 4.879084403742493 -0.41567179074698735 -0.6226749058065405 -0.06642136484802755
Ni 0.9681030369072183 7.423487941225643 7.213906254564863 0.07547241930670227 -0.3104334530317621 -0.7638927469401683
Ni 5.01918600575374 4.431190003221488 7.080112808001766 0.6641154323395143 0.9901053450486367 -0.07842018908111656
Ni 8.12988386428255 7.171315360323466 9.231789385224854 0.4737437551890551 -0.12931337638655796 0.18273112988606593
Ni 4.75761445398326 0.35285182635128415 10.284176789646382 -1.2530813759293837 -0.03199943572473198 0.11087136763128648
Ni 8.130733386649494 7.244247759272704 4.633097068669419 0.3092031801690869 0.13168110528778612 0.8512755445312113
Ni 7.304184273502114 6.21109299899044 7.119330917696959 0.29548145970762013 -0.35813770108626064 -0.9054625720965761
Ni 2.4405512356187913 5.053374762287194 2.640490843414771 0.21479972828583652 0.8188613898665639 -0.26336426745810126
Ni 2.3695347807311693 5.271593560927625 11.32276758932988 -0.23274705679287658 -0.21820078354758551 0.5345824837429826
Ni 1.1431227194414104 3.303114674641351 3.7902958696446656 -0.5787905457187645 0.17681090774688907 -0.056318986306703005
Ni 3.483050741937425 2.744589868264422 2.767471843592746 0.7290905516593186 -0.11439943538920298 -0.030525165172050655
Ni 1.3168952308411548 3.3920705114266476 8.303488278703302 -1.3620575834204864 -0.3235648482073976 -0.9293488917958703
Ni 3.6506325850248733 2.672163567746555 6.93847483575243 -0.5121709488170018 -0.43925343472166933 0.18045390381611504
Ni 4.158547548264785 6.995274443454544 6.160474118381434 0.27109917420851376 -0.6816020191600519 -1.0589337766762603
Ni 0.7598191312240229 7.303931224286428 11.313918096758494 -0.39309673365994885 0.5897174770439134 0.03831329375790176
P 0.2681905962550431 5.557765111451491 8.155025207608062 -0.08699404679305663 -0.019850459067023877 -1.316765030131274
P 8.750017117206808 1.646582208990867 8.064511310651904 -1.3473449598006604 0.31092967594189036 -0.6673036002595089
P 1.6691126266588283 3.282997261994387 10.456673210001314 -0.02944915849905251 -0.6242023981946605 -0.6620670344509177
P 4.182261874763273 6.230198214774664 3.8725829558494613 -0.3105445246883297 0.2521064351560948 -0.4080309863722779
P 6.954000308881909 3.880139186179258 10.464755421200858 -1.1999783254568175 -0.17638307618085108 0.00955319090607387
P 6.304630834074034 7.800142661300905 10.129814960584083 -0.02100334172454447 -0.5850401261729021 0.29407043829270646
P 2.421780406298151 8.377854020709957 5.755376666463169 -0.3495993245979463 0.08126177229496973 0.16398958761250465
P 6.9253334477335855 3.9959634271871174 1.5693741820437506 0.09884169016026202 -0.03549845001692596 -0.45940188464508624
Ni 5.162050362951949 2.8386789891393307 0.9337253972092006 -0.36690619130751 0.2864481458607583 -0.7131409703085976
Ni 1.4739845689496607 0.9458347059269309 7.019267124090286 0.4509864068878814 0.5655740470284905 -0.33528882151254513
Ni 6.894072832124487 0.784381172595056 9.190269431414125 0.1273747646029484 -0.7302118097479554 -0.11540062296020771
Ni 2.7422310880753575 1.4556656132284582 9.200970701996008 -0.3110158078977934 0.8596252020474873 0.4235095416238513
Ni 6.495375717868657 1.9294460447668496 2.7933443184021485 -1.1819497500898806 -0.5852368155647405 -0.7485846558281881
Ni 4.176505005106437 6.846418242327792 10.25830431483698 0.09692364720194276 0.5393889039926905 0.12905883717359065
Ni 8.063901281292663 7.225413667648142 0.3393399019808994 -0.09773277336679942 -0.35680201299397263 -0.5161173350592596
Ni 7.636555380832485 3.9340025192322257 8.344916050299748 1.0595528983174978 -0.9305992192632038 -0.30279470553958177
Ni 3.1767437038226167 8.391636165492805 12.382600966922944 0.31120478398014795 0.07926479646959897 0.7873316946893988
Ni 0.08690252314945185 4.823009601293878 10.19760413422452 -0.3517387395384523 0.04157705211083807 1.0214733178369568
Ni 8.835294702892682 2.389787755457965 5.712057351979479 -0.3204319590053707 -0.20451454430974458 0.4177016766928226
Ni 3.4167247350119663 2.6554894319273057 11.374869519092242 0.8609704032214722 -0.2581652397556651 0.36709285339701936
Ni 1.1349347698196002 3.39205243648267 12.627807464416188 -0.36369899722412197 0.11229267345884532 -0.0637103936747677
Ni 3.1968430415256037 8.41014490812577 8.087023653375889 -0.07908584768957348 -0.6673154273340507 0.15009920278365763
Ni 5.794040779125452 8.145419278631216 3.5701412445042426 -0.9711560576396435 -0.6797937623067196 0.5057221078678644
Ni 3.0923337154476633 8.318170555696232 3.4811357016230082 0.35205215701381304 -0.2070905325670369 0.5086050858426144
Ni 3.359445237547249 4.331181338193946 9.112413417725413 -0.27925599898769327 -1.4561123937150664 1.2932258093587534
Ni 7.003417205716412 5.917492646491819 11.419709840111638 0.8751430951774284 0.6416861568017207 -0.0686638810253011
Ni 0.4589056563921026 0.06183167210545193 0.2281527878504692 0.17965480495358735 -0.6080427577156624 0.6501008632279771
Ni 4.6782112250900765 0.33942123922879824 1.7141065847020345 -1.871901940986841 -0.1744712038701189 0.035978474977138034
Ni 5.919354365721502 5.589197439028374 0.362673750908661 0.09056453775313436 0.14263143365170272 0.08456075476121566
Ni 7.829207171216735 8.919560091715816 11.308428736272525 0.5184434120892749 -1.0971437120870782 0.14984569201195483
Ni 0.06752166446957088 4.895237077427993 5.84264972596416 -0.36517275355617107 0.05372242922412038 -0.23935916279275551
Ni 7.876039351062453 8.729953929391776 2.316964709919792 0.2977707699624291 0.7861489872352074 0.4087120715997026
P 8.535838068545349 1.4659592938236479 3.517642569721576 -1.226058824593953 1.6282971155438537 0.16403612457972394
P 1.7380052756290931 3.2270824227999717 1.6311317468788946 0.07649906079900373 -0.7932999964576919 -0.5446817769605136
P 4.657578676539752 1.1522144162620962 8.087817143416501 0.9961178697913038 -0.7350948488718695 1.3921875700366475
P 8.439281717817511 1.6207531140470106 12.358448323033 -0.158791588351333 0.33350884679398696 1.1645426103570267
P 6.164477718472452 7.698001152884017 1.2949124839757118 -0.33627355402331766 0.3420605930187399 -0.09580290333393823
P 1.9118771992207135 3.3226898389689903 5.941563049386664 -1.4027815435024098 -0.9854472774513352 -1.0255377177143175
P 6.943308979519214 3.9980330082725417 6.2812527015335275 1.2379152097119068 0.13026494166654984 -1.303412005863136
P 2.394442053532173 8.55983255667549 10.361714684321088 0.47857820046322086 -0.6528509151692885 -1.48432022360785
