# total energy = -340874.6794779621 ev
CRYSTAL
PRIMVEC
9.22654119800658 0.00000000000000 0.00000000000000

0.00000000000000 9.22654119800658 0.00000000000000

0.00000000000000 0.00000000000000 13.50397567635695

PRIMCOORD
 96 1
Ni 3.873135911448184 0.932065190442886 3.7712684381941477 -0.7865804183456712 0.060796819572398526 -1.3041409136093605
Ni 3.5870208693215373 7.13297440383154 8.59067564554676 -2.3704545276894593 -0.5638933168919579 -2.37777445838964
Ni 3.4442493710349287 8.12770626199852 6.214502676515554 -0.024365059107925777 -0.23736990027686858 -1.7752462027343041
Ni 5.269489880828672 5.145051519875364 2.9026523261677895 0.44559248956581965 0.9598036087413019 0.3558098242840324
Ni 6.272691703802884 9.263078287438525 0.09238904749535533 1.0975640874539485 -0.9604227303825396 -0.13933270829577293
Ni 5.663675399847593 5.983707207367905 12.411355902399569 -1.2648811967777893 0.10577904071004363 2.733086774211964
Ni 7.1840525358280924 5.347435700754047 6.847460932190112 -0.6101893717450201 -0.4797717065506899 0.3713801679184636
Ni 6.345489113747394 2.960418777868877 7.57307026912966 -0.9242043714804534 0.877707770580811 0.6065777431343617
Ni 5.579769234317127 9.300722575470667 7.176836457967814 -0.35589621335025157 -0.17028467659259708 -0.41720622511364275
Ni 9.164612639919158 5.781775127007254 12.753235236790298 -0.5217917597362175 0.1040026655359112 -1.6978518838145404
Ni 2.9091192088838995 1.510901478184174 5.912648077782527 0.10700931357271892 -0.029472812648136337 -0.3604648065575405
Ni 0.3709540109708501 1.5456024995785085 9.29509715331057 -0.41817013168880884 0.3594332799692326 0.6661679439931688
Ni 2.3249499803380584 6.744583152676389 11.144034188828076 0.014977447245438725 -2.333507775261781 0.22481777464347089
Ni 0.8163560601040899 0.5089480062322033 7.1067913252585955 0.5853556005307918 1.326672261942657 -0.03544445685053895
Ni 4.6839828038111 6.417677571973737 10.237580031404706 1.302898299451511 -1.4668742602172606 2.1165984568321097
Ni 7.538453209260103 4.1311561356684905 12.825455065256667 -0.43232996812895863 -0.6347436640456166 -0.05847717030028639
Ni 7.509371151447036 3.2648392777052715 5.506772531083036 1.3151058972612961 -1.005180237103888 0.3656039275563187
Ni 6.0328754453392985 1.480619970017142 11.765258129424378 0.8353930689729999 0.41148217814567195 -0.34282935286396443
Ni 6.063645960189101 7.165571773835842 8.360378409623065 0.5258687580190685 0.9297073035765537 -0.4632348852379312
Ni 8.5515089782192 7.616906488950619 0.9149877853647753 0.4511090485086747 0.32317635451972726 1.168708311698942
Ni 1.6218967686318864 9.08231189255477 12.393206373235834 -1.09375191279671 -0.679496542781275 0.5751233812798224
Ni 2.1446080063487822 7.803015051180112 3.388593029302701 -0.7595182720215565 -0.07459798712154894 -0.2230948784150932
Ni 6.066958288474281 7.26488626314417 1.5060040301235216 -1.6099882899323366 -1.6068924246158325 -2.1800885069659555
Ni 9.551684495684945 4.9237990622746866 7.095609679997283 0.8050694782887942 -0.9098079935494653 -0.6335820396373476
P 5.7945815661711295 4.387045028875211 1.0083714539998034 -0.1659603381856303 1.1234530394055682 -0.9829821037402944
P 7.743614579035277 7.71765109214252 12.47185341029122 -0.84079572804581 0.376249580195623 -1.1550552396918816
P 7.683439077430955 2.5329438982568266 11.028359196691662 0.7647437820865539 0.26774439880366796 -0.945435770055404
P 2.357667295377758 5.756946504680172 7.316183986820911 0.8029030667650946 -0.7652132655238048 -0.5470574762815418
P 4.12740093340646 2.173201057479078 8.093729524087157 0.41651716946641815 0.053430609015314434 -0.017982809730665805
P 4.3975171531194475 1.550243449794236 1.4192274876306055 0.2794303197820284 2.720302477963102 -0.6335992660285282
P 7.603038997550542 7.591284384081683 6.7377139927646414 0.0864343176348447 0.18962734278526697 0.7673285120945945
P 0.24715966259220934 3.8072215012271986 0.3097580539115402 -0.4446144419232665 -0.8736544264470438 -0.4091841261401146
Ni 7.456198594601636 0.9437367650410868 4.357841180718512 -0.5506804177461097 -0.1433341161456822 -0.3297974593806707
Ni 3.426894247067169 5.971832648863648 5.337203466580606 -0.16638971241356507 -0.5281130739685549 0.016655092058177768
Ni 3.247087412466585 0.11404281700090282 8.05776815716704 -1.1695374924684565 2.3513481458773113 1.3734015476783958
Ni 3.1450695465912437 3.602881293617432 1.6510637106238488 0.6249999543952913 -0.8060164155830959 1.2709929661024821
Ni 0.9701246728283236 7.460110648063799 7.111557756434429 -0.08250952865914177 -0.988292460209614 0.3920724061604925
Ni 1.0100294634506308 6.054760801028572 4.885913961517633 -0.5099387170523734 0.12750511953322557 -0.10933153394799236
Ni 4.430815740253761 7.620846222036335 3.6536761707996264 0.6522942713348702 -1.0565953583510708 -0.9035697259492373
Ni 8.888923589330826 1.345727937901967 -0.12905993543254846 -0.6989330542393318 0.020922094864647838 1.2000325757335204
Ni 6.0294616251010895 0.41817729406058257 2.4608569319835114 -3.1847074722497344 0.8057027409974188 0.01824891890785889
Ni 0.49439036955153814 3.083897578539013 11.690418885915772 -1.2055689321707175 0.4017089008089921 -0.09718744238629069
Ni 5.376693062849617 1.93560839544092 5.5274612043807 -0.0937917864411804 -0.046099108350907705 5.167917354184647e-05
Ni 6.694990493810516 2.8285345981797994 3.116447893183276 -0.17403951564933898 1.4597939563317117 0.2897347870318301
Ni 3.905899359193806 8.851694495651978 1.195082509368635 -0.8905614866150275 -2.9921336452416343 0.6821188108954704
Ni 4.010832812083401 4.377495558749411 9.024167152665123 0.750143772785192 1.0303279400141094 -0.4149644802673175
Ni 6.010141247861063 4.027680476286021 11.085048911036534 -0.29514464519349165 -0.03300190884731735 -1.704340833972994
Ni 1.7236839709776193 3.736417024178508 5.252168895063294 -0.9308231623485518 0.36818402957866914 1.012831840111875
Ni 7.2360164157783435 6.166217418535503 10.912927785242514 1.7007646865859611 0.36446287197334004 -1.0675037777334582
Ni 8.335589461423076 8.6193609620889 8.720867677582627 -0.7417465498604322 0.0505741134031258 -0.6169012365475569
Ni 7.763137940181358 0.8725549224579566 6.674839727863899 -0.16958199409861763 0.9610163981024805 0.7425117101612309
Ni 0.5054751361304144 1.7800304579904356 4.531421022673778 0.36319840343861964 1.8628156624148564 2.261296286094538
Ni 1.08694191076336 5.071885048283479 1.760729456486897 0.7852462729152798 1.4828678074320396 1.4410115335178861
Ni 8.838777337993891 8.39259103285998 5.157087542850346 -0.3179235907612202 -1.2689461108757825 -0.04777289650890482
Ni -0.42203491092975876 4.192014401320453 3.965955838416849 1.453098546589407 0.17466017995247338 -0.810897654934797
Ni 6.544653231752741 2.405082490524125 0.7314128313445037 -0.9908231970512678 -0.612690540900319 -0.8865184268939055
P 2.3229385943598704 2.5332945068218313 3.4535469565863965 -1.7137096767824032 -1.0846278390082544 -0.15799120393722468
P 2.1605514695153363 1.7061350896449883 11.463322337128929 1.0706348671632724 0.15027275224704442 -1.711463561060704
P 8.98144734432747 2.7682206984577133 7.3756416635210895 -1.2318119250276462 -0.4416869838638264 -0.35650093681378603
P 3.764059741566816 4.606313780121254 11.223559592604213 -0.27683993334703294 0.06641982218613077 0.7670811719704789
P 3.028667503009503 5.765010501675292 3.0544639895068233 0.4052493098620827 -0.3493396431786564 -0.7593406087931116
P 1.6357919396555152 8.912451269350914 1.0632933630537564 -0.7744000742293954 0.010603743657775286 0.8530010118627502
P 9.190299330576384 6.827363680182364 3.1040105156667743 -0.9975872552479788 -0.5185799376671392 -0.1855187199335321
P 1.6477310839480621 9.04174279096719 5.222676256167524 1.1193652424894398 0.030338503082541296 -0.3663670309745884
Ni 0.4100994572536855 0.1585248947047654 3.1475607127110177 -0.7080581564690516 -1.5334619754398235 -3.1055902571015936
Ni 1.8572104749975107 2.7130275290929404 7.643223352370735 0.2600814829417714 0.6691833337807249 0.523360389774918
Ni 8.331299119772353 0.43971480914720734 11.199954409638174 -0.8135021824371796 -0.12811267121023742 0.14045782303915166
Ni 1.6997318700630504 6.829836393219768 0.06439572154204196 1.432443846453533 1.3920271331993832 1.1078073624485114
Ni 4.28708468168398 2.4363235589743293 10.382869452780522 -0.8305851060613954 -1.7006734124237357 -0.1867986150872202
Ni 2.254994345078328 4.280450798572433 13.107768772415362 0.17764677338462306 1.714072716548777 -1.6861171118761156
Ni 0.1629933086003454 7.642380969160605 10.69976700426051 -0.17516514461334992 -0.2526723349618939 0.8695293485350767
Ni 4.486073495406824 3.1243559616323813 12.799041323154116 0.030423349486863732 0.6863603597806438 1.177135873641005
Ni 7.282287519817851 5.880637515797547 4.416529363883916 0.5960007389494638 -0.33400584103506353 -0.582506304007455
Ni 3.6998061087590135 3.904293941027729 4.14220953200734 2.0922328835035513 -0.17251870812943837 0.529712557245191
Ni 8.36493908893049 6.158485577023019 8.765592413319638 0.19772297530920788 1.3245071359705383 -0.09506499672664918
Ni 7.205024463940116 7.933570608938643 3.111383444727187 2.7458250477142387 -0.6471304677457436 2.782505690964724
Ni 3.9215014403365394 5.698422553947849 0.7001348567295623 0.276098427195318 0.49183917923818526 0.5527393571576673
Ni 2.019505334430201 2.0227253973035384 0.0240600514464256 0.04451273770039431 -0.7977649742075809 1.4260700817167054
Ni 3.7360940952370556 3.898730336693567 6.815159734157826 0.6421854650356423 0.1903426236847367 -2.241923795105197
Ni 5.4723722949313105 8.288414156347502 11.459568057521018 0.7794474068453158 0.17294114037883762 0.33164531122268687
Ni 4.060065635843085 0.70367323527376 12.602112796077735 -1.171917305554543 0.16093254595373574 0.23567502907294896
Ni 2.1510481320954575 3.5999933862267315 10.05414163019396 -1.6188035742311215 -0.12720172936019383 0.6037346172586118
Ni 7.845447914086931 4.982184614889244 1.6438522460341622 -0.35446179489657015 0.3739600128304979 0.60931339689797
Ni 6.688181306416467 1.2474283681239178 9.074225751860807 -0.07417889730625934 -0.5942202500102733 1.5455808701905447
Ni 5.70712318228469 6.819521120175668 5.770897034950907 -0.989773929851147 1.4517422896718288 0.003824773062728897
Ni 8.41030599193393 3.889614514003431 9.247144050813155 -0.4133979071111461 -1.0515385126534533 0.4677278880122784
Ni 0.1340967042650843 2.6633887375211454 2.16678030746889 1.1243202725018702 0.10550753221621183 0.10371573042311169
Ni 3.1065118309818516 8.772669170408033 10.655028428711722 0.599182222001239 1.3640067367270574 -1.8443230029273074
P 5.603029344642869 4.183812006207567 5.46091293078035 -0.24455999026740466 1.3335530482228903 -0.49785787462843933
P 5.46430829793619 -0.18689189557604488 4.750779271369309 1.4907436106356908 0.3316748789090416 1.4399332128520426
P 6.054382512840014 5.141785324296104 8.864346851578075 1.4912352055601286 -1.2071715007711468 0.6413717108850955
P 1.2317893808164473 8.669470307261095 9.142542753406197 1.0325131205908862 0.5336753985476809 -0.3488447058201089
P 4.960889757835767 8.81068252008755 9.340956753613256 0.8675938220752607 0.1770551625472112 0.36504034174336486
P 7.815009554719765 1.2394381834582722 2.0123492290876204 1.8673600872524294 -0.8933413633530098 -0.019923992617436655
P 3.692443328893903 7.488611433782252 12.783160600467616 0.8748353341290225 0.21887132725204886 -0.3915764403606804
P 0.48083473524349335 5.535933937150288 10.405002079773537 -0.19842488647223894 -1.5006906945460736 0.497433385496511
