# total energy = -340856.2446492189 ev
CRYSTAL
PRIMVEC
9.43268118107426 0.00000000000000 0.00000000000000

0.00000000000000 9.43268118107426 0.00000000000000

0.00000000000000 0.00000000000000 13.80568237852381

PRIMCOORD
 96 1
Ni 5.780224357826634 4.95749647894866 11.898358480771867 0.16034993397738836 -3.648373531487813 1.4920204204655854
Ni 9.19590194634754 2.3645562019868356 1.2516705628289129 0.6581394172617375 0.43872918678708306 0.3369009031946714
Ni 0.6781173313549868 6.5184259813002265 1.5185145084835447 -0.8066571344908883 -1.7570391928079738 -0.17447917428991888
Ni 2.132898986667542 7.635453510732456 2.938774437478841 0.5064780121972825 -0.9671155690216827 0.8302230947362863
Ni 6.191583580925067 1.20360067663694 9.078354704190104 -2.801554737176375 0.9311458357952932 0.7966110631087958
Ni 7.419416815327195 6.840561473802739 6.269036268766928 0.40574990364758506 -0.8177406459985594 -0.7053626119147594
Ni 5.854006789449563 8.562374785123966 6.9039453177727514 -0.02536804645114341 -1.087459652030095 1.7745584326386599
Ni 0.5120361150950897 8.777515375824013 11.584265292181616 1.6348089485204427 1.5549941930846445 1.0150579012289163
Ni 4.323790096784044 7.124636098036457 4.024328883127759 0.6778348388081359 -0.36668661909753625 -1.1184920958558673
Ni 3.640090504749634 0.027151972567962385 8.084745317636623 -0.03193104438064179 -1.4688108151183414 1.261437718313879
Ni 1.3551744293534895 1.5841904939626816 9.049086037981617 -0.09491124475760428 0.9335611301050052 0.021222142603569902
Ni 3.596549248757376 8.436090050456645 10.968531940599245 1.4884751263164882 -0.5880326331423228 -2.4765924944008186
Ni 6.970562684826417 2.7345342530666303 13.61298220255295 0.10059081164088482 0.04088773935329732 -0.7377063183527875
Ni 2.371479789919747 2.983906043505825 3.879935287270245 -0.260818361107796 0.44205825116031605 0.06895055902778448
Ni 3.4243933858642435 8.024938346342578 5.840286954778693 -1.4516849540713321 0.6629658921161034 1.2678086548372294
Ni 4.503548700649827 2.0699924363615696 2.6763280077565295 0.11540705071811092 -2.6266559588505345 1.7497004930547158
Ni 2.2814731467919036 6.3074357702874835 12.043027510917721 -0.6159386155239714 1.2040614943872554 0.9921036064255881
Ni 4.763004027192949 0.8707779564396204 13.110993779373578 -0.0009682774505402679 -0.2050436773403372 -1.9842051559686473
Ni 8.293298123851187 4.526413519654428 12.281424376888328 0.15145880213534563 0.7285279942876292 0.41353597535090714
Ni 3.8350545905607207 2.9076805474760508 7.81683264921251 1.1341061482440404 -0.7804429379893656 -0.5420679934867503
Ni 2.2454686030045448 1.5304996730987448 11.099989557585921 1.0621779946451706 -0.3344984644007658 1.5763302355582594
Ni 2.5253551168265282 0.338897366830555 3.549082110888173 0.956408981237456 -0.07598766838022397 2.6030822852956526
Ni 5.297478604106579 8.836724315135841 2.9718529635866506 0.9695645447828074 0.7934637757290657 -0.5839222105183749
Ni 7.051636578945451 3.287044116257816 2.336128930933138 0.05821620332941587 -0.32930406468401996 0.18825205970429512
P 0.09090369110116737 1.9878149185529579 7.330734520626846 -0.6272306434980229 -0.10813905630178795 -1.0417189554598705
P 9.42961548614827 4.403939588154541 0.45702188907176955 -0.08679735740121826 1.881597828118366 2.1272446236920457
P 2.490642850350898 1.7755890263151304 2.0659373267534513 -1.2460409241428347 -0.5088426557747171 -2.101340759342091
P 7.177628900498439 3.424242462966523 10.772104845948382 -0.36773742895955375 -0.13006233873744052 -0.31806165900098127
P 6.61180009158345 4.786189557355204 0.724311057274676 -0.35752012210691975 0.03976056772738959 -0.2879267872888138
P 3.407065550669751 4.59503627471155 12.245405684079309 1.1494803167072654 -1.6760000780467716 -0.9539229815908089
P 5.574280631206407 0.4029754561300798 10.944081487900473 -0.06868342140932687 -0.15245484750002775 1.0499212887650047
P 8.681273730484108 1.2748079863175197 12.555743722320662 0.7254550117892603 0.18240922777027294 -0.9178941129917095
Ni 1.3086052827257215 6.195856585466768 9.982723381321671 1.280230682650666 -0.16950434678314677 3.656331095771993
Ni 7.964880465731073 4.859556951009402 7.960714993753998 -0.3703424706825686 -0.0645783981020178 -0.598120613505944
Ni 8.973469893151389 8.169201771200807 9.665565514639592 -1.5742913507513596 0.24924531155821592 0.748986262141981
Ni 0.8069951100587608 3.1770213238198406 12.87243184148359 1.8097797177347992 0.4468713562782433 0.9894983075922573
Ni 3.7836936419303386 9.350362099482986 1.2072001877475653 -2.604121525193444 0.5375451659157323 0.42734511331985753
Ni 4.426445965277056 7.521978357009132 13.12862440363162 -2.0288091678312674 -0.6287583929964591 -0.5176823655535342
Ni 3.483630623219395 5.194709543440277 2.8694140467591116 -0.1110433744327765 1.391870553016861 1.475206691342356
Ni 7.8986253136319355 0.8460435800395125 2.6923975232912802 -0.8305061731943438 -1.1973115772579315 0.44323658773913344
Ni 6.130318317131801 1.3262538290778696 4.2287633807707845 0.3443262491244651 1.6606238527010175 0.9105906373517607
Ni 7.276124956623039 6.564183917352749 13.141918824384543 -0.45846214643963623 0.21656170528226576 0.6170737575696792
Ni 7.593298858863003 0.8289713705030334 7.363095219702375 1.754738312588939 -0.5988389797292074 -0.6533769628760876
Ni 7.321788565864486 8.891773442079261 5.051429947221559 0.06473317851232722 -0.7833485416719348 -0.6424340907113387
Ni 5.774479855032162 8.45806819743714 0.6465546371011536 4.498098700812769 1.8891036495771079 0.5535847358770983
Ni 3.1707485908833477 2.7746703111790776 13.536692564291645 0.502623928558515 0.4865889865828394 -0.228275137064452
Ni 2.5544738034054064 4.481334736641646 8.736885045221532 -0.21026095987521853 2.079172707885484 -0.3930545675681037
Ni 7.024734572426838 3.067536194204993 6.312814285054984 0.390569853473037 0.0234515461547209 -0.5384653637371565
Ni 3.422789830075967 5.314231045753513 0.38768036371425524 0.3577286385733 -0.14662744218497328 -0.3678631559041407
Ni 0.2754399479479043 6.543016980947501 8.240722245894156 -1.9829378592204494 0.2680876410756996 -4.76631515415685
Ni 7.629907094241242 8.703034925799129 12.088186471719915 -1.175146611125118 0.615315894338308 -1.0400809056358153
Ni 5.043305578983663 5.024581706985258 9.497591159281416 -0.13978445112121088 0.005635343908906424 0.14720979705100454
Ni 2.192890838511294 1.2233715762382775 6.824576852397956 -1.4565080864915885 0.2001812070417133 -1.0272796401060889
Ni 9.400157223049522 4.541336021166506 2.9000212104167544 0.2754247981670611 -0.814672548596197 -0.35993824463010915
Ni 5.2554182790482 1.3564195432596808 7.042734014516185 0.9560102031371407 0.41576280779889685 -2.0704533257346145
Ni 4.731451708888334 3.8057000869541553 1.5844093321643755 1.582891690825861 2.0065760674646795 -2.053053642200929
P 2.3819029025435436 7.461033804373523 8.652449343555784 0.36972926257860195 1.8557608124506042 0.13467695469131644
P 3.26280212581152 2.910765034198206 9.795973274219005 0.342434688528707 -1.720238736150173 2.0866898421981355
P 5.85386529923295 1.3845760963655926 1.0852450537085918 0.5542784195100131 -0.8166402138455291 1.1052036062770774
P 5.076395424308801 9.130203322433745 5.08605448976289 -0.32942464942228433 0.9855565493356897 -0.7598370888135559
P 9.085209433550931 2.336427946924246 3.5407153227458132 -0.019701592193985422 1.872920612059342 -1.7283446530867588
P 2.6489138066537783 9.057562245224824 12.596746643826888 0.16375690277640828 -0.433440427584318 0.8946767943349817
P 5.919233779307982 3.750386844939727 8.033512653469304 0.6165561945033123 -1.2920883533202006 -0.012127379391153308
P 8.968913908176463 5.38495728869761 5.894018336171392 0.5031386634114045 -0.6381066669805784 -0.5489690914819577
Ni 0.06903401995340959 2.6501400551977543 10.959488829221478 -0.6479460216685033 0.7321043987849779 -1.7527318236818716
Ni 0.5285442503013399 9.134608384510951 7.867139967363184 0.4035156150004277 -0.20758572703590056 -1.2258657347465403
Ni 2.4201712897967043 6.0753257862750285 7.057396174029695 -1.0091839589466427 -0.23270797602482504 -1.8388347261192266
Ni 0.8378597859106384 0.06994427368028414 1.981170537980829 -0.3160541416526492 0.6516957185189228 -0.009516681241183609
Ni 1.0653836003686223 8.192726877882933 0.051259075674421124 0.5143623000413658 -0.398815638421597 -0.2584794285619742
Ni 8.317445787486408 0.1765014990793614 0.4952544321367218 -0.7487618048360009 -1.1898561494211508 0.2788258534288101
Ni 5.458154894091874 5.250777399943305 6.60828264479846 0.1483840198647638 0.00705227886109108 -0.871143229989416
Ni 7.487360417344578 5.872721228766859 10.261197822781861 -0.5182901743408622 0.4456678228884454 -0.36587260783667314
Ni 8.17244661350179 1.2570651131542967 9.826401216935604 1.4714261412540013 -1.2848057036158582 0.22901870009869588
Ni 4.962825943774402 3.486469860232755 4.793526296720624 1.4590493648562033 2.4206925979094054 -1.018542003122775
Ni 3.748302222414968 1.8748679949716545 5.310839053627253 0.060406783222831446 -2.955565616309613 -0.03064292169683755
Ni 0.4812516170326259 3.3741360609234397 5.2271070299721245 -1.1995705484954373 0.6201935341455835 1.0955599125397262
Ni 4.352937081406244 6.827780190902066 7.878985528297993 0.7565831006526323 0.9276411650761444 1.1242727070933864
Ni 7.45540249375234 4.942036314613454 4.145804836966471 0.6977572887636757 -2.1846678988065213 2.0017105118422625
Ni 1.4846191121918249 1.0847300293201216 13.375206950267327 -1.1650483463488517 0.21332494351252293 1.6276489404368937
Ni 9.09066152323107 7.687276660737107 3.429718134349432 1.889465403791901 0.48347075266883194 3.005714983470494
Ni 2.612720609244269 3.8797183356047724 6.13436210752259 0.24726633345497415 -0.07305789632793869 -0.07851531989808413
Ni 5.722335993869856 8.17370116008909 9.334960417770647 0.4781292858512604 -0.08899796459696285 1.3335759310410258
Ni 6.717946052086241 6.779475430950516 3.5756851014156785 -0.5028193323987729 2.4700104703079266 0.5001119607699387
Ni 4.934942938420607 2.7173101773643205 11.35792056286207 -0.36886871435051954 -0.3862084911805478 -0.48974398727205337
Ni 2.1473404214431366 3.8402425651698504 1.7414625293362767 -2.0671294035677046 -0.179754049535613 -1.8611878970034463
Ni 1.527849089707535 5.683737462777933 4.780010207961675 -0.5360325859259478 0.029983947956599973 -0.7998943618457579
Ni 8.965414383485577 1.0816172445546441 5.137356955770405 0.6058076977375566 -1.0827401350672385 1.590387484982274
Ni 5.450137115150492 6.468593127009261 1.6768797915975002 -0.6058462642849759 -1.1257891437379128 -0.2824156276625975
P 3.8111616093154024 5.429234293816253 5.076791596915317 -0.6900342090878051 -1.1034776247249058 0.8397863129446892
P 3.0551982473163717 7.185014689805617 1.098587581135162 -0.8196823431059624 0.9711190337541211 0.44396575259567417
P 1.3616641139554555 8.84328002850556 5.733237343425803 -0.26729676974328803 0.4047515442900578 -0.45708120693170956
P 0.5050436685900939 4.449980504640289 8.96478899672815 -1.5982625168549764 -1.189140868521681 0.5497928729348338
P 7.551521514237848 7.558086660288675 8.249102239790068 -0.3222538427054579 -0.09775308508177358 0.07130414686162559
P 7.874996447457628 7.5753390340343065 1.9327676781457614 -1.7338301016813622 0.5773741249872121 -3.5827168127199522
P 5.424263270872596 6.7937470774661755 11.415794777797187 0.3043705346671339 3.361339431216598 -2.110402355323727
P 9.083483252908257 6.81402734184732 11.50894156046572 -0.10618218968573327 -0.6436473942931497 0.8360042201944375
