# total energy = -340862.94275217416 ev
CRYSTAL
PRIMVEC
9.30825236063366 0.00000000000000 0.00000000000000

0.00000000000000 9.30825236063366 0.00000000000000

0.00000000000000 0.00000000000000 13.62356822235836

PRIMCOORD
 96 1
Ni 4.626964766940689 1.5561350356834693 0.49093771476524833 2.5918771606084525 0.31448962537900677 2.083235822211264
Ni 6.688072500502037 5.489234736856217 2.9782349587335317 -0.5651035351499751 -1.73049435243991 0.044966794518677404
Ni 4.646316623878718 8.628926920074736 0.502367318004405 -1.8662997643087147 -0.9998922492320715 -0.11157610700779494
Ni 4.117272785047618 6.053417228857621 3.8702652735274965 -0.09017141607977375 -0.650676533225789 -1.0993612885636872
Ni 0.9842360023633414 0.5769552760756537 3.2982927050126545 0.04078258123400073 -0.21213555119011207 -0.028658801387273225
Ni 5.415820549424643 5.5559562907435645 11.868307695043722 0.9726686376294282 -0.3823477226735609 0.12488902206661719
Ni 8.14264519320771 1.3977085782109993 13.120082421456386 -0.8629956611816171 1.3845097417764156 2.448985788427144
Ni 6.0483442312476035 3.0397029349124516 10.977952865698937 -0.47230265186715437 0.5260929582147327 -0.718244352973434
Ni 2.045097539269184 5.072225025060289 3.294478183140021 0.39676441231952314 0.9883297412054527 -1.0347530656649988
Ni 3.0764519157644674 9.181734727526706 6.697496175328426 -0.062282660089305636 -2.068416497810244 -0.22701221119162837
Ni 1.2391890382135742 1.1506303239719127 8.090437997436508 0.14789319627127434 -0.6458829684918876 -2.229377840119386
Ni 4.115318052023574 6.8019031202688325 7.704045920573848 0.47842907647986643 -1.3943328985144245 -2.3135112775351963
Ni 1.339736781669369 3.0165533109562803 12.624797752775766 -3.3529944016860127 3.8761699291436336 0.275158688989868
Ni 0.6426761928197416 6.823256251493383 4.906133221657821 0.6803938577845637 -1.5095476307160713 -0.7565427343330002
Ni 2.1866202102099273 3.4944296858199206 6.915391196343794 0.7511981821916354 -1.5873340428679308 -0.3222903523703482
Ni 8.190806091619141 5.050778811310785 1.160061445400297 -1.291403154327718 -0.3577373803240484 -0.14700025214335974
Ni 3.9685641431803917 4.090855964465546 4.813492838696907 -0.3588393551389755 -1.6936373315125604 0.9765466325275957
Ni 6.122140057031491 3.241282450953804 5.640893163939249 0.5718069153120797 0.4036932782288725 -0.7249821859178999
Ni 6.025548320886259 6.3422057625287955 5.115377152803923 -1.95660590619414 1.5417913212411254 0.7249991551987643
Ni 0.2287819531340403 6.540452924176779 2.306156788756429 1.4980578849089168 0.5061795071202573 2.1999039990299853
Ni 1.94015630063554 3.125915969525261 9.304584113136338 0.4084454482018773 -0.9655415396663435 1.0717342708750381
Ni 1.0462010392255174 7.914937412411644 0.7119770634735776 0.5921263435957221 0.35243268028168334 -0.37414076138273633
Ni 6.317939148273171 8.467354273258806 7.003563618106895 -1.147601611627314 1.542536684047582 -1.1518534449251325
Ni 5.136275110481446 7.5835263905638275 2.616950962152085 0.6987487061426675 2.214115514643677 0.5398445034728703
P 2.115821641729574 0.9308997155644427 9.898857392979766 -0.14104172056707967 -1.1696449645805986 1.6337493969076766
P 4.733870046850871 8.131130884870844 11.127226518492636 0.23531713151289796 -0.8054255760766322 -0.23182608764050394
P 6.993755512452444 6.208650955724154 13.316439077022546 -0.8598200916671127 1.6585839394528532 0.7348469945271214
P 5.037207379172427 0.5019568240693559 2.504815375164711 -0.7223725162091946 0.13679502947558375 0.005560010586280747
P 5.8359019845440665 2.8714097297948094 13.09173134600576 0.057082346835288796 0.16241247293337188 -0.20643361570932833
P 2.353182080363416 8.78354630227657 12.873686462125216 2.0694544521564553 0.9765718293385761 1.7589173836672933
P 9.07213936264534 3.1038647193635525 0.5553834009174604 -1.4537870880159995 0.30346524924404505 -0.037171466843974696
P 6.81598650629444 1.1434257365404383 5.843421190909887 0.538144232952312 0.6812875732434267 0.16065769502579427
Ni 3.0484340757531787 8.363772039489495 8.911734901517587 -0.5922065620143543 1.0205127536959007 1.8633303972677457
Ni 1.7601067726161512 7.108153935621461 7.19169084764183 -0.4589583693497644 -0.2963798031521735 -0.48890812163431935
Ni 6.932032490155151 0.8951830199141716 1.5917912276925203 0.30331998191543247 -2.498941037299348 -0.1747645667408216
Ni 9.154508088977531 8.616491094740821 9.955299843636393 1.1333823827041385 1.0699077591892605 0.2536696658781567
Ni 6.611251492657132 8.404830741246903 13.417076179702294 3.0493013527018773 -1.141765721671827 -1.1295252137415772
Ni 7.529873623180084 7.3940848357765345 1.8009811709741483 0.09738490310907744 1.4473711571873267 -4.4727987885954
Ni 7.2386370191026055 7.248475841990292 10.980773266205055 -0.9392972612578339 0.732858503342183 0.4102105105221
Ni 3.0076639298231305 1.8437414212877228 12.87518509077698 0.588122878863284 -2.875233297807448 0.49081588017999345
Ni 8.825275198213648 2.0963208527516173 5.639230710043562 -0.5414756113183901 0.11355662777293347 0.4507151555043657
Ni 1.5607146959112284 7.5078037565133835 11.445690691944536 0.6038410609294891 -1.0937138604699228 -1.1356053584973862
Ni 1.0052354199930649 0.9417345214691405 12.187276375780876 -0.9208300556915819 -2.655742591803845 -2.566420668208561
Ni 0.724990931287459 8.854698584351748 6.028061549060029 -0.8455000755000148 -0.3949456139432295 0.06305990457496236
Ni 6.7856788361692715 3.08372166096341 1.5437550598645278 -0.2254962887677342 2.4231199764039753 -1.7287208054792549
Ni 3.324237597193208 3.853337285539281 11.825775496916284 0.46333798647469876 2.386826798399896 0.7494423758427932
Ni 5.508363195734355 9.330592301433859 4.55672934773631 0.35562624751831656 -1.5278436008117817 0.8639824505749185
Ni 3.7470370420413013 1.8417494552536975 10.748068815469436 1.2827909871786747 -0.6409387371127349 0.5740401755179727
Ni 5.011795849859863 5.9236508808186255 1.1162419159527412 0.8881917008312703 -1.129013049991849 -0.36783744487252773
Ni 0.4559945348973486 4.70569396654716 10.485692448254085 -0.2502025332651627 0.9763738543951572 0.4052189708447795
Ni 3.1190278626786316 2.682535978409739 3.0240781022735974 1.6581890180072796 -0.698863634453977 0.21939454674537054
Ni 6.167778419016656 2.1433926856210817 3.5257389239135986 -1.4452613099331755 0.012935477114745464 1.1039905598055826
Ni 8.237877924488604 7.024491362192403 8.644249234507488 -0.6620932597031629 -0.4540611891584631 -0.9219356300509349
Ni 8.451092756149263 2.2107006594156426 3.1510491820882116 1.420676935725592 1.0716486531397673 -0.4508953898359719
Ni 1.365139002729438 3.212836431327725 4.359051851141047 -1.1710585570986736 -1.0765646023841458 1.4785424405838083
Ni 5.783273124934822 0.540048054931215 11.849875493452242 -0.9520946701328185 1.3738517478419372 0.6869648261338621
P 4.897630133003232 4.010618827954811 2.7981174804709266 0.7325761962150739 0.06264621407631146 0.1200841444788061
P 5.056186906010638 0.5915515468137607 7.98932338140374 0.6110447777667799 -3.354037498238546 -0.07481010313235503
P 8.106436091000429 0.09337387325755535 11.613506383709163 -0.9214131818885615 -1.0713933425958515 -1.6462817250467325
P 1.553091237117459 1.3311731893735597 5.813694355740434 2.1962620314020236 2.909661654688647 -1.272432526762486
P 1.142457678280912 5.113469891867605 6.331989024589795 -1.0714722754629031 1.374717181166026 -0.619050678790392
P 3.6189275629464945 7.575139655065431 5.18072946274919 0.05802825568832586 1.2914229518220597 1.3994115985889126
P 4.215428307612083 4.025986752824791 9.938584083805075 -1.195887443216895 0.6932388320680319 -0.544832700716081
P 7.378335272554241 5.091651348018283 10.592446934473843 0.7312873022003212 -0.2502644968513496 -1.9620910976784274
Ni 6.770431918581733 1.0346494978786704 9.863572600245284 0.9988501811208025 -0.7854612171395634 -1.4173892661132557
Ni 7.799440615448164 5.097329382040505 5.192704529584581 2.58847302002291 -1.5458248678805506 0.1307493375021361
Ni 8.283264963656393 0.43411362575630646 7.720013296904534 -0.7291268042138928 -1.3622275333394473 -1.1355593357507991
Ni 3.720610913206733 3.741610330836457 0.9780450836286211 -0.31591890162636554 0.5720385717069116 -0.9734674793816395
Ni 3.254630485032272 0.5723197663329221 4.264463250932836 -0.7620500373044747 -0.20863036625033102 0.8650414879670523
Ni 5.697534811199279 5.199161664340671 8.92850558003863 1.5619248587662067 0.8654106983810128 0.9818027387202123
Ni 3.6621737040403306 6.70194179672025 13.047536693982638 -1.8610930232967948 0.3400047389309757 -1.2186111100666561
Ni 4.092456983894762 1.7623686779725443 6.305314365413599 1.1440871707161522 2.14108872866399 -0.8613380709735359
Ni 3.708863898557482 6.316766308458745 10.444522047466732 -0.36647347464546565 0.07651448741797144 -0.3756443425114563
Ni 8.17979442891703 7.53954489752285 6.1850452273957055 -0.2301929229124552 -0.7866243842097291 -0.6789398989468565
Ni 4.674343772142501 4.176277797616242 7.170206470057094 -0.7146273250461369 0.41425048491942845 -0.5668523995202818
Ni 7.4839653218725495 4.283192385778921 12.54282462717463 1.033136870217814 -1.4112443295577823 0.7950822851690952
Ni 5.65223154630395 7.789006064400771 9.04520500322452 0.11199339705087163 0.6675388561987665 2.211899995049597
Ni 3.0280396945356594 0.3787220768064136 1.8909919726050997 -1.6904332227529661 -0.16076670979983282 -0.3854453877622781
Ni 1.3883817092105635 2.3377210729684825 1.6342964318877196 -0.021998358647962114 -0.33299925414742004 -0.4872312481525286
Ni 1.1125595712655434 4.832854003887432 0.8874106290804752 2.418352636922319 0.3686802524887973 -0.6474521127512205
Ni 8.165245630266648 9.346695578250978 4.3375125548665885 -0.5356453777898582 -0.44870738104571756 0.0874092799536043
Ni 8.398798993629855 4.599551963341603 8.459677757425812 -0.34267123001954536 -0.837518599956435 -0.07556446479987632
Ni 8.665750366946716 2.5526579313407978 10.992625464107507 -0.18662403718256892 -0.22979543036372038 -0.057737721031100565
Ni 4.42192258097103 2.3176617888407987 8.61961773675404 -1.1351692994012321 2.67464328536309 0.4546052345873912
Ni 2.413155151191567 7.694387677784574 3.368590489508753 -0.5394742646176451 0.1552997731479906 -1.1079276900764596
Ni 6.689301189831436 2.3952088403803495 7.763812348196599 0.7556816718842857 0.04970739452745633 0.36491975700510054
Ni 2.365608597444835 5.2964235946655736 8.671469357279918 1.1721677310024523 -0.85098475276367 -0.8020358336687928
Ni 9.023838840446476 6.4911378024559125 12.393550974380931 -0.29310524616595973 -0.69470667486281 0.9114254745482302
P 7.208078026160061 7.478231438335355 3.679412587661895 -0.34658933412702886 0.8171793741784508 4.3481689337274405
P 6.5677912617559 6.311916708908618 7.143463860637682 0.15126494095698467 -1.230344339343184 1.554275055530433
P 1.0620436849727646 6.76502382388188 9.244190309295393 -0.9774722296656585 1.0367410426293049 1.1152573909686534
P 2.8871220600071203 6.468667680931908 1.5129922161923324 -0.7064810417899188 -0.40016032537494955 0.816541740594452
P 9.18628646299698 4.64290049521289 3.2510198138892887 -0.9528932547747138 -0.7828016680295293 1.138946249945161
P 1.558275933757422 5.221073290714947 12.377093983968985 0.6169256620275891 0.676501464708693 -0.4825569826053109
P 8.980871946927504 0.14197598283727078 1.485609199001233 0.17976767638236782 -0.03939032887216442 0.3526280841219411
P 8.846656254195684 2.0075573569550555 8.93435023178052 -1.530273550409513 2.055231109468222 0.4997764318073909
