# total energy = -340868.38539847784 ev
CRYSTAL
PRIMVEC
9.25622472066366 0.00000000000000 0.00000000000000

0.00000000000000 9.25622472066366 0.00000000000000

0.00000000000000 0.00000000000000 13.54742051222828

PRIMCOORD
 96 1
Ni 5.606708285224741 2.0690531970959856 11.571787051125566 -1.1968711472864033 -1.4983700168326968 -1.6825556197771023
Ni 7.707760251629505 2.260888457126202 6.0231291800518285 0.43555515993447574 0.3855148075476328 0.036886074393071955
Ni 8.16548982672018 5.502807161275926 5.247091916683754 1.3114217635414898 -0.6843474431156731 -0.17083952065480254
Ni 4.033705434101219 8.614611112699729 4.4200759949505946 0.516000349865421 -0.5478959130224371 -1.6823537881789412
Ni 8.143580342498636 2.624880243154102 8.498757425601239 0.7482483555346919 -1.145088615397473 0.3846429464656408
Ni 5.59899784992413 7.378118316022456 12.085532522145066 -2.2885589784652325 -0.767381219709401 0.11801183533080965
Ni 8.249110562021167 2.3543300469937547 0.9382683394583797 0.5193109022958927 -0.3636779141781995 0.4562713094359045
Ni 4.1134292987400745 1.3822968505250868 9.619116071567046 1.7185806317214598 -0.921286169392394 1.0188219962570388
Ni 4.287529631956399 8.363387914027587 8.943289475299823 1.3025979946022728 0.14570621592228455 -0.4716863584393941
Ni 1.2452954665102625 7.718895490124867 6.027491638823951 1.0596557424439492 0.6190653340784114 -0.9627097266445033
Ni 3.509432858559051 5.697456313660748 8.406336797334715 -0.5986438329992657 0.9266320070853397 -1.5246911712257292
Ni 6.387822587923409 3.893307015566198 7.33489915094969 0.5889595158319663 0.04118958686443229 -1.2854052848730702
Ni 6.79138473518794 7.418993804963032 8.90768633203419 0.3855757426925553 0.3025908170588918 0.7387491577950052
Ni 5.476926756593442 5.026731748531216 2.3706635813652537 0.597712579434248 0.5662217079148184 -0.14861696181117628
Ni 2.080669759283581 3.659087501944746 13.121354066549667 0.4269658756035679 0.6922438151446143 0.037929428055921775
Ni 4.348407822799281 9.20473247182959 6.475436458624977 -0.7356988010044555 -0.08019116493861028 1.7708529587626147
Ni 0.1640323374462472 8.258218687274232 2.899920633989511 -1.6778260755119168 0.1678606405321367 -1.0628241128696019
Ni 1.7005351171161056 5.901944833061836 9.684183629777342 -3.2187740749161406 2.1812143930402823 0.10632719990402978
Ni 2.2186060220083235 7.606441614414029 3.2580467503295387 0.44364924979651976 -0.7399814875402094 -0.9199594801611704
Ni 4.08095846196391 3.6878373363309396 9.547720958048828 -1.2440223510509092 -0.5554788675760175 -0.8102291681128628
Ni 4.532532647528886 2.10221825073595 2.661716315569844 -0.6808985653351242 -0.3389379882293582 1.047486711181583
Ni 1.3205670869959425 1.7107262206766978 1.613551595326868 -0.9922861547500397 1.3846606655319833 -1.535058630502982
Ni 7.909684796746957 6.765754248576424 1.676750321739814 -0.04460761140704576 -1.1988598955816578 0.15165086354149365
Ni 4.555950896401091 2.195113723337313 7.017415266684001 1.1197899887316844 1.4729158384256504 0.24562185587301572
P 7.373860452591146 9.250634090864082 5.825214431539689 1.0040288971082643 -0.1745524507300155 -0.33248091975010485
P 2.674049309560881 4.709095136555491 10.955799171650497 0.2684740778808409 -1.69741093962238 1.1279385859807478
P 0.10443705936766844 2.8357555577021545 12.76833553508224 0.0803397747013326 -0.9185482016359406 -0.8684553987446075
P 5.642391032024088 3.5181799910429374 5.168287195172572 0.15357816247119357 1.6048640813318942 -0.004085740033599416
P 2.8492881584338394 3.6642987565356755 7.2084332020599025 -0.2522180210332946 0.26838048972577006 0.17753493039710713
P 3.529259692189194 7.005629315581637 6.389613667432014 -1.155193822152275 1.5889785204498892 1.1567136012309112
P 2.367834879050888 0.6745890390046878 5.6944684042789495 -0.697529746133902 -0.10351132772178948 -0.583914240098575
P 0.08858762555585953 7.255325237153416 8.710693503517179 -1.897781379856764 -0.6360289585159433 0.07833971355216832
Ni 4.662008720740113 4.163894236625948 11.809625748663633 0.49817077788316777 -1.1844871717997538 0.2075528169154361
Ni 7.317119794256516 3.2920781866155266 3.7042578792160348 -0.2470668158496584 0.5774060066664121 -0.2955202833653556
Ni 0.39014710058844926 3.7459016348192167 2.4422206788183582 -0.5667390138708691 1.1085817787206906 -1.0573731170573595
Ni 1.304970348122557 3.8014667525978116 8.995419608036332 0.25740753565403407 -1.6005060614735145 -1.3179618786528526
Ni 6.360127963170193 4.149047251965467 9.654108303992532 -0.04317113607083533 -3.0737021501437454 0.8475487304989274
Ni 3.5342765660582596 5.916662230574407 12.632306054676736 -1.682391326285096 0.6030226787932517 1.1424702039380195
Ni 2.014080477707833 7.936749998210328 8.49079151849475 0.9549282829268716 0.29610418089328355 -1.1168347627581023
Ni 2.7410088401306565 5.833726455912368 4.823749216913333 0.7193077612409419 -0.7820097682558531 -1.8900248758397966
Ni 1.16532168380044 3.6928079290757507 4.535636259721318 -0.3410565772342578 0.6719886644400039 1.5492200096050286
Ni 4.971731260468512 9.17228940372798 1.7209015886550436 -2.3007254386244376 0.2331854298818758 0.6819563171756772
Ni 1.1759015488047604 5.436597384919056 6.384154346015087 -0.4170709850873591 -0.9834731844440997 1.6766012019658803
Ni 0.8403337780483097 7.6421428736630785 12.664331667037585 0.9750322527655981 -0.4779516226228156 0.30708587671576787
Ni 6.167330055755507 5.9859080486822975 4.42923410381785 -1.4891947780913322 -0.9748011105913986 -0.04447262849107825
Ni 6.898395950686581 0.8820247403982299 2.5832624049805015 0.3435441195428019 0.9228077482432431 0.5982877352114276
Ni 8.327242355985707 9.200770807593504 9.173391820107694 0.30384037319527674 0.5127782433836976 2.4449686968479507
Ni 6.716770306666658 8.9967728681095 11.060330644511641 -0.11435418397356435 1.4699181892499071 -1.2848488981489679
Ni 3.2954752211357237 7.271190406547471 10.698045706346205 -1.817723398061908 -0.8036355740557449 0.7131003468786493
Ni 5.830653389261944 1.4652326251871246 5.0588647331003305 -1.5625714912112703 -2.2589115879124453 -1.6206609391548346
Ni 2.355079801206659 2.27226435746768 10.985372810048398 -0.21656864726080122 2.3050325506402234 -0.09260496522193083
Ni 6.5437066706336084 8.242770047998457 4.17868846080478 0.031627654207610045 0.36191825117461535 -0.6319997827518922
Ni 6.10145350349326 3.0226942747863643 1.3614749727234958 -0.6263060748012246 -0.7419974895289737 -0.4982363410137806
Ni 0.6913057810850048 2.1599956062538563 6.510565683178255 1.9746702198950186 2.3191656476074964 -0.2665470360614571
Ni 8.421887255083847 6.690399322067088 10.85290605058792 0.22158075576341194 0.34271879542802913 -1.3938335902805028
Ni 8.422414859900336 5.6252207349260885 13.02412482947322 1.0543525850634812 -0.8600352930017124 0.747144580947552
P 8.796023863548085 4.166004655891902 6.949447733227987 -0.43459999511005803 -1.4096584731279012 -1.2563083675071138
P 1.7825730379676283 8.777150421077561 1.1590265252794967 -0.19983282256335907 -0.01705387015849321 0.837408556741132
P 4.317584594046537 8.949195872377036 11.287588551422902 1.5685886439396275 2.8203099062966914 -1.3572930721523075
P 8.790969964779618 1.6927969131409422 3.1462121160612115 1.1015796363712447 0.3364589305612463 -0.036417105176453406
P 0.6972343931018615 5.930407724477657 3.914838845813836 -0.509791907061864 0.4384473938806062 0.23704902660234015
P 6.79233812634756 5.213041042325581 11.340017660222088 0.9394618118601563 1.4515504853759968 1.8356409017722775
P 0.8293919946523279 1.6314281423809744 9.140729379477122 0.28458820983388405 -0.520969006724606 0.6062360435242269
P 4.35676619383944 3.8772104405508765 0.4414756442528912 -0.45754169150789586 0.4772088309195201 0.28191889053183705
Ni 0.19173714404679923 0.34618836315011386 4.741204054939994 0.011527798133941438 0.8303917591036667 1.1626513068715847
Ni 7.922995248082225 2.11760209643777 10.956001882974725 1.0411887939880133 -0.7958906400030035 -0.0673670165907485
Ni 3.2586632149045935 8.492067951901657 13.037550057996636 0.0832104113809083 -0.20543628479306555 0.035162149723429764
Ni 0.21767123483341735 4.259011203191473 11.152941025387603 0.11131565425755668 0.16675326640057087 0.03947157573206105
Ni 1.720361950746249 0.9507531355369686 12.921448304072149 -1.8359653749912315 0.6344405309829009 -1.1119422105524916
Ni 2.108966038652091 0.09992557537544998 10.451184966446187 -0.8782728990556617 -0.6518826377187483 -0.009250057843358262
Ni 2.7283740932094864 1.2158051341360154 7.883989516561486 -2.6073860548773293 -0.5919548510148643 -0.1528662240058335
Ni 4.490222443736456 5.102660560981294 6.363616634316412 0.9076264125171143 -1.4399828351430557 -0.9347551504131062
Ni 6.123807286507637 0.9545296752760436 13.478830395905177 0.7416131096063615 -0.3193716360616564 0.2725719020992983
Ni 5.011227571906337 5.9632488102478485 10.174533066864276 0.5684405699430081 0.4578599940792631 1.1755595302928206
Ni 8.882347416505471 0.13289624829355037 0.5031109942885585 0.034376934817973055 -0.25913377431652146 0.4685465272588317
Ni 0.39614791115914116 0.22991351782091862 7.447261390034505 0.3188980388593476 -1.5326407650901088 -0.9088579709313701
Ni 6.96679019610821 3.455385761655966 12.700977986843887 1.4612908525922124 0.2891676016744503 -0.15771506745770256
Ni 2.471199141958363 0.7663052685600751 3.1395467085462414 1.1868847254976527 -0.7220004775817566 2.1883409767827344
Ni 7.626740515511557 7.783087409464289 12.84615169177937 0.38686849336204987 0.3701856333897302 1.1278557964589542
Ni 6.422237231918214 0.2769184788576108 7.742052713456283 0.10394224461162098 -1.8418305755227566 -0.9759884460312803
Ni 3.4213506228800377 2.8292947127563837 4.907688366349184 0.4219964474134345 -0.3081330870333597 1.2353052828928854
Ni 5.944551236049486 5.51384058129793 13.415970447321765 -0.2891166938318569 0.04430550678559466 1.2555146679612248
Ni 3.735793837282281 1.741827136174962 0.21806740125702617 0.9345975417893194 0.32507280021149176 0.2877599226936463
Ni 8.096447645559003 7.3217941878061055 6.776365584745237 0.7144018392988922 0.6548080388956594 0.3434816417359826
Ni 5.685034459911143 7.303985211193409 6.497180256421696 1.0390372948626494 0.01475710370451652 0.18185438370806745
Ni 4.217746952807169 7.133087531775417 1.0061331288185504 0.6671105104120962 -1.3199609113607527 0.763116530895776
Ni 3.1169411562159257 5.131743619462111 2.0233616943656036 -1.5406572076366822 -0.17935809964877497 -1.1983554451414136
Ni 8.187584435438739 5.045605191001741 8.734807820498155 1.8195697072420276 2.359453805703582 0.5577090424581169
P 1.3945520922273789 5.720272907917659 0.36305227920555666 0.22155633028337973 -0.15220210805927334 -0.5075686741583001
P 6.845718775061396 8.507720228124146 1.2129755061991645 0.6499856778063515 -0.4561568953452273 -0.29716758916079145
P 6.0208780661681445 1.9880704858774394 8.63236270071835 -0.5456292284754474 2.888191143519697 2.2190324923293203
P 7.68899788385719 4.479087205241095 1.325860721988043 -0.05097546260660253 1.083431247596992 0.4209559219640622
P 8.87535896674321 9.20649115455122 11.611250040153932 -0.033051531138330176 0.37365765109873067 -0.29708968473500447
P 2.6645061417398366 3.2358188519731304 2.9780079980747662 -0.8102016573090369 -0.8246561421714701 -0.7939736254859487
P 4.228317561586638 6.7345144897054 3.1571853706216855 1.2415872592468553 0.11925907747434945 0.45855547748439085
P 5.759806244254887 5.774097855424327 8.251205245704876 -0.27727933487729667 -0.5470448778760515 -1.9417138195736559
