# total energy = -340856.5404792752 ev
CRYSTAL
PRIMVEC
9.36560082161561 0.00000000000000 0.00000000000000

0.00000000000000 9.36560082161561 0.00000000000000

0.00000000000000 0.00000000000000 13.70750349187309

PRIMCOORD
 96 1
Ni 7.614842390924255 4.348345530603127 4.6410730097515005 0.0020959632970802616 -1.5736048662072963 1.1457712432867944
Ni 7.302209263374253 0.3380223353471114 4.089359502238865 -0.3054421704647578 -0.2583120497461745 2.832707765740412
Ni 1.1893938667607344 6.498809276930039 4.206846284197193 -2.0837847527361983 -1.0897736448752522 -1.1518135928261324
Ni 6.054973444732243 2.2461989199231533 5.878545189333239 1.5005515978650479 0.35552546027439413 0.2386405394591761
Ni 5.079293227579475 2.0576131778439213 13.32824487408403 -2.0799448101648177 0.49253929062900337 -0.3240962952308354
Ni 8.038795052162861 6.142682298256877 10.245249171049977 1.0832574410232891 0.12921644579737748 0.4395198010091786
Ni 5.517537795970093 2.934224067438381 8.672613974111632 0.15874042339842337 -1.426349817740653 0.2922338993045999
Ni 6.260894914294027 8.879001850604064 2.272745716005969 -2.3761412936615915 -0.11951155980478773 -0.02649958895242533
Ni 2.121879932022889 -0.1421520287968212 6.3473553332030885 0.1963680039432102 -0.3493113610438823 -1.2929702417045215
Ni 0.70241633003802 8.951341752859726 7.947747361875653 -1.001798722226165 -0.0462492607755268 1.231341413149131
Ni 0.0695292853904455 4.007325266370459 0.7760187153107787 -0.06722123504150358 -0.7808378594349391 0.520039295821485
Ni 3.8674874775849495 2.866501406484123 7.099362520626365 2.212861330521602 -2.7875509666981153 1.0583519360308613
Ni 6.870960798943367 4.753660645817813 8.999798435961818 -1.4097592603718236 0.4546877669988685 0.4307901344456645
Ni 4.210034334783396 8.445552469934173 11.41175725516546 -0.37330103909026036 -1.2730169385110461 0.12523483544181013
Ni 3.774271650662294 8.957373199914704 3.3213689801198965 0.6922157901201562 -1.6146784963191545 0.6624478148291042
Ni 1.0438149645517762 7.31755948344119 9.962393971933672 -1.0714838454271287 0.5509704381827027 1.3164264158449328
Ni 6.584897881478723 6.3196734262770065 4.658604478295308 0.6364657889430458 0.18826722921294672 1.2652030988935823
Ni 4.679091730520096 5.778098181865322 7.630638413599604 -0.5531998417338536 -1.425911444651654 -0.468928850298915
Ni 3.544065177663311 5.75267994070506 4.634547995522924 1.1643268948017949 -0.5949972373856139 -0.47311846290023035
Ni 5.85900760905158 4.727240285348727 3.221962490924974 -1.151510716873733 -0.7927387246375831 -0.5418787602940798
Ni 0.08921015936766533 6.481108291007822 13.759181464001047 -0.8515506525694689 0.043495866400105734 1.111899273129698
Ni 1.1600608043753475 2.047910415190262 13.282118352514976 -0.49148822365666966 -0.843603115587618 -1.3124532901297976
Ni 4.297509048282603 7.883550849704312 6.208621748777489 -0.0881459010093127 -2.168201268610066 1.167504264088512
Ni 4.2586699008649145 5.1551639614185625 13.693261681242571 -3.1634675890343518 -1.584048944358756 0.5293528599129271
P 2.0475545223516143 8.481375893824373 11.748125625372962 -0.8807537564959864 2.408434863587975 -2.1115629512907312
P 6.630386605618514 7.789005107437236 10.326849779591294 0.1068031110991838 0.2156721035884608 1.6684022110948555
P 0.8574947613585676 1.4113773420667515 1.525589909909522 0.5556105080578754 0.2529983508427449 1.4913185093025543
P 4.96838578033562 4.718605201211012 9.889456544333123 -0.2301512710412423 0.17149155241650466 -0.7149854797165042
P 7.288741529111741 3.6925380505865366 1.2588641488647727 0.6421193876843972 1.972139483053365 1.509918898012561
P 3.688951025397008 4.8255884616287235 2.223096791894407 -0.12659443479349813 -0.573603087980554 0.3080356422235469
P 0.3397278112923154 2.926478715397284 8.512442528958015 0.26130481382591125 0.01412126989273052 1.0338693775084646
P 5.117195814895459 1.449776306236639 3.4555658674128393 0.20858151529026658 0.3910120832167782 -0.3028623255527236
Ni 4.388327281344894 3.34628241538534 4.6699958588123405 -0.5283956382059803 -0.7120569932157995 -1.4253712558774678
Ni 6.239307203949736 3.991075948605885 13.126168920299845 1.368336731560979 2.3081795809096377 0.5000872781795903
Ni 0.8705129467722612 4.7655455935084445 9.855846211963254 -0.8314124870586972 0.7959063237322873 -1.1605208907921434
Ni 5.520235089063004 3.0363091185241786 11.220428328548335 -1.0925293532435185 -0.506087204516767 -1.3964142065234852
Ni 9.203370076228426 8.230031259329918 5.500437145073071 -0.21285083208958183 0.11840264301132512 0.5922790671235025
Ni 8.745832369742692 5.373569777136068 2.5952689182299715 1.3441169397816657 -2.9579009493110093 0.8353827845603549
Ni 2.6138362222462646 4.052326979257364 6.0117277820360355 -2.6232448762864564 2.1109338023471644 -1.271441109383494
Ni 8.33368973138658 4.162044995172054 7.5625673522875125 0.9253161164873934 0.11510520320697595 -2.049987344570779
Ni 1.9920258739215502 6.234502650627992 1.3585272555275627 0.9494379492362618 0.18390046760381878 1.2139566420137804
Ni 8.436945482599508 0.2455829167487687 2.159480010426022 1.4963329317980103 -0.3070010303114455 -0.18543438774984194
Ni 6.906859147641702 6.513532001728835 2.313606896683238 1.4133577763563594 1.826862641359015 -1.876633542134555
Ni 7.485091354434104 2.409310227236021 3.132329006391338 -2.2983991044841066 1.6002507509295987 -1.1864543228284534
Ni 1.9333316523477249 1.6337073446103993 7.779981350857312 -0.5885681939308186 1.5978948491029126 0.437329221115763
Ni 0.3815620779152551 4.0536287977987335 5.222723660915123 0.32625370789347036 -0.005599091354332293 0.529220705210437
Ni 2.989527941444036 7.103246435368134 8.985789369960521 1.0206094271747648 -0.8637963027060415 -1.2770301734354974
Ni 2.0222112059994886 4.0396927834853695 3.354239430009422 -0.08738151203946241 1.1852065664642815 0.13946126345383725
Ni 0.30224573946199684 2.2171561911692947 3.559180321144721 1.8965045700268692 -0.2202594658488271 -0.28844769278929033
Ni 2.7094309118272504 1.7969310391354716 3.4378555158896065 0.4031258357611767 -0.11362964710271398 0.20358380496535908
Ni 7.738065603505525 1.2728694686256627 8.069059055289344 0.6173707199848076 0.20584611863697452 -1.158654784117682
Ni 1.5834047015478467 4.856972590636844 12.858474756109931 0.5887458571592634 -1.3595679842294133 -0.4168521842083337
Ni 1.2524243616054522 3.011752512657485 11.161444709903085 -0.6834606696353455 -0.6097810805630078 -0.9025040036888844
Ni 6.095273625908591 9.173830970620664 6.402021409779483 2.757465974387277 1.0415456631067996 0.7306897778256384
Ni 2.9097330207788064 9.45373132261609 9.214088070032332 -0.7773745834766871 -0.728019687192643 0.3829892129123017
Ni 7.866009078999387 3.471135242543576 10.665095952802712 1.6588027403318788 1.0733093286716417 0.4037153897160595
P 3.0903392707915156 3.2507626506124914 12.321441828191514 0.04743891020825378 1.6061779150473112 0.9723976433562285
P 5.771467336345254 8.116641927816545 4.491509980869891 -1.0176709133717312 2.3991830059724037 -1.3607303799686306
P 7.878306113134768 8.294541519135329 7.621892815369887 -0.694364718142359 3.86191804721031 -0.3135624855790471
P 9.16807112599518 7.337142955167834 2.3847489385688183 0.8554335325636429 2.22506944255202 -0.9043405426769909
P 2.654932479509061 7.644353399728966 4.993095045498891 -0.600245887379063 1.6499982546663714 -1.1323215455397917
P 5.525770159264076 4.753520161802557 5.736768721137201 -0.11074204114227379 -0.19022718115279497 0.8668754558519973
P 5.955520127532236 6.247483373637618 0.13349727689696927 1.996437179258465 1.7166553896742889 0.8948210332223299
P 8.609815746172137 6.113976731139631 5.701581221556058 0.39300597371835544 -0.9793910439549263 -0.10859439867165169
Ni 7.448022305608637 8.375582064735825 13.955335548262152 -0.3650164304839649 -0.9081450040247456 0.04088054026444572
Ni 8.577242185834853 7.548196774086958 12.015545377453074 -0.10517997367346402 1.0772734555257124 -1.1429551139942382
Ni 2.6008554992366393 2.9866620675328197 1.0604136192342863 0.7451298645103683 1.0933634191090396 0.5404484556054563
Ni 5.152438571522602 6.301766397132415 11.812660235741017 1.349022090392767 0.46425227075885206 -0.7647882621712441
Ni 5.555159415255567 7.827404071607123 8.493237427512462 -1.812328709408898 1.6066008615173428 2.053803632993076
Ni 0.4146704140706133 9.015065302179705 0.25313814708921945 1.0379543462111158 -0.8415796573996862 -0.7377909076467938
Ni 2.5290868986430186 6.920074010676754 12.820409207336251 1.2491529874092553 -0.7177977523543186 1.362440677791518
Ni 7.08420616850048 1.3972633813340636 10.238600530887977 0.02548837407909159 0.0809432126132864 1.5748245975470105
Ni 9.14464775785155 6.746548155032932 7.851329435965269 1.3894033224232911 -2.8041543795827515 0.5922885802051993
Ni 4.987838133648023 0.6526662574354734 10.02554528303151 1.0104975355517436 0.7021973268129004 0.5070824785505008
Ni 5.085689933074117 3.04515024588427 1.8282795788597268 -0.5407207354302365 -0.12004300682822552 0.3169702257090154
Ni 8.062059205089204 2.413777618921152 12.831704122162808 1.1255595442256099 0.5116886098639445 -0.898268625451298
Ni 1.308777182925016 9.20490603479522 3.4126067921077525 -0.523620328304524 -1.2619102870749235 -0.11263257329676733
Ni 4.755739809243598 6.721888527555051 2.2377221144426254 -2.4463496363558774 0.9879772429620404 -0.7960698458933451
Ni 8.60714654988228 9.083743254437701 9.883672349144996 -0.045255529403689806 -1.3055974435502289 0.04503544297308373
Ni 2.82431873950335 4.580097327769923 8.369856872834104 -0.4689738446042375 -0.4078556371366782 1.2457660732148932
Ni 3.53959778597818 1.3029330478903793 11.91035375650992 -1.37959224987014 -2.2464772188038347 -0.31278806930686776
Ni 3.2711234672235485 2.430392195125391 9.894076595314832 0.1066850974640808 1.0835932270961532 -0.956010974468089
Ni 6.867158364930446 1.721640972559441 0.9126459760676445 0.37647455172223554 -2.0102727995899765 4.046561049407108
Ni 4.13098866219953 0.6542836967311171 5.344569193586786 -0.07099098649658096 2.4358281679992633 0.41569184535164533
Ni 3.8300719015218525 0.9641605279018027 1.348816063832988 0.09051440124148928 1.564608833356273 0.52608781600841
Ni 3.2579928945976504 5.222521363933154 10.936750829662733 -1.511978608755067 -0.44461547036453103 0.2837338322533888
Ni 5.035387290011564 8.864541362633746 0.050649170300183094 -0.10824421442108455 -1.3713513500175867 -0.5533175982586406
Ni 6.760559094154432 6.489172073483498 7.450206363765812 2.5605487828088163 -1.9017038548396217 -3.0470480378913263
P 1.8346463144311145 1.9117064795993663 5.56935860295751 0.6176774525919492 0.7237215740379213 -0.9300451465319466
P 9.182353667546176 1.3285386010709825 11.236246828666125 0.20675577493543748 0.32865203292231787 0.33536364061453855
P 1.8297855675032677 6.116177647378637 7.20367658475422 0.880689221806638 -0.37071296664810993 0.7361657133385451
P 8.249455515839271 2.0316610974256877 5.147811964620181 -0.8841751234727095 0.8969902729595068 1.618258243250613
P 3.198633715351615 8.38203496383657 1.3717102755191561 -0.7040189534026714 -2.6373052110342643 -0.9413304896377788
P 8.749887674983073 4.729178964759256 12.53811688084107 -0.2517706490832309 0.38900405164781393 -1.6055168844245447
P 4.720450224611369 0.3478964884993826 8.022768635702493 -1.12115704428254 1.6110822943274639 -1.9942414571587268
P 6.637607484002656 0.7635118917126158 12.906998871539347 0.5408042962829783 -2.615553935400102 -3.3939309919993743
