# total energy = -340896.4694266616 ev
CRYSTAL
PRIMVEC
9.01505533038989 0.00000000000000 0.00000000000000

0.00000000000000 9.01505533038989 0.00000000000000

0.00000000000000 0.00000000000000 13.19444473178860

PRIMCOORD
 96 1
Ni 6.4464047607578845 1.9090642156612878 11.433435206460997 0.13555472931057946 0.35339118754021076 -0.4935317364492597
Ni 4.5408023264136 0.47042362678093214 6.060169131390935 -0.10275979426774559 0.15141946425697794 -0.18638672436078224
Ni 2.7247915137578085 1.7154568834634554 4.583037861492147 0.6479082264520325 -0.938523873426919 1.4671059166120928
Ni 3.0050695896579116 4.382038183773629 4.618280418009235 0.8681049573837243 -0.6019461578996214 -0.07265860400699099
Ni 4.99702724076151 4.50741957584885 2.7395094933883812 -0.1384947857755099 0.2167663650939041 -1.0383693222613473
Ni 7.269704705485351 6.0126543798039584 2.6082385655464972 0.5218436960200754 0.651350162254046 0.4953225098010953
Ni 5.279919682760393 4.457367987640508 11.735627980807724 -0.1092034930105603 0.721155613082958 0.05541472932487875
Ni 5.491665306650441 8.165972509535282 12.288039029951907 0.2843089880305684 -1.787029568522477 0.7356640911117782
Ni 1.9021947433603588 6.231738258881614 0.21979426545208217 1.0796116167405858 1.3463553421938812 0.8146656066176614
Ni 2.7474283181510266 1.5394829998491093 0.4326000598704634 -0.27387468007112187 -0.0015822568854553395 -0.2511947219751029
Ni 0.3832877062141893 9.130448223596797 4.8743972436288665 0.6154053687283207 -0.1956043863043083 -0.07865595924100648
Ni 8.568386557525915 2.2835135614505027 1.3660865206059387 0.3020742824337894 1.0024504968775512 0.24005361775661888
Ni 6.895246344640623 0.7184638641664399 4.972221414011857 -0.7885341996379324 -0.44293808266210816 -0.956490742317985
Ni 1.0159606960964305 7.374802222656254 2.7205102638946705 -0.8160416610295816 0.4799377998149089 -0.9468874149002661
Ni 7.550875271881244 3.765273160849681 3.8297407243289094 0.1947708346594194 -0.007599409613812719 0.12355796196001947
Ni 7.666412223336236 3.837871402896111 12.605141804611636 0.38885569899540773 -0.590098514532416 0.44899431615851704
Ni 7.881466372599568 8.66229639080515 6.940106162379012 -0.07291082922711314 0.19363337862086652 0.31718362727140215
Ni 6.873024232801004 0.6365143050363432 0.3242958874535748 1.0295080152159752 -0.04526452826475431 0.2577155538127562
Ni 1.9161861095165813 6.287613572951374 9.072302017043304 -0.38601694399503195 0.909067772949331 -0.20665575902246347
Ni 0.1832553439522202 4.922589927390422 1.3525098470033154 -1.3942912466432118 -1.2463581982729373 0.3836019067956361
Ni 6.274839239289411 2.05729877346204 6.882116817791447 -0.30252191149416935 -0.020556741105429113 0.9393391702393629
Ni 3.6162542932192947 4.209913728863347 0.5178238871628927 -0.14464255054446057 0.9606083640307843 -0.24139161984175203
Ni 5.855458856823255 5.661445847127335 4.611775153951031 0.303845001180967 0.479841897666993 1.532509124608251
Ni 5.321217652065583 2.9268369379158368 9.241877915760055 -0.21893046262475843 -0.30806932367495976 0.25144129076827015
P 0.1603291562770336 5.430083462440932 12.467708184821044 0.21423742802446327 0.11600277532058086 -1.1702651146631007
P 4.056955281973766 6.201772214356302 12.490309830497763 -0.4334877358824856 -0.41838096214803433 0.3193556952220565
P 2.4045857569904956 8.46867102849629 1.3585264950527118 0.941410708056411 -0.28931312611337917 0.45154047961913846
P 6.175331056536585 7.687759874791092 5.821613633910686 0.8703549297601656 0.27694586279727784 -0.6683580096659522
P 4.6484240591281525 1.1802961430434546 12.47827653439897 -0.3528782524595342 -0.16404666610268523 -0.07478490632137443
P 4.13848744403361 6.33240938379562 7.868626229032358 -0.43695872515022166 -0.9331836921609283 1.6415910044392825
P 4.886466599949711 1.0438352477427193 3.871316357343901 -1.0399454084992155 0.008881875870662123 -0.01512888522163846
P 0.20850561293866596 5.514220975544042 3.626889354208016 0.01625939928165587 -0.09357375689310336 -0.05011619993010079
Ni 1.3394389180149733 1.0915609516287001 2.7145594257505192 0.8151633721896864 0.1365142650103713 -0.6218264417633163
Ni 1.8186341938100836 6.588130448478229 4.819587509120746 0.16499386050730297 -0.23012607423026174 -0.5830166679849701
Ni 5.963765733756796 5.410601927477275 9.335571387706974 -0.4023421635176167 1.2299090515779785 -0.6423849826409582
Ni 8.742196827817134 2.220858925634944 10.13627599729658 -0.41737668925323607 0.37300022002038985 -0.10280427435243585
Ni 2.573518882249165 5.239649429783688 6.795865274170532 -0.5785419200430681 0.02311087498585052 0.6067793176222066
Ni 0.43574090521120307 -0.04300271630270447 9.099535598242618 0.3596309978023355 -0.24189118518598987 0.2787140104412942
Ni 1.475133533597101 1.0938868359510618 11.51004244369407 -0.26495963696967917 -0.4445887308916537 -0.4540915281757663
Ni 4.277869217320567 6.917324215592034 1.544040110410946 -0.5742702892509078 -0.8021109098811025 -0.23967797958475498
Ni 5.794354810555937 7.861732416081545 8.082692328211461 -1.5954484444449493 -0.23046443140628697 -0.17806046388327398
Ni 4.996955120317406 3.1494727488656262 4.787287466723111 0.8016172580741355 -1.0430669848473326 0.4143201618150993
Ni 0.9013577043925877 7.366319055418493 6.843919126077187 -0.7110334370472916 -0.3166336683052031 1.1259189844475577
Ni 5.089584815713789 4.457449123140125 7.1706923507857425 -0.2211495817632643 0.3198061524959137 -0.20488889693002776
Ni 8.027194744967698 7.093307114261893 9.070996637005019 0.051868663844833254 0.12881252549073943 0.7074341497318075
Ni 4.542136554629529 0.2987877878794563 10.397684660502362 -0.3397566274759116 0.41792279156469314 -0.7797775364912248
Ni 8.198958597657459 7.005861075785501 4.920420003528435 -0.44299798936576607 0.43989158252630045 -0.5754915632525186
Ni 7.112716528781446 6.0185953013870455 6.983806643978425 -0.08960371650176181 -0.17134602797757587 -0.3170247330960347
Ni 2.176225385789932 5.233014348926097 2.432659541363622 1.3973194919465741 -0.22679675274671265 0.9302976288623849
Ni 2.3177437272334775 5.246942609693728 11.263965685399302 0.21613181683369873 -0.4092810567292951 -0.16095877120598084
Ni 1.0546623294138682 3.3245270968176435 3.9041969693165757 -1.2831380861054482 0.2539581436528529 -1.3933527939893422
Ni 3.7816715468278823 2.518653254396864 2.5105333938962784 0.7444498077242082 -0.5324741791507281 0.36781456205439234
Ni 1.2362165323907797 3.418842607594963 8.079526240715285 -1.446452244917483 0.34724933630853094 0.7762913777148372
Ni 3.5450804299439223 2.669078470687283 7.0216482409999195 -0.1966549390560097 -0.30614202474525987 -0.20442352725783505
Ni 4.00436144811075 7.141537661256603 5.823038012681744 0.5025897328864699 -0.7401586365480219 -0.4554912367367704
Ni 0.6425958614854334 7.256614844880431 11.399353789093986 0.6237586257890225 0.2674641485590878 -0.7671408215638208
P 0.07250628848019779 5.575974105808298 7.974088855951541 0.7489294407621166 -0.3368569373306134 -0.023738995488152666
P 8.444600830276501 1.5142408444126254 7.968111874146401 -0.7415066659354843 1.1694382478864311 -0.16625652926981047
P 1.7642373488444607 3.2305541581498183 10.35314036970693 0.29695161649524343 0.34880073995605093 0.030862493906811363
P 3.879304598033997 6.124936896218748 3.738091866972344 -0.11791284785910015 0.9572931836146223 -0.5148744637910939
P 6.90347709032402 3.899299991161898 10.479213216540002 1.1016408286264834 -0.7131908497099265 -0.7861993808571686
P 6.247433470529799 7.646200468876023 10.295453930984602 0.0636196337331743 0.12902824104597135 -0.5363431751878311
P 2.371058765537537 8.6044918548556 5.75098337848275 -0.2222710969622172 0.8033800064015132 -0.9398127674416717
P 6.880578849320924 3.939380927972829 1.7670004633592042 0.8137441232446567 -0.6269910166833911 -0.6640573254080692
Ni 5.493819904918055 2.738386217471458 0.5364967716470317 -0.3238787799033906 0.3284594572955375 -0.29075371521464766
Ni 1.3463895258155196 1.131524692717962 7.008823423027082 0.4359842770520943 0.30194392750351223 -0.28733080557602775
Ni 6.789283382140469 0.7340499936429175 9.155071044719536 -0.21928398930943524 0.31666503576377075 0.17957201543179396
Ni 2.6613886283346684 1.5631114603487608 9.3049733877902 0.13821145020713616 -0.3270157828704755 -0.5617672716878906
Ni 6.4044396773447305 1.7357768185898248 2.534876748298113 0.3781622238373035 0.41276978660884395 0.7016249992491981
Ni 4.14104771979931 6.818420041558581 10.24111928990202 -0.44613936320822517 0.19171173611812145 0.05297938041050876
Ni 8.219891556558714 7.216966630734125 0.2377774981894744 -0.7215237950556542 -0.6475079056898203 0.40367322362421454
Ni 7.575071680878216 3.86158099889538 8.105637447503225 0.6252526938360458 -0.7113874779526006 0.29205109386983247
Ni 3.0296626610974577 8.444718025998169 12.405179759782667 0.04008966893203418 -1.0884484983059257 -0.40864110915245105
Ni 0.005404525780061493 4.741134890024153 10.124348177347292 0.040623429948317136 0.17529215710951745 0.2503115480392012
Ni 8.466399234507007 2.380200031827749 5.861354703128776 0.6457045339324944 0.5092162370640521 -0.06254465550144067
Ni 3.6432453694253066 2.9549458810054645 11.539545114366014 -0.8187806572272995 -1.354833040647589 -0.6725864459250029
Ni 1.2830948210585358 3.3302967323459822 12.588107857219766 -0.7904692118771159 0.59806842011177 0.4805751762885917
Ni 2.931335450616839 8.416320601132124 7.906758110841373 1.059383462619169 -0.29192305293240045 0.6995902282073564
Ni 5.808120800324334 7.957841922905957 3.4925037246863804 -0.5144432897909462 0.1829869546506139 0.10960689909656608
Ni 3.203094299057129 8.28873052045621 3.4473256754883814 0.4886314709341649 0.49631572695230003 0.7832184438519737
Ni 3.3102202037184645 4.2882365311605515 9.020672794120184 0.6507528949896794 0.2750792419021843 0.7691740499437656
Ni 7.2197612979431645 6.059893270692236 11.489445746363451 0.11828951447222852 -0.01056492000003987 -0.42923770235688014
Ni 0.5094218554247487 -0.028632717814934625 0.6542559342859863 0.23160085900357533 1.119794616717375 -1.2941773746387453
Ni 4.591430878174776 0.2723538421041497 1.3690425573086613 0.3148935456856448 0.19462171067606482 0.552336465292294
Ni 6.118662417581678 5.506504088024888 0.5826141896294881 -0.8128452655794711 1.19467311119382 -1.2059273439514004
Ni 7.875245984295576 8.806429098347472 11.192728716735338 0.33371016417151556 0.46923738267826937 0.4629263528585769
Ni 9.077800299400703 4.820909116258956 5.819106546972512 -0.06284958833636918 0.23748405725722974 0.3457989770152496
Ni 8.118643468091873 8.825108293370471 2.6253915116711397 -0.9949284774688929 -0.7355172811212687 -0.09943535788020294
P 8.447323377041435 1.6878617985380704 3.602610908205875 -0.23508110424269194 0.011092767479051864 0.6945243836486749
P 1.9944548214807079 3.157703494549023 1.626017616213133 -1.921545829266213 0.6298063746449992 0.058335759626415656
P 4.642438062267501 1.0983042131524465 8.233597145455173 0.2905274581364545 -0.15792564080661187 -0.04682133122891291
P 8.579357880085272 1.6629261549890295 12.449644718089587 -0.31816604578932944 -0.6971196551796769 -0.3206178497639317
P 6.404701113954608 7.7406872657080905 1.315296599351079 -0.14157908112778841 -0.3372809122419095 0.5435183527800317
P 1.6316258822477891 3.2609168651177036 5.996070283682188 1.0601545364572387 -1.0981772955579152 -0.3898671709790576
P 6.795584905944076 4.010780167636027 5.917550051669249 0.12990370167238918 -0.07044385574385932 -0.047922534712891665
P 2.2192632608091376 8.344119021528268 10.1303386817357 0.8800842412327876 0.12572694458688027 0.7868938358210318
