# total energy = -340872.7579098992 ev
CRYSTAL
PRIMVEC
9.19887548851028 0.00000000000000 0.00000000000000
0.00000000000000 9.19887548851028 0.00000000000000
0.00000000000000 0.00000000000000 13.46348411401758
PRIMCOORD
 96 1
Ni 1.9002760567992314 1.68186716124656 2.7103740876275357 0.7536836676176505 0.916055517121074 0.9044467292375521
Ni 8.806248876413765 5.279694461628926 2.356755523908207 1.5346783643454278 0.8252459532366692 -0.683145709498088
Ni 3.047219422178235 3.589428727260201 1.1405565862785443 -0.8804233697397612 0.22967638828735282 -0.24884524790631982
Ni 5.345475618689835 0.9701409826757932 8.670053088818086 -0.02799854209545501 0.04702907636434481 1.2834918699004412
Ni 5.157984142922048 5.860134292335998 2.6656482361737743 -0.9784353649098761 -0.0494849941040051 -0.3574324474891199
Ni 5.767087668972679 7.209931255184888 0.7559709288478691 -0.9710964080463018 0.16050445727738163 -0.642708427418648
Ni 1.1922938204636468 5.5553755546170915 10.508828225219876 0.15368589169365143 -0.09055785288491501 0.5182505793521784
Ni 0.32414628723947286 7.675513929261768 3.7804654495573216 -0.7562740540526459 -0.3493959503378886 -0.22802059785148474
Ni 6.401589289645765 5.0082724478911045 11.16257481284683 0.4950402026739861 -1.2637501684971395 0.3606974913936369
Ni 7.8795357838910345 6.686193291646526 10.431413250604088 0.658786306817117 1.601658687020719 0.9361438032305166
Ni 1.6669189889316425 0.4108769628419159 7.8252596601312145 -0.24676599677978792 0.048856616491386826 -1.3161680199772234
Ni -0.060596670958331544 7.486145882938755 13.317027751913868 1.091289053078514 3.069984849193158 -1.7187662653697044
Ni 5.926384592035713 0.9575109269290966 6.502216706119682 -0.40170350149235334 0.44974045029592224 -1.5516651287114116
Ni 4.111924842637015 8.157203833937675 12.344116068006533 0.2532739731016348 -0.2286248070943869 1.7310273421252447
Ni 3.60709056777998 1.5502680516236602 13.158750984118356 -0.3829143938103083 0.1293848530544417 1.1429183472190316
Ni 0.9999361396776506 3.455253932561499 9.283206879650416 -0.35169631633629106 -1.6156876543099594 -0.1773032740022753
Ni 7.3899348464823085 8.000022652186907 5.917860914209865 -0.9172778195639494 -0.1812280629779782 0.005552040166480761
Ni 2.0119963969621084 6.83652131132061 12.461113802912221 0.9353979262034278 -0.5727888196093748 -0.9693850817821498
Ni 3.329321330105362 6.235935943770664 0.8683545079177651 -0.04102375071052935 0.421683544158706 0.06415982250736046
Ni 5.69949433348344 8.9655457994768 10.879181382831694 -0.3806212269007574 -1.2622699844071874 -1.5940443650085707
Ni 7.89752878392056 4.778567333505991 9.028868097177844 1.2526522588117652 0.06145373643010707 -0.9950212942930154
Ni 8.227648820760837 6.9942176300865375 8.043947281604588 -1.0198895182896048 -0.74157402883831 0.33914676180605463
Ni 0.8739382252070912 7.876509353926968 9.099739911813568 -1.5931794459051143 -0.7384185139284638 -0.1378448108963368
Ni 5.337297818574166 8.0970983829188 4.876487520987736 -1.5196214700123054 -1.2987922477029374 0.6262963046092117
P 2.652670462941845 6.86546097292229 9.187602968961837 1.5446406177644625 -2.388519869831603 -1.188088773108083
P 5.5308697508958975 6.0288968580526 6.819779358327901 0.1095163962652888 -1.7903920572368068 -0.45030069367476644
P 1.3657662103188575 2.20442766875027 0.29441552236451046 0.20484878772071172 -0.04650997063608119 -0.07940183626809551
P 0.952267568024787 3.580910568759515 3.373841126753059 1.018346342172201 0.11082277378153818 -1.3014083451695457
P 2.9189779020291478 4.7135128875914685 12.279343107675295 -0.11216848917615521 1.1123682423463166 0.32392068888491954
P 3.7513841252764712 1.1076089747214115 11.093008318612021 0.22204175456023045 0.9023548797055297 -1.0496060715174311
P 2.479437243843673 3.8120967020632146 7.292442406700653 -0.8333729532191777 0.9479945319215158 -0.15246333214046
P 6.9241773937752855 5.329294797088641 1.5552474028077001 -1.1491591859224208 0.17319079449579852 0.3076651462580056
Ni 2.246659705118139 5.552321528027213 2.9259515693718794 -0.7625629723851512 -0.9444150421003734 -0.24852720244526877
Ni 0.38160798150554354 8.23509071085485 6.321765129596576 0.9320624340722915 -0.2779696760761019 -0.23502453997314363
Ni 7.145888685550146 2.681297362784321 7.789836631238731 0.09597928101080244 0.018906607096515825 0.4162382047734186
Ni 0.5019559467848276 5.245437850120771 13.286600632180912 1.503356671414011 -2.0561507930690133 1.1201962230311677
Ni 4.095587640156219 6.165205791814108 10.829420067054743 -0.23081538698780252 0.5719840643198923 0.7700767642636931
Ni 7.505951061396612 6.036338748146612 13.167125640164818 0.23442470160561563 -1.169066209258993 -1.3020359514512156
Ni 3.2968033060233717 4.233055632201838 9.692577066722988 0.3477949243993559 0.07988031856641081 -0.7922720694138098
Ni 6.13820709289455 1.8743996206626998 11.370221944220287 1.1046976131749362 -0.5212158326280895 0.35169271679186526
Ni 0.24569551926820363 3.374515404310402 6.6685848046033165 -0.6684294863338359 0.151953482383577 0.5401396661157859
Ni 5.220012158872505 5.200841702808328 13.08853964872707 -1.5878760314143299 0.624103410722951 -0.3740227477476332
Ni 7.133203436551825 4.708545494945281 6.167446637830055 0.11905853142776915 0.37366382174631774 1.179681008660362
Ni 2.117148740181692 2.0674380182187293 5.994050598639592 0.5966229459144952 -1.046374451954011 -0.9309653443533709
Ni 4.455769601381205 1.6044126314671099 2.1780820899749322 -0.7968365488560405 -0.055904010256471466 -0.5587598523201344
Ni 5.2077960525129905 5.032815047113382 4.746066787287015 0.18833536344672083 1.2753898096185972 2.064424860152348
Ni 2.3937865161980123 8.170946953592129 2.7564190577951173 0.1736541072854622 -0.2476972503448057 -0.9788590827108561
Ni 1.8635817433443347 5.550444957471987 5.337974855794091 -1.0655713365974357 -0.17255701756654152 0.18559559591805455
Ni 4.751945788472531 3.9522507656878823 7.205454162590629 0.6031098391904194 -0.6687732428264997 0.8056212370272061
Ni 1.1204230079735227 0.810925929602669 10.084055441394012 -0.5199840171035174 2.1656003406521087 1.1490601984507114
Ni 3.4913963135001524 0.44993262757880575 4.253693308871695 -0.2647315801192731 1.07343762671939 1.079370447264057
Ni 6.922245629968436 1.5268293174338692 1.799744308628129 0.3545319860128733 -0.5844685699401482 -0.003976982369877022
Ni 7.415710094990863 6.5179458629450835 4.0524007605352494 -1.223177646391416 -0.3423454712490104 -0.29464096608419577
Ni 8.312968388896753 1.0473471428229342 6.035491531734179 1.0520218800477752 1.5949079985604466 -1.1121838942496522
Ni 6.808841895631017 9.097779631493378 13.121309721991478 0.4939474838304396 0.9010919538327061 -0.3223610577072835
Ni 7.831149699967055 0.08940110909353262 8.023886374414205 -0.05999463538607732 0.4309662550122126 0.7600278646681233
P 5.700193448004015 1.8878299785579489 0.04385287819056959 0.4991804500946049 0.39367754586408327 1.0161254232614823
P 6.124482370990638 7.19037444635934 12.002467080789465 -0.8803308100259548 -0.5308070758609504 -0.48136347651784195
P 5.714010158660634 3.178901321678572 9.63278621723837 -0.341694725038889 0.6658110748743824 -1.0698393678451705
P 3.6890617453173533 8.73359615952563 0.9086225844153356 -0.4329064094577189 -0.06995020393689243 0.17653939925305723
P 7.080723853132375 2.77691047234817 5.148530458806332 -1.2460388672603058 -0.5864298074315772 2.152501855596938
P 6.978717525255377 8.663151172702467 3.5052047451690282 0.9598054085135148 -0.7660563302503903 -0.4563643833703431
P 3.9038094885122785 3.7836169842250693 3.3631787104267685 7.353355041277658e-05 0.32837589644279574 -3.04233649134827
P 1.2415629964136154 0.33134716680139137 4.459765592798805 0.020583480578306487 0.11846923458320241 0.5631543818434044
Ni 5.420584435275252 3.832039863650132 1.3910336809124675 -0.8480786348604685 -2.3038560138336197 -0.7404268026077442
Ni 7.858286382015675 7.997272188480962 1.566125992702852 -0.5104722209583402 0.08266250929723828 2.3169419004833003
Ni 8.462229339039432 2.1999018221170767 3.776210969744614 1.4877295063997151 -1.322263077131368 -1.2754903397522035
Ni 7.903250484338947 2.9680722993489725 10.341584393810468 1.317614779726079 -1.3181194872766395 0.7964380278660412
Ni 4.9030097181682715 8.175114044089764 2.5686985300330907 -0.44645663733832786 1.755523527494396 1.1466405332656253
Ni 8.764099629923333 1.5933739811422474 12.612901684091769 1.1225598381673376 -1.1600413800525635 -0.3966011472687815
Ni 2.7655866568899157 8.56104365719749 10.50042689243513 0.8174143730073922 -1.349551480533676 -0.54974530752635
Ni 1.8347248716200906 9.199335214482113 12.82859967110216 -0.4482492104623764 0.8654862888139546 0.5100222779051152
Ni 9.541165419542013 0.6559543176919272 1.445143305029888 -1.189184834385739 -1.2148429012734756 -0.5245734362464127
Ni 8.038933894582046 0.16533782445331446 10.799800608570557 -0.052961639798695885 -0.06209651222042854 -0.7370224049118856
Ni 5.781667886276769 1.1003510621328145 4.062041181818962 1.2466677590935562 1.5688565528890337 0.17844021582019592
Ni 0.8653989092932831 5.344693714291823 8.079638917654977 0.9609819453201193 1.5833084666483055 -1.1910663676791682
Ni 8.802486536428042 4.618902455432129 4.508839752593035 0.03640270699875021 0.09734659367197429 2.1450513128561637
Ni 1.9598847685534875 2.767104471309584 11.360380067568148 0.605208373590661 -0.10701934087504796 1.2026800406586966
Ni 3.1270748584033434 2.1160632728997473 8.344775339920316 1.0298538285911683 -0.04149863346441886 1.1442663766064938
Ni 2.6783721204482327 7.9887632288555475 5.905527982134413 1.1803219846784705 -0.13016261176073066 -0.04243554345639143
Ni 8.755277908538714 3.0960562509904803 1.430993595088469 1.9084118629874167 -0.477920512274564 1.0736643980182154
Ni 3.306351738554378 5.841708945168748 7.1898777070947215 0.27797584672368897 0.9537512318996348 1.1743588251165
Ni 5.047570043047614 7.904768298758616 7.354590008029627 -0.5932185482186364 1.543865944381967 0.5816041039081596
Ni 4.326709381333023 2.9427477957286845 5.128200944458043 0.18204001735631228 -2.6340923605239217 1.0866232721717286
Ni 4.539635747224347 3.3799335418448555 11.712598562471271 -0.9946752238075063 0.3376742910255862 -0.06121076718136555
Ni 5.703413054348766 5.362254367183626 9.063792547030655 -1.351079487142428 0.7494423758427932 -1.9758123039192617
Ni 6.610054201030788 3.826934487874883 3.259671126105589 1.2623982824549356 -0.46317343587237647 1.0585815355431638
Ni 7.408801739662553 3.22201645007243 13.162305429522963 -1.9287279488369493 2.2803247634808983 -1.2252566404076317
P -0.26077799516207384 6.128345898604339 6.253505795537736 0.4868612664076196 -0.6290931506280585 -1.6053639037864482
P 0.9085793497015633 6.9125408165578275 1.6011985444475207 0.8024304980040504 0.20104124104916343 0.8594375115167134
P 6.449359048926606 7.997318182857316 9.032018711958065 -0.19002277845147275 -0.19040870103598176 0.6764443862185124
P 9.082353117664384 1.7069156986087268 8.598157439364732 -0.3299576391076189 1.0929543565960789 -0.6390402345384414
P 0.6431513230901411 8.134455015393188 11.252079869230922 -0.6342824081384818 -0.15676530194992355 0.27452748316377235
P 3.7876000972172905 0.5261719859349943 6.846383425498346 -0.41840307363522133 0.42454029688121075 -0.4088239145872185
P 3.6503528781781696 6.5560843998174825 4.292872238537212 -0.3659944781265181 1.3181793939802975 0.4238851797957151
P 8.640383956407439 4.741578656042432 11.550282568544388 -1.285657252982876 -0.6121017582763846 -1.1057479088163216
