# total energy = -340875.19269990013 ev
CRYSTAL
PRIMVEC
9.24549438328756 0.00000000000000 0.00000000000000
0.00000000000000 9.24549438328756 0.00000000000000
0.00000000000000 0.00000000000000 13.53171557883572
PRIMCOORD
 96 1
Ni 4.66866946728922 6.481128412842051 12.31746034316773 2.0959219023193643 -1.2711117510685332 0.10502442193220624
Ni 1.2801403717675266 8.914376066134468 2.5922710780000133 -0.11439583584477717 0.12144142983764891 -0.5365182673131147
Ni -0.2751643982388191 3.6060848194299537 3.1165164862540324 -0.12974840704144752 -0.8199368823189298 0.048831419680406225
Ni 8.013504357244194 1.577845284854348 9.001838441221466 -0.5832213277966085 0.8227129024021703 0.309349475938964
Ni 0.38644131727392356 7.068161821274804 12.318285965799367 0.23591131345347113 0.7551322271387189 0.10787628955870454
Ni 5.384021089657748 0.6317362974161714 7.785513244037763 -1.2764110517942597 0.9210023196033881 0.035033594565365464
Ni 3.394020919073667 0.5181239665473486 1.9463753062238274 0.22562458681548236 0.24982098155602783 1.5968314408354047
Ni 9.070661900010853 8.658608714717268 9.912874646429987 -0.8136137683143794 -0.23644276047690893 -1.6008953264921333
Ni 2.6227063203413334 0.6915518712111344 8.195577723529953 -0.8170145664658124 -0.6865261959345467 0.6323024015939755
Ni 8.626184766574552 0.2681785028248936 4.248823254938464 0.47609014393404453 -0.5584600616915285 0.6117592873353013
Ni 7.320110783589368 7.241912393686003 4.747872842411607 0.8178136653283399 -0.047445337966157 2.118924790972441
Ni 0.4146539428107072 5.138405290866926 6.044413796332075 -0.04505395491584498 0.9318778288653111 -1.4585469712984882
Ni 5.3549625014021 2.9679423190858985 4.232490164893148 -1.9652365852859444 0.4871456304172579 -1.1057962455557537
Ni 3.9883582679206615 2.6890519866863962 8.848145043917425 0.4774312313429714 -0.3573488866363781 -0.04416846698709812
Ni 8.296638371479313 7.649361322870358 2.753163017084469 0.19469421578521307 -0.11427473688588062 -2.435993232822218
Ni 1.4991014107934644 5.27619089085863 3.4213321089264146 1.536864059142837 -1.2856739651534246 -0.5195489864486279
Ni 3.1007076157295863 6.88209625059554 2.136238001369077 -0.9007181154330552 0.8646298543509302 1.0116846138813091
Ni 0.4856029407155817 0.47985686607323824 11.79992623915004 -0.5604182138591639 1.1896296352326414 1.5907206999519765
Ni 6.324740878529517 0.08589896201858223 3.194499456142647 0.24220820220577644 0.6998190563887109 0.28177130921037924
Ni 4.443735839013155 8.494621384176245 0.40596317826717887 0.32231812028449003 -1.3154974762727605 -0.11686949419625034
Ni 5.519365879181909 2.920189341567469 6.473234609898152 -1.572486693442453 -1.044592934573556 -0.9993780285998143
Ni 0.06838244871627504 2.983465503839711 11.245545142566625 -0.19033491037525285 0.04262889041412013 1.2966253219586057
Ni 7.3167454237023 6.4161973071088605 11.208712018242199 -0.23542023274966553 0.6794842014861008 -0.24392878444130892
Ni 6.965268716375945 5.933240426831957 7.1769646460632615 -0.8473124461184052 0.777922485560357 0.581308941265244
P 7.687147657646316 2.240673254699702 6.572800261436144 -0.5008496102669117 0.06406674857292192 0.84646603895771
P 8.886242027298342 2.0874939068729175 -0.17952808173380702 -0.24086840034843032 -0.2731678838120844 -0.6921412281284789
P 2.661611359914916 4.05947460927047 1.6405445282888071 -1.0141945247873565 1.2385798398790993 0.23550482204367185
P 1.408883878436284 4.922513755913808 11.658479423457019 -0.051315362444524525 0.02042767172673256 0.7366958748104022
P 6.2086359624256575 7.863006202734031 1.692533791247497 -0.3905911936292757 -0.7885388276236226 -0.38544667331385873
P 1.8683756944456607 7.493611727657296 8.706602999634192 1.5261057921850683 3.169486284424606 0.49155018724285676
P 5.28740567531746 5.078059950254575 5.488396247276104 -0.22746061158295666 0.04653645299864244 -0.7577660652171402
P 3.389767991743856 4.7440572269572305 8.867441314852316 1.1589352914725783 -0.2556327031417985 1.428689007396791
Ni 6.628076297581242 3.8590415406117993 1.111715204012787 -0.019949446538733387 -0.3067539472976459 -0.5217017711255724
Ni 4.772052583380425 4.0097708324768435 10.878565590573688 -0.8685225045371172 0.23112803313221483 -0.3703841225537815
Ni 8.635504224723356 5.0127775157419645 12.869541160795368 -0.6761361109494742 -0.3611813730085909 -1.5533042069767313
Ni 4.197371155192518 0.6896047701336161 4.5281851075419235 0.5789710371606868 0.38599431828721265 0.5316077173853748
Ni 7.326582629526038 7.114139663907747 13.551201277767012 -0.8751261258965639 -0.752885082975755 0.12500035083350086
Ni 4.607057493972121 0.982148848360653 11.177237582353332 0.011451436370051245 0.2436793874346642 -0.5092180368362649
Ni 2.5030881164432808 2.142319687450708 11.475179180091551 -0.17477973624947318 0.3199951285782683 0.35677887306552103
Ni 1.9033051715152882 2.974441901505154 7.314581978060613 0.7877821519632562 0.08731517757790123 0.2868489808436028
Ni 2.9711505055716474 2.4746119943219327 3.774685651574403 -1.647768079784272 1.0430731554949197 -0.3232365183337014
Ni 2.165655314799501 8.981128534224121 10.40395369335741 0.3415078058390635 -0.3334918775131224 0.9119157839210876
Ni 7.442964910455756 8.681805659653131 7.944429421012696 0.8914330905867034 0.17107091993931828 -2.9854516052357685
Ni 1.8310978618504414 9.074831617892908 5.9041171201169425 1.2202049369163375 -0.1916734266810183 -0.9540330248061116
Ni 5.050998388745099 5.847201857851027 1.2686916763055573 0.6638344107639857 0.0683409504682436 -0.30643975849133676
Ni 4.267230109331773 5.969612200996043 7.332268608456112 1.006489185723299 0.04559362946939889 0.12992324205641495
Ni 7.390995987584295 2.266375728562477 4.293937568413571 1.7509659900307004 -0.9379615731655457 -0.37622849714970047
Ni 8.310293966405688 5.3419725820577835 1.6241032659614068 0.6405458725496904 2.2192183830878816 0.3359192560076924
Ni 1.5191641331971413 1.9201966894099973 0.8854724137586759 2.662084989082106 -3.3526480740901867 0.45655181679080087
Ni 0.2648510494640256 1.016717751156666 7.1075873821715785 -1.0579390168631586 -0.5041398509824092 1.3828110139177539
Ni 6.492259987853124 9.02485972176762 9.833050898647098 -0.8291288332308431 0.30854446353916537 2.675498177164218
Ni 0.6032712698878575 6.398945214940538 9.986162754366259 -1.1893725249165128 -1.8132468503477934 0.9962829346142582
Ni 1.4793530351924256 3.816410566877534 9.639777540693224 0.9848088725363878 0.11001056229288796 -0.22417834128725908
Ni 2.9075877329793527 6.4465132825750615 10.809769868266887 -0.6223288353210314 -0.2280105705491557 -0.5832987180017631
Ni 4.294439598748373 2.707755621443373 1.6264849052661012 0.004772995908611135 0.6034481963664446 -0.48565439058371196
Ni 8.82310454743903 4.035621234246744 7.963929092819883 0.407135214030886 0.20334957746736593 0.027654528492474954
P 5.982149091124792 2.286817516228159 10.092589487146538 0.5412400982688161 -0.07149980781219945 -0.4686192894782961
P 5.552686640261564 7.641964927514164 8.050586185362475 0.9874846195963382 0.0506234785838225 -1.2971868508890303
P 0.9079639274874435 6.974357037169869 1.1308829625783645 -0.7085122132873347 0.9253572541379741 -0.05274309602998658
P 8.987286033358153 8.274347484974582 6.007648164115272 -0.18312605133163945 0.08356805183064317 0.9023728774276587
P 0.8125763147762834 1.5206619032567708 9.749099962255455 1.3105193063318785 0.2085010397613183 -0.4158024027875807
P 7.5692028881976015 5.483179014901728 9.242905456868229 0.6428151281998414 0.14522773362396926 -0.8414408178289766
P 2.2246508132593457 4.01209145151985 5.4312785086873125 0.1641770210329624 0.9547737596268783 -0.8071716122334615
P 6.155797963099844 2.1055411115420313 2.3808784005223016 1.5629710406425341 -0.12191734103280291 0.3967011631817555
Ni 7.236660952983105 4.133225916465922 10.882286901987275 -0.5451939407102416 -2.0710539354330915 -0.513177021484013
Ni 7.39499004107664 4.350189928745688 5.50476909294646 0.14843132816293145 -0.40446486628757444 0.08797337998719043
Ni 6.548546556513763 3.538796112676976 8.226268141511062 0.554721934805335 0.4795953288738256 2.84001329826289
Ni 5.419949080100462 2.5156157610778354 12.851218440399236 -1.2373891620051078 2.455128668100088 -1.0304981470433865
Ni 3.2473319081719434 6.487979324040726 5.382416071865454 -1.3931800158569039 -1.1795354842214332 -1.4886193652038362
Ni 1.7304144300642461 5.667977952876243 7.868976942885318 0.44973916474434156 -1.7072035002327697 -1.0171260966118545
Ni 6.574480167731418 0.42619047046753133 5.6895717291186525 0.8078647816457443 0.40496391741117993 0.10866253290542575
Ni 5.182460070707258 6.177034863266317 9.69290307488851 0.4617037933053856 -1.0050377979887528 0.07589279467357252
Ni 7.348956725478526 1.4478351454808422 11.975012785472453 0.007584497215477261 -0.5348699330764143 -1.3441380228275883
Ni 4.118479353224511 8.28735589530729 9.384853378346632 -0.9118080546986297 0.5058545196806706 0.5799339152945884
Ni 4.063755273082868 4.784829856358251 3.4110751576662124 -0.9117831149979653 0.28541199128676004 -0.21792336151648276
Ni 5.390206325274366 7.039223424443694 3.6275685742914394 -2.5932030785087274 0.6742028984825034 -0.8627462641749722
Ni 9.057459334300047 7.1754187994338166 7.91709511742446 0.5864884285836545 -1.1763923106067609 -0.9433788875263752
Ni 0.5373888028019762 3.7579882890577947 0.8268226967817333 -0.2134614690903872 2.5584404782165615 0.6936967455410569
Ni 3.445416621305023 4.201171053306762 12.971854573208185 -0.5400249949147925 -0.2721872650663699 0.4603907309209168
Ni 0.9188902525273814 7.325445433740023 4.347807364891573 -0.2470606452020713 0.22470798853848398 1.079677694091831
Ni 2.5964398713326484 6.380306298642927 13.344138265220932 -0.8133474020268702 0.1111215359688796 0.0958592104931704
Ni 0.3388621550463645 2.724064673203781 5.542009019015478 -0.14161816189583998 0.23972991586861297 -1.5430714735051296
Ni 6.171626249162101 0.8903262982111786 0.5237017731953386 1.1462489542541616 -1.7433282709797848 2.2103475629608127
Ni 2.035756121356338 8.874435531211018 13.53956397422346 0.2928460789673021 -0.47067257246289906 -0.46269521068437736
Ni 8.49463062967044 1.3886547371370925 1.8697717640691425 -0.741554231343968 0.6261063000855928 1.0768602792476938
Ni 8.773493225587357 8.890254571779078 0.363602172963415 0.3181763302019746 -0.0728123559760359 -0.045305151694702624
Ni 6.511074568540443 5.075230829030831 3.383645625487766 0.6691149424366347 -0.7215119679811123 -0.36145725237779686
Ni 4.891263985533888 8.061775082437558 5.787934541861842 0.46955517102900424 -0.46373496480280135 1.198574246020439
P 7.743082897527535 8.485930619632716 11.61184884893389 0.39716678996426436 0.35407818630490634 1.314933119128858
P 8.675232113280314 5.6008371740303895 3.867039817640104 -0.841505609628641 0.6699294679181301 0.8658413581605281
P 3.03462082322199 8.261801349351638 4.022830093027625 -0.25897616569273463 -0.8887912820884821 -0.34381408537473696
P 3.972289599009329 8.362660445527542 11.867896338825208 -1.7665617875864286 -0.30362002965435453 -1.4399365552861523
P 3.5478751879767043 1.4364631876206937 13.417602037546914 -0.02134118467993744 0.09924535335658391 -0.5825829228816612
P 6.004883761350895 4.829513329803861 12.614359973710146 0.6376526101622955 -0.4586030428928747 0.9769320408914722
P 0.8091453118804288 1.7119049506853699 3.5670142855102767 0.5127088235983428 0.22716416338846038 -0.8258483627073583
P 3.615801833829154 1.6093354380833453 6.574857383894585 0.5762469533613044 0.09704166083704577 -0.2529960368498998
