# total energy = -340888.06972988567 ev
CRYSTAL
PRIMVEC
9.07491870892253 0.00000000000000 0.00000000000000
0.00000000000000 9.07491870892253 0.00000000000000
0.00000000000000 0.00000000000000 13.28206083734759
PRIMCOORD
 96 1
Ni 6.222127246994854 2.1528701843333677 11.450796828308675 2.420276336307593 -0.6948293164836034 -1.040076534760441
Ni 4.59662781218691 0.2533190951491508 5.969157536215065 -0.3794876275169465 -0.7618528336920041 -1.591381216354111
Ni 2.646273513221866 1.5737360986302718 4.720710082855024 0.32952440822494217 -0.3363270329690724 0.8098278189093858
Ni 3.039653088367326 3.925628324638344 4.800960496275915 1.3909197590678175 0.771827942626845 -0.15987376567191822
Ni 5.174264536307027 4.883195594413157 2.6098186573734576 0.3244346524068606 -0.12447970244334047 -0.03956542099744799
Ni 7.402828617389686 6.2977213196386135 2.537710260996501 -0.6376991471295146 0.4812616608326551 -0.4045324863007162
Ni 4.800604759463475 4.604777089165794 11.373760751085914 0.8941666874677825 1.3291189237109367 0.5301660998428418
Ni 5.6669872462941715 7.916169542628525 12.45573063615841 -0.5116004210255124 0.11782825856509384 0.9803156126517246
Ni 1.8744244543299504 6.290053013350021 0.4279414029562348 -2.159127074222939 0.8575814321445812 0.33384540419779923
Ni 2.997844937986798 1.6090647570699064 0.3262660140125758 -0.4944804735157742 -0.2535621937660149 0.14433864615079656
Ni 0.7980292918054792 9.077550411143577 4.416418076945641 -0.6489055573682954 -1.0490219168791868 0.8231145087159629
Ni 8.745190589234209 2.48164541336227 1.378305909770982 0.19680997657663524 -0.12891588383782313 0.3747976782404448
Ni 7.471543901670424 0.5985417068022487 4.772603190369888 -1.45122086995072 -0.3674232401532446 0.24534083429748715
Ni 0.7107421864364517 7.310700042902358 2.413071697813014 0.32752614684799075 0.9670590047521345 -0.04583711293877268
Ni 7.511328345184259 4.247334192011845 3.7650794007275312 -0.3686427143826425 -1.247928885194167 0.29638314558628315
Ni 7.731631071174642 3.859971287954358 12.789282902382952 0.3223446026470513 -0.7655847899306105 -1.3067798938941044
Ni 8.288958127278343 8.811972915835101 6.917522838443568 -0.01564490562610854 -0.6002332889735726 -0.1715756274898787
Ni 7.03818930971875 0.9779313873033363 0.3886161503278475 -0.857783006632426 -0.0026343522990535276 -0.44480444644688555
Ni 2.079753564490538 6.3692861283863555 8.979735492608402 -0.7817642279039504 0.6423623569331388 1.1165149175248383
Ni 0.06243816302651347 4.938616122820774 1.3330674401276277 -0.614644065082264 0.13745143211266006 0.5478396058632049
Ni 6.505781980323304 1.3625536659180362 7.152761973097141 0.3026083005603885 0.7908996145463153 -1.1348710514345228
Ni 3.5195620131716385 4.4225527219765155 0.7298521502027457 0.21260169219325317 -0.31519230787298624 -0.1549652726267073
Ni 5.899922259093693 5.88153647383844 5.141446000375588 -0.1856354480170545 -0.9763895381244408 -1.0753016765113221
Ni 5.249141690374693 2.9373969046278448 8.9532512499189 0.012237165496140215 -1.9894121540908836 2.0193547072865865
P 8.991583706443178 5.739305273292745 12.48573503980572 1.3083073862822243 0.4268110951932585 1.2013659498329634
P 3.648253435039724 6.154873024622357 12.746249637979988 2.872453678179782 -0.36881215008097123 -1.9007368629406622
P 2.4857200518517115 8.542674703865886 1.3668969220005456 -0.9573278935072995 0.4035708937183953 -0.5574365055230206
P 6.6030106591114475 7.917122409090422 5.64070537429134 -1.2685761291308735 -0.40311555134853155 0.7841023891188238
P 4.897361542480013 0.8803714739832 12.632952908168669 -0.387316636643062 0.5536397574847497 1.0538350219971142
P 4.1857427188986165 6.350582720977136 8.25563774834364 0.6396238749560532 -1.4574665937501157 0.4304895724861102
P 4.739394432935005 1.2275461006453823 3.8171975662257753 0.6136073962876336 -0.9863304513872369 1.8798499921893237
P 0.09790566772202422 5.56507590946471 3.6057338110343133 1.5303082603021902 -0.25100266056895487 -0.7110879444343109
Ni 1.5832284635744944 1.2104217290873063 2.544497392680807 0.022232329035639133 0.7693781955347717 -0.540277734355547
Ni 1.7423843874672016 6.414397549168123 4.923168796235633 0.5096656658966449 -2.09478521761176 -2.1380530271614595
Ni 6.2203757876887025 5.89063861727922 9.266003802518052 -1.460484297530517 -0.720713640449533 -0.016851524339700007
Ni 8.578402658727649 2.222983006091553 10.263805631773462 0.9886788970147553 1.0478770046414663 0.33614499886525334
Ni 2.5539271406861044 5.099033460410657 7.096963928072241 -0.02789544085868744 -0.7552633533999444 -0.5649587820419948
Ni 0.8266588452720497 8.792734088223483 8.924854014370657 -0.6897896971771669 0.12698421403274907 -0.14274199108763802
Ni 1.4359516082400923 0.7870903848229117 11.321482867018819 -0.12925784055827416 0.11518670717718872 0.7530141523544515
Ni 4.058330860565078 7.080296932415875 1.3815601756113243 1.045170918564213 -0.3419523495756498 0.3026098432222853
Ni 5.8119862970387075 8.09931047660496 7.787511697959573 0.11539625208483353 -0.30062263758892743 0.47495551610896913
Ni 5.189728197745799 2.6307735521083564 5.5168899062325565 0.008411621102462932 0.043832938024550315 -0.6592925570295742
Ni 0.7537818032824971 7.024159485432166 6.873798065236826 0.1895242415484994 0.7332685942964081 1.0639947361389352
Ni 5.350653730782027 4.529437114245207 7.457438755558756 -2.028075374989036 1.3131390033429124 -1.7791085139031875
Ni 8.060388150366176 7.350620610196462 9.077518648928182 -0.6949568432004031 0.6986155229989129 -0.6963881763302909
Ni 4.727941885554881 0.2903030187568791 10.483131896513369 -1.6143020868163422 0.4643772263724905 -0.8113542828562413
Ni 8.38525208944196 6.988304481708817 4.856160504159493 -0.32128042304859505 1.1819692904739063 0.505695111284671
Ni 7.245886973656052 6.069541564229889 7.0366901331520335 1.166493049215178 0.18654793252899488 0.17826795190838976
Ni 2.201366549784538 5.233550980074336 2.707826871676619 0.6366948742347164 0.624817148960524 0.04743762465667314
Ni 2.067357225567204 5.333983105158187 11.398930038058 0.07523099271985753 0.2881676996550263 -0.47691803915197856
Ni 0.9242078686897642 3.5276477657197285 3.807395746554404 -0.8217112006105333 -1.1601899898152859 -0.09481174306526252
Ni 3.836530772991714 2.5379915834757276 2.566824415120836 -0.7483134044446725 2.3506053541740166 -0.8657601113006316
Ni 1.1225311416257446 3.5249797396264198 8.37710190497121 -1.072521542663024 -0.0007301932978051941 0.31250421951786184
Ni 3.48651115932187 2.8185971441261093 7.246001317631479 -0.325407043622459 -0.24093807724410124 -0.1711501099166859
Ni 3.8595901413696 6.798947228433345 6.1553186031297775 1.5924803629555606 -0.29326285478974656 -0.8191002453502474
Ni 0.47704397297554485 7.162443096350005 10.784329355151261 1.2452744782904552 0.3624083034371565 1.0685183350409018
P 0.025764601637802767 5.580612170252959 8.310545543845567 -0.02812401192972576 -0.8242205972959482 -0.04858870754198084
P 8.617388509397227 1.4626318691731837 8.112589805116318 0.34555240822208233 1.087937620107778 0.06557778590080963
P 1.8823922329351388 3.2755646744954374 10.647763626340438 -0.5547900690391091 -0.13400769653843375 0.31583816898710126
P 3.842456694892839 5.821360688040028 4.081670643930321 0.2034123123845013 0.525229838883489 -0.011938660419114924
P 6.685855591784302 3.9678720711157385 10.393371875802753 -0.2860941049554492 0.03578307113688031 -0.19912062698768287
P 6.156079988807426 7.870105255384861 10.224876045599729 1.602954008793375 0.017605628896905163 -0.2730007621066008
P 2.4419063444418594 8.190141337720375 5.568238518626337 -0.5787242112572033 4.103033787682857 1.1031726918899776
P 6.856672786186881 3.779395084952685 1.5107815727305978 0.02208629037607809 1.0286302405967123 0.23156563489026571
Ni 5.337885320192619 3.1085589459404432 0.10306929645363275 0.21845223743675926 -0.4985142772655156 1.5109653369992042
Ni 1.5772208674052064 1.0552496944971934 7.186790195689254 -0.15884326752487485 0.663960909039521 -1.6216410436799167
Ni 6.959555139315609 0.8337000746795278 9.357132320966322 -0.963948741257927 -1.3426948626231585 0.5988731754012525
Ni 2.546848704112019 1.626543050456687 9.474200586983013 1.2743942784745472 -0.512973133003323 -1.3997671821561184
Ni 6.53033871028417 2.076368619821136 2.8726836594870706 0.044143013065801394 -0.09870259347923646 -0.32698544385317235
Ni 4.1752884125738134 6.833631567646364 10.639382031443228 -0.6886057041713948 0.09648578833357577 -0.770238486652538
Ni 8.057656599842073 7.732429664018898 0.2646082939929487 -0.23269717739154763 -2.0687774806940884 0.2105584365109793
Ni 7.417493685984202 3.703183917838364 8.117411309413512 1.9759565428066102 -0.13808083816654285 0.4638951445297495
Ni 2.972108468596918 8.30642734574644 12.42473071393139 0.5092206079394263 0.04960377907005651 0.1924254743556944
Ni 8.623940600687598 4.80983395176584 10.505300107876415 2.1766599409003806 -1.1581079104752765 -1.5380382819565963
Ni 8.453940148966645 2.4111695948566956 5.981244420411251 0.40031304890272995 0.39491553203624247 -0.05179744428726563
Ni 3.98794579124635 2.542456443468612 11.514205100142586 -2.98709119772172 -0.7402231712373702 -1.050759468395584
Ni 1.2604063812027717 3.6216003988626864 12.917800085812292 -0.12649030511546602 -0.8040981155144603 -0.9525824084025143
Ni 3.297299104745354 8.350422551529986 7.960350784245109 -0.8302238660672346 0.7669976111177372 0.3037339295243995
Ni 5.33010811487981 7.433810389779337 3.562274932945034 0.43873047233866375 0.8082285927430661 -0.269712064053
Ni 3.3104305120821507 8.652680868162122 3.3269169168566903 -1.0460283814685019 -0.1583879251550111 1.753634023781167
Ni 3.3512857960007825 4.355180525661117 9.434048609262446 0.41009352532826143 -0.04049821722436252 -0.4340855173674847
Ni 7.2619768044840685 6.351236115122437 11.401812232232269 -1.3452772786383542 0.4316532537769082 0.6522135386956057
Ni 0.6510110716535918 0.25505421960167024 0.4474370507666296 0.669957235832272 -0.5604668077089122 0.3567842723821597
Ni 4.8590653856304735 0.562776544773879 1.7105831499203195 0.4393351958021982 -1.1506985053850827 -0.9694902399014463
Ni 6.185528099939358 5.590050085685073 0.16782700869596193 -0.9934395516281922 0.5822772187157843 1.2082032844697708
Ni 7.852853834965199 8.834088492669776 11.466416578348824 0.16456757160316174 0.29053594277688677 -0.7401750916082543
Ni 0.25076722801500617 4.716389514069227 6.010292327629187 -1.2746711862850175 0.9347736623558675 0.1504110775971216
Ni 7.929055927160835 8.985086064664914 2.43558475608608 0.7992289603476171 -0.0919436774888481 0.2106476537906759
P 8.669968588256523 1.7797004530987908 3.503409565404697 0.30455642542569483 -0.03698069098940728 0.35661432246319874
P 1.916414103084173 3.284349195782251 1.6990806904874307 -0.416892807638282 -0.510420027564166 -0.26898315630677544
P 4.56380383130426 1.0691070953287685 8.00627985520037 -0.24538197194806768 0.19854547121050323 1.1170427650038504
P 8.769665644926912 1.5228893292397576 12.36528001413589 -1.1627186697744105 1.6650803458104741 0.28809905120061996
P 6.273209964271172 7.887547249096903 1.5543865570107014 -0.35797263626330605 -0.39765324268237967 -0.8646529942793817
P 1.5843356036540306 3.109965558336575 6.129617525922767 0.5713114637329 -1.2733193002428134 0.28458075363471635
P 6.774054726481144 4.055871557601517 5.875240295254978 1.2942791903239323 -0.3849316813506532 0.6256111056167291
P 2.452342500929293 8.259437416796935 10.096837110385074 0.7736583109673643 0.44680810714047564 1.6920797572174535
