# total energy = -381170.8797581431 ev
CRYSTAL
PRIMVEC
9.21556218274367 0.00000000000000 0.00000000000000
0.00000000000000 9.21556218274367 0.00000000000000
0.00000000000000 0.00000000000000 13.48790677774261
PRIMCOORD
 96 1
Ni 1.13045460171276 3.1877920329414975 3.2870703645258663 0.5018507978379163 -0.8598357753963966 -0.3772638803927503
Ni 3.402708162384737 0.5713381402472213 7.6861651276311145 -0.6125180198781968 0.3275269181789392 0.6582941976720469
Ni 8.46978374649096 6.908879443214619 12.375100385155351 1.6829204593156886 -2.6514529632895565 -1.1613253889713095
Ni 0.12170163788175302 2.2308756857437944 11.036439504942605 -0.18672431020585908 -0.5827284473205899 -0.12442390950474055
Ni 0.624555248119777 4.714045821801364 10.784674027907421 -0.47962258256733525 0.8081833413274275 0.6618258649743892
Ni 4.755460558978926 3.4819712141124204 0.5642854703847408 -0.9032766201888509 -0.2159011888801314 -4.489703791880855
Ni 5.696406336633079 2.1959671355816663 3.9401818756834963 -0.14703907580109515 -0.030054139072903076 -0.6245523253349115
Ni 8.262728491727842 4.17384798827348 2.6584934449988156 -0.09748594746331599 1.1471519256844052 -0.7112036440765687
Ni 7.529906974068805 8.446606607193772 -0.011510237368663686 -1.9856434310770708 -0.48505995153282266 1.5314038073592142
Ni 2.1656755821542863 3.3182383179322374 10.006044714501053 0.9098614724952201 -0.356710738831747 0.21219031568744748
Ni 0.9423465431305637 5.69874708946866 2.7665449919354415 -0.19246121268963629 -1.0909018449424244 0.6868164734814559
Ni 6.950911623069284 5.5694896120204005 1.0818664708060006 -0.3894766204088583 -0.1788194535364856 0.8342221885933504
Ni 6.474181367410083 5.812679086737507 12.416805412546774 -1.4466013689008377 -0.0018385958706355432 -1.6709002949263612
Ni 6.8838223291990905 6.436775399852512 5.819303232950954 1.259931823192314 -0.6361845102572011 0.5769555493925549
Ni 8.643497096690568 3.8332131573223864 12.726744126883549 -0.8262180873419512 0.8436612225190632 0.623751683810487
Ni 1.2409952720387174 0.3775339425797 6.7419035906452995 -0.887721188952755 -1.2429869678078593 0.2678282167667258
Ni 3.974414003569516 8.171199526519219 11.347065700230305 0.014845549653264758 -1.5216361864494892 0.2430245274594847
Ni 0.05192508603181389 6.926914298723407 9.559662227199535 0.8211882382275276 0.41490688755650473 1.7598154700015305
Ni 4.8054549846995025 0.3624029107657617 9.761859037494474 -0.5356397213629033 0.31915874871990196 0.0011994196247398698
Ni 1.2262872345364058 2.331841386793498 7.9096056522433 0.6009321148128103 0.7924695301365965 0.6540652471923639
Ni 2.3438124022794016 5.774692538752213 7.02906051330948 -0.026252763048941884 1.669088695638919 -1.1759829909834845
Ni 7.534745144299828 6.402041945374935 3.3928834513689385 0.3304914001239018 0.08208761063037476 0.467039346585686
Ni 0.35335507165563035 0.4527200295260407 9.249480222016857 1.7671392573564535 -0.5002721404968868 0.2222870378018172
Ni 3.9205398261017756 4.299658845404783 4.316454207778193 -0.05949044205614915 0.6582355765199696 0.5842322855596261
P 4.316597048994537 2.4059437236080887 9.07626911996504 -0.6290514987568456 -0.10398055404872415 -0.4354641428825662
Ni 6.47622722225063 8.456964899269334 4.423399887233441 -1.793399733714879 0.1827630115652659 -0.31214066553085595
P 3.1626519788648646 2.903888203785035 12.721443335422816 -0.6423209621722422 -0.5432257612402774 -0.010638710660768776
Ni 2.4388156344920153 3.8654584099668656 1.2136444045555654 0.049274420755095784 0.6649006472449711 0.28148308854599907
P 0.4774628928656125 5.451263162698874 0.1596089320308813 -0.3037393288410382 -0.02650730226190919 -0.1406750812562803
P 5.43139441028347 6.19313436258051 3.125930727589513 0.20730984766669458 -0.9603150011600816 -0.7041230830807035
P 9.193924204421188 5.797777522425955 6.948443695473345 -0.041475750646283414 0.7716916741592967 -3.7549961511450753
Ni 3.425590403686892 2.1756376050490225 3.387150450034234 -0.5597492128165973 -0.23530941820341408 0.044345873105226856
Ni 3.623789503036652 8.262378300358739 1.213231547362518 0.15323903396421995 0.5654604042687617 -0.6771840925980144
Ni 0.7963167422147551 8.995992356379428 0.1952823738676284 0.16091197712844546 -0.6487536051714634 -0.6791810684233852
Ni 4.598344436562315 2.982589106209685 6.455473775850126 -0.32394974235064206 -1.5071395354952108 -1.618276240972742
Ni 2.3544471612253086 7.879453253807327 5.614327930609058 1.0006859487779605 -0.6760360950365002 -0.7193093039028386
Ni 4.647638479544687 6.917062862576808 4.98500915831325 -1.1828447511003242 0.41038534553706735 -0.6405150193117549
Ni 5.398550146086579 7.309986794272335 8.735712621293878 -0.17244877412345141 -0.49278123143648034 0.291048363636931
Ni 1.9288079832057174 0.8661836065756734 1.945590443791845 0.2613261539821499 1.9477044899394524 -0.9822254280799279
Ni 5.620046187044011 1.3052553882690554 7.627802971301453 0.37633802614437123 0.22949898216922407 3.0411134175744463
Ni 3.481022011190905 4.900522725848529 11.843218675087419 -0.06827281623446951 -0.3541098108737901 0.0072623379893681375
Ni 1.2911095000697768 8.064676841375599 2.57432863565993 0.10026351020845313 0.17652680084756697 1.7914007010069792
Ni 5.988871423207868 8.116136541509 2.0112356590426073 -1.0783224656155173 -3.456579262958215 -0.5261718910817841
Ni 3.3246247026371893 4.098151359173237 8.087605160489478 0.4994642998836108 -0.6059372813368855 1.4584104457206237
Ni 3.1437877227450453 6.27831380533356 9.75085289138607 -0.6593573488292387 -0.21028358558303786 0.21563276571009315
Ni 3.1152471261631787 0.5597707663920198 12.826568019758732 -0.02320626291313423 0.6954530661105314 1.767340317623666
Ni 5.236770949123495 5.192213705186354 10.279943207619759 -0.13406734613177557 0.916735316796918 0.10853423485767759
Ni 4.763035751226357 2.6739967855314846 11.172694358879276 -0.033016307025020564 0.2648112843172729 1.0568527257775153
Ni 5.469473113892212 1.3390304242627722 0.15599551003548254 -0.7631738664962727 -0.3940223307980117 0.3537483137693133
Ni 5.958810258839108 3.8746555411869825 8.565050543786635 -0.26664833752601175 -0.706511380807222 -1.141147628471854
Ni 5.278978224662711 4.05339137286451 2.391001610822219 0.6045601984837008 1.7907890355649094 3.703488727294402
Ni 8.21240230576285 1.1887706802306972 7.736151259345581 -1.327139945607695 0.2568169532578868 -1.658256123799789
Ni 1.8929963079337984 6.820207302332889 0.8470180015671787 0.3433258328844087 -0.8787655224213641 -1.4381812631579427
Ni 1.1456049862076223 2.3341821396290787 13.20833006234223 0.7233081406495866 -1.0094274424160163 0.9005900744956231
Ni 8.73780916172732 7.126753768170542 1.4958765307026805 -0.40403780605248485 0.0507314649165965 -0.9088548856075765
Ni 6.670048929486607 1.4705457144855099 5.826398294400221 1.7355640536533337 0.9824971936840757 -1.901922655718647
P -0.3330061884420625 2.1113867043810295 1.6575829247232396 2.177062832765754 0.5200441809174916 0.8140035475536302
Ni 8.654684789377164 7.761807384913523 7.466702961283183 -0.06386748807792227 0.6824294001573538 0.33924626349839637
P 6.855687217360394 2.705108524007552 12.137012645752328 -0.6359633953853305 0.021799355263278586 -0.14100084002681523
Ni 7.049656373593889 0.7656851345368518 1.94834128915177 3.7906421824834595 2.2265794514386426 -0.344676176264716
P 7.064954207086267 6.718439847359187 10.196871363974967 0.26012827701930685 -0.24671123228245254 0.6181196823356904
P 2.542767177741436 1.8384033166031628 5.805855884377412 1.2359753123767168 -2.8277025992163365 -0.6139164428876202
P 8.124891325736566 8.729570448991064 3.2237585296608096 2.8930965512411144 -1.4543465600638952 0.4571711955423546
Ni 7.863436606452052 3.4045420592913533 6.674031895532032 -0.9930520863817864 1.2506709667156781 0.4560679351758468
Ni 0.7312650091789984 4.636828624914229 8.377770964259236 2.96670389231462 -0.7504366214352624 1.149433008409098
Ni 0.1614207115878703 6.987469758891132 4.913994956440403 0.47617524744868306 -0.23434499740761577 0.14401648692468744
Ni 2.064995563537272 7.766516537271719 8.150540078854632 -0.5558017981330751 0.9599853857348047 0.43372119204953047
Ni 4.828171345879452 5.1593049320530495 6.523628388727379 0.8043937923780081 1.6058148752809376 0.7635772725822785
Ni 7.810732805402102 5.45071944452053 8.442525956187492 -2.852622759496784 0.2407863821575853 0.29987907455468354
Ni 4.317997814470948 5.86784344293352 0.4229592924897216 0.6976017370224179 0.8113887356386026 -0.5141653535392112
Ni 3.3174457795705843 5.971500088187907 2.4712544139457346 0.5939801089750093 0.19060641886908464 1.6646013492915268
Ni 8.12225567490595 2.2857451439447742 3.8830601340454463 -0.7244522815563588 -1.0256325914209692 -0.35387146961073895
Ni 7.437843506244185 4.268464166867611 10.601333179726193 -0.7803313521121659 0.9468858722383693 1.6084517986831526
Ni 6.950865545257559 9.070131555443398 9.281825002734658 1.9288937849908523 -2.651188910994892 -0.17698857097533388
Ni 8.44480035697419 9.066122785823408 5.581417314363284 0.54919740544268 1.0480670091650854 -1.633028202470936
Ni 1.7620708137011278 6.5425516244462045 11.98225202107105 -0.1126963366551672 0.8276939005565292 -0.8369938378012166
Ni 9.013345260274699 4.577001194171743 4.853069952222651 0.2608119333498928 0.22337512865967338 0.9795237128780484
Ni 0.23662246499019718 2.1825584923699726 5.665986686889107 0.5977107796620351 -0.2053694361108721 -0.185276522015739
Ni 8.910075668638795 8.841198555673708 11.22308505378068 0.26496940716169204 0.5495537603408341 0.8899014844335256
Ni 2.104318368062563 3.7488815463050598 5.993338206276396 -0.7546000087843328 2.101224288368884 -0.8507376697498704
Ni 1.4573121669583673 0.4841257444409077 4.1810757538205126 -0.20590756800252924 1.0441810438471177 1.4257250396724608
Ni 2.6637306490793695 1.1209349258105745 10.718273136544385 -0.3790127447630569 0.6559904892395348 -1.2359583430958518
Ni 8.152759186267263 1.2977815672074169 13.257722711841689 1.5440865450332053 1.7945096789496062 -0.3815810197108654
Ni 6.509311091068487 4.344170011530199 4.506957391013804 -0.017623883729350295 0.41270756591234087 0.5469806002970193
Ni 8.46055896858381 3.1615368958211434 9.059935457265105 0.4465754223043793 -1.301073073317314 -1.3105679001816266
Ni 6.711813858033271 1.9292871924476473 9.894135533166892 -0.047929219581111 1.2461831061476538 0.4892385083905445
Ni 3.8366597776393445 8.960807339346957 3.421005661420351 -0.8300976249020156 -0.9679732890362878 0.7368172308796149
Ni 6.449677187135243 8.580812841621192 6.723303821164776 -0.6842679960279893 -0.915171571854224 1.6035834148472579
P 4.0801994437255535 7.492279833014959 7.042319864411188 -0.24072698967455958 0.3182285235961487 0.21669514553633648
Ni 6.984318036569208 3.0123369414587216 1.1968481206259205 -0.3556499016674004 0.5623090031239735 -1.3410321302087551
P 1.9947637629074997 8.368080800453672 10.306676632425809 -1.1356066440489667 -1.5177005988405088 -0.09863883012083657
Ni 4.48817238873015 0.3953208994614116 5.609728443442765 -0.40448234978907116 0.229624709113811 -0.3185475974984643
P 2.228802184216213 5.7614036978510015 4.5567278785694025 -0.22001392549692428 0.2252072967724057 0.520771031781187
P 5.105596634707516 0.9252148127315678 2.255636980208056 -3.5036512767453534 1.3023033461799893 0.5679682582922799
P 5.229287912499513 8.320712810001366 13.145476240925708 0.036291121121550404 -0.5886674385128442 -0.026807864221463504
Ni 6.565756410430428 0.5136524061936688 11.845309686183455 -0.9482778674898894 -1.1170003418016892 -2.783288334767019
