# total energy = -340876.3055668594 ev
CRYSTAL
PRIMVEC
9.22629669508893 0.00000000000000 0.00000000000000

0.00000000000000 9.22629669508893 0.00000000000000

0.00000000000000 0.00000000000000 13.50361782162492

PRIMCOORD
 96 1
Ni 2.5483861864472317 5.822208403877474 11.185100388397228 -0.8369814965060425 1.871048848957926 -1.5950977459737496
Ni 3.6555417909846213 1.973145039516422 7.584118302974538 -0.5297110145832941 -0.6480303538521937 0.37126241139367677
Ni 8.443574597257129 0.6596875954075582 7.507417330581199 0.43279070981546114 -0.27298867792174275 -0.8531861312903628
Ni 8.322507131900966 4.305008494902959 5.156883541183481 0.11583951026983921 0.7038927122374523 1.1161210245205295
Ni 3.9925691833025074 8.130793912678612 10.908343779301346 -0.2704975360687728 0.7533856767612575 0.2889364595002508
Ni 6.652934932851991 0.39504326862531547 9.19859659388239 1.0137651505594218 -0.5600788282418742 -0.48142492588339675
Ni 5.469985300887313 5.19170173968684 4.6359271561728095 -0.783662730478244 0.2985585559710471 -1.371681993884128
Ni 8.847852466253958 5.649630524020209 11.105199736306776 -0.5354633436860391 -0.2044368969942737 1.1845064550734632
Ni 2.0011191711244 8.061144598856506 4.635198278733155 -0.2278514192634721 0.2045741939030864 1.1022141846314502
Ni 0.309315287536315 0.43793816726377577 9.750125235653021 0.05596520251171007 0.983507637226461 1.114802819929738
Ni 2.1602266577931277 6.763023105129826 6.878932147998516 -0.7244430255849781 -1.197862564665395 0.16603155774319792
Ni 6.298801986444003 5.5682361344933025 11.579716479485125 -0.7058799178708102 -0.014358325604201078 0.1297643478810475
Ni 0.4744687664354869 5.879503706412285 3.961664779861187 -0.31504601210310906 0.8650412308567361 -0.40438516208957453
Ni 4.416397575016124 0.7343643183039347 13.017541635281344 0.6917969574151828 0.12648799112262085 -0.23729970916056553
Ni 3.3687146790358016 3.3875363243129373 1.1217008612919994 -0.7484378458376787 -0.1779938723113967 0.12295863781312372
Ni 0.8258015317936662 2.5559425234481994 6.567633206670738 -0.6712885530491858 -0.014186318802711052 -0.2578780475325494
Ni 5.737511000130365 0.8594645979496256 7.04806492866633 -0.5768496199423097 -0.9689055710425699 -0.0856403609786396
Ni 3.2090536145648056 5.73218742693188 1.214020108746679 0.04931735817788926 -0.023704799816107562 0.15969661666410562
Ni 3.0296113699594085 7.917435801387553 0.20302004583369157 -0.21256775363152422 0.6623316009662141 -0.29441548033695103
Ni 8.164414537869732 4.13275353543035 13.126718249444776 0.8490386847808926 0.10035015638498847 0.14511794751898233
Ni 3.2739606118808102 3.7681856474495965 5.871494358243127 -0.3786857004409414 0.07184279297391498 -1.1042448419082338
Ni 8.442024579410777 1.0136286348440935 2.6222537631226257 -1.2883597395157038 0.802019892829193 0.11439866405825459
Ni 1.365215123361646 4.572598778222941 13.210413677369782 0.9928332855027612 -0.9740678319697998 0.6648381694381518
Ni 2.462636984875811 1.3793682625063157 5.266586054259068 1.8856663417607846 0.6355728448151312 -0.26757264911249407
P 8.47105973513977 2.315209989834953 4.610297426557439 -0.4739584423030224 -1.2077481992102232 0.20672723569034718
P 7.532800718074559 6.3922459194669585 13.274529058428541 1.0147496259598783 0.6826350884102566 -0.3446954595384257
P 3.9277267700634337 7.224762350002145 5.130416063827344 1.2888209954228385 -0.022154424609852168 0.7832791218865801
P 0.6039192449773394 3.8102852393121305 11.39096305624557 0.34920980246901145 -1.7730029152260818 -0.504891384436453
P 4.931178799642488 4.887390795483034 2.4381051845682737 0.1215167631602746 0.47802309929069936 0.39758279445576045
P 7.470532441616036 6.309375322467335 4.862639409313931 -0.10822878780211682 0.3766632706942739 -0.8861541015759513
P 5.114892819622059 2.7857972532468662 6.139689886626924 1.881706071561456 -0.35068638701453797 -0.27971802622577635
P 5.0417744182390685 3.5929690467348503 10.861607973344812 0.27504993132614564 -0.062072600961028575 -0.6369789811340385
Ni 9.01206209500026 2.7075490308961863 9.022968500334624 -0.3249555579073371 0.8937581391754543 -0.21626037199176307
Ni 1.194611670999139 5.872971488345514 9.294594365833147 -0.001136684707604494 0.7453460942862326 0.7074634603078461
Ni -0.06103656584847583 7.255836517302827 6.245220268332746 -1.7599795063832206 0.605188576096319 -2.739077701688076
Ni 2.060038301879198 7.472599132077839 2.3994442334874986 -0.05209877757776834 -0.26776239652579686 -0.7044871512883416
Ni 2.8005870068641445 2.6347443236011485 12.163910824737961 -1.1925884607506492 -2.3089570825056107 1.5976945601666486
Ni 1.157189811565775 6.8157237119058065 12.760000634331881 -0.4959490876415007 1.4112841816567823 0.5636719449097711
Ni 3.748921139930646 8.474325844173155 6.84869757369794 0.20087591911589275 1.4641180376283622 -0.01084208492082649
Ni 6.144123122193425 7.7232499346484 5.858490815667835 -0.2638954573712229 0.5404481984951403 0.8099944263942372
Ni 6.346723371527063 3.048183905225523 3.8927286587743364 -0.44670217769023063 -0.3171103508313055 0.5145237653198945
Ni 4.3064477971888575 5.751848665209123 6.7842177539193536 -0.17220297666123247 0.6076249534519536 0.4397717691189845
Ni 0.2049631039196547 1.667385566730013 12.503890632001278 -0.09082884715811454 0.9934691193145472 -0.2643824243099705
Ni 9.415528049887095 0.38961728353341185 4.886864896570879 -1.6847881086520469 -0.22636017942992628 -0.0055610390275452615
Ni 7.142722119705924 6.183270299110526 2.5981906586876757 -0.4668472851795379 -0.5433460888682256 0.5070397982380236
Ni 3.7676966537242587 0.25574464098110294 1.9197819846370607 -0.8044341586976403 -0.12704000697134893 0.7400028276964481
Ni 0.9670358364864784 2.454803858973709 1.3490063653112185 0.10663084718737764 -0.40255016576336483 -0.7417789457602644
Ni 3.001111339439275 1.1767126553924512 10.089890070203126 0.6697716021840272 -0.1395006013322049 0.29421493429037066
Ni 7.368415789690871 2.6336740731834287 6.810090135138052 -0.4916710290914371 1.3629736674768527 -0.24802609443913412
Ni 5.682365424727698 2.7802245700373613 8.739636309577461 0.7028560434428218 -0.4576255094709538 0.23831555201958954
Ni 0.0847186242295306 5.901831344437122 1.327593053289795 -0.36731448248952225 0.6563820682509985 -0.06541606351196476
Ni 9.060094195643774 5.335687326056927 7.495250613117004 -0.30235299001647287 -0.2810475436704773 0.05230703693383249
Ni 5.584649716330569 1.3398335811276263 10.921064074567811 -1.5555099563787984 1.1156487128698012 1.3450880454456835
Ni 6.873591044836293 0.8808087127457657 5.0188627556328385 0.9416899298597264 1.1524522548513958 0.6710193585481992
Ni 4.656724151574374 0.35733723925345384 4.577902053568676 -0.6610702177552873 -0.4339006550501882 -0.5646337946024083
Ni 6.577500730996177 5.415282587726462 6.672056432772022 1.4429941111655535 -0.70967075237181 1.2298571152941207
P 0.6239273920106709 7.6027268207978 10.5991917972167 1.098377070273547 -0.40516472056807634 -0.23929257122087816
P 7.4168077159058585 7.976530231779736 7.985418846024831 -0.46101345210658023 -0.4692142427498177 -1.351579052486666
P 2.448105567566258 1.0285752355053484 0.25373054041051535 -0.9036118920410826 0.35234603410514803 -0.17704359258298544
P 0.10064874811948273 8.033059751688075 3.134149002139828 -0.2361959345734255 0.6874463937559708 -0.24471837022213982
P 7.510749868950856 4.343841977732107 8.484309619837072 -1.0035280462124458 -1.2162246121123506 0.6022796299796401
P 3.4167652322727244 5.772930753178857 8.917464874889246 -0.6831035434062429 0.44839164957751165 -0.019855858383662578
P 1.7962677053948697 2.0861394952561674 8.637008520814868 -1.2100807039981418 0.8191570667301119 0.11265005679826405
P 7.685089971478678 0.9785410284769628 11.063217318412388 0.7869488574286834 0.21600171901373766 0.5148261270516618
Ni 5.470806441294012 5.103240006884303 8.901274569432227 0.5157182998486279 -0.2709911878757397 1.0673274000565942
Ni 7.52421103584269 3.282771725233587 10.912084119985341 -0.46437902614470344 -0.3159582395047333 -0.26258728008276067
Ni 1.5211764428541463 3.482714801116335 4.080779960834683 -0.18547501117979026 -0.7682206848915608 1.0591533488862337
Ni 8.52917617808128 3.5339576530130072 2.832424188902288 -0.2230506554407191 0.7945644649924123 -1.4080790444559232
Ni 3.8065393628501125 4.598441635292184 12.396942168491979 2.6389170356060743 0.020608934499603215 1.7173153918557906
Ni 2.8116032051292916 3.5748578263039588 10.153977772371773 -0.0828280883408251 1.1835119523706779 -0.827423163393646
Ni 7.860564908501149 8.24498778698994 0.9726426569937899 -1.2933816182103273 -1.0760334124710242 0.7462783762925147
Ni 5.194783322786137 7.4472914002174555 8.835349911589718 1.1618534935606377 -1.6618543826740086 -0.9107595588294574
Ni 1.9601267348664033 4.224499829859681 7.989442434017653 0.917249023208543 -0.6463925611384544 -0.954017598187144
Ni 7.591913601060152 7.241129800355888 10.05060726672447 -0.7001736115146522 0.6499473683692484 -0.7171503485783068
Ni 5.094410440938118 2.1447726108131264 1.8219620190871713 1.8984951180943368 -0.009988478671279572 0.6053940072389057
Ni 0.3927938974887637 7.914206597540986 8.29404400656765 -0.93600213544633 -0.539350337445271 -0.010425051988065917
Ni 2.4983243005287328 8.140601466075474 8.975705872836265 1.1554226503336296 -0.188895606825565 0.7858335128773176
Ni 5.75915589219907 2.9926508253612685 12.93957204709114 -0.9534355004314291 -0.4261431225919564 -0.8827113944429895
Ni 1.6614253790589202 0.8750653430472279 3.141482062760548 1.3075198573839224 0.7855432353304084 -0.49785041842927164
Ni 7.097928449205682 8.39474903509703 3.642141517651037 0.1567665875015042 -1.037447067557394 -0.7500355293421018
Ni 6.1609611136790985 8.191770507598509 12.062673438888734 -0.30644772891113675 -0.5283961524266126 0.2889511147882701
Ni 6.152131547732912 4.9634247066246395 0.5731393965415296 -1.1104918512592101 0.14467417511334438 1.037489233649239
Ni 2.927411681363903 5.6727977550451545 4.056959508003061 0.064940666537443 -0.836836486287746 -0.3242549322958867
Ni 8.546189469204338 8.443177866498838 12.092382114277152 0.026579293150425193 0.2140834189451023 0.6633777828425415
Ni 1.7698712705233575 0.053138855869442454 11.712983876973622 0.5027846225060953 -0.9833358875352871 0.8850225590746692
Ni 0.7711892363405186 9.152827703820485 1.2278217259869082 0.596484877674734 -0.5948242021428594 -2.1329655853362235
Ni 7.138939338057088 1.0326624849454322 13.300213223194469 -0.1120504755410522 -0.15679821207038802 0.00566336893336444
Ni 4.456033745658563 7.333392767400671 3.0449980649734667 0.9037363334340887 -0.321632149961059 -0.4748256753993242
P 1.414677299994354 9.449019506924351 6.5973003637239875 -0.3336623416527157 -2.299473054274575 2.2039442305376302
P 5.77374266728885 8.733870796766833 1.9035778397349858 0.7085124703976509 0.32105339463945354 -0.37600249718182344
P 3.4297558580326295 2.466724234315895 3.452402725923442 0.273586973627374 -1.5676887578331777 -0.37957581635537857
P 4.277357283679637 6.737521621038648 12.453738328375078 0.762644476355364 -0.6698641618978335 0.5246662530705352
P 7.245761401301537 2.8052739655900196 1.1149315273999238 0.09734376545849686 -0.31835862141610977 0.718616134490556
P 1.3550754232834246 4.4013402587944155 2.2308382743615107 0.6868064461791269 1.379524115636366 -1.8100833650181472
P 1.2235730163544962 4.855089530720656 5.9368119257624805 0.8379914258277954 0.07316613977102883 -0.7554649278877893
P 4.468959787341538 0.07181011251029508 8.992896308856048 -0.4604146421803168 2.7415873554838073 -0.6455587523832494
