# total energy = -340859.7032087611 ev
CRYSTAL
PRIMVEC
9.29792688849906 0.00000000000000 0.00000000000000

0.00000000000000 9.29792688849906 0.00000000000000

0.00000000000000 0.00000000000000 13.60845585017335

PRIMCOORD
 96 1
Ni 3.082030239815156 7.457383482263416 9.643836496339015 0.1385006993127808 -0.6663849450999814 -0.9191225860821718
Ni 2.394411371558756 2.8955510227105994 3.77876851454025 -0.5770689350419675 -0.5661335190763863 -1.4149852846574535
Ni 2.3020178743325905 2.3354346227507086 12.025846293317892 -0.12295221005522051 -0.44184202138445194 -0.23373358907586197
Ni 5.449812349418015 8.195796923866554 7.4289374054380435 -1.1980926783983303 0.005035505541378424 0.5670339194034686
Ni 0.05875359856819358 3.426220888936439 9.131151609652731 -0.10839822350044558 1.0650044083503722 -0.008580285469843288
Ni 3.9857236257367314 6.49547577751996 1.44678249278795 0.9766152809820019 0.47691469671786896 1.319131730591238
Ni 6.0069348169932 1.8058991035774596 8.63902815798365 -1.4176780009982681 0.32410683675379665 -0.13415836318368507
Ni 1.469379243951153 4.571632474253066 7.19502202609655 -1.8892347758383334 -0.21570295682639626 -0.1942995514499557
Ni 2.305160573543866 1.5275563710663906 6.070881307601327 -0.802641842683908 0.13981890390357207 0.057103944101843586
Ni 7.193731473876062 7.5831937279077 1.0904998900445846 2.2621504065647167 1.8806133527179094 -0.864939415171549
Ni 3.232080180263566 8.99077895127265 1.1068112427852368 0.30746460021142535 0.24142684395506167 -0.010223477500221102
Ni 9.047914710601903 8.040986444967928 10.450708712358658 -5.13914799536144 1.2124517753334796 1.1327061825727203
Ni 7.705935657753992 1.7505857378736798 10.236716000472784 0.18305431755343957 -0.31900499675085703 0.4015669759144891
Ni 2.2288989790738034 6.628398937059586 5.053309705318987 -0.6214430902819684 2.2943545021010876 2.369249451637765
Ni 5.260664627361873 9.229884433276078 13.094722925120633 -0.13336054987273807 0.25967242042881084 -0.28224182108889456
Ni 1.4794210047445775 3.3964210339892857 1.5111241452791508 1.2477823323139736 -0.21962928846399596 -0.18897685368546163
Ni 0.9214710216966014 1.3261725775249278 0.0668297776655718 0.5500350708526268 0.7934077256801498 -0.2858871311509657
Ni 3.959391897433974 1.8545737496455863 0.3213242580849235 -0.028816667121376177 1.2063996556021288 -0.8287611654787792
Ni 1.335823825398608 7.27588795384893 11.435987685556142 4.421893259994784 -0.4263958620327108 1.7312870235445346
Ni 1.986613606152457 8.590447420974796 7.077486005387514 -1.2235874802353248 -0.8013359793882908 -0.447196600828146
Ni 2.796258463902285 4.889426309584969 8.9801653679896 1.2841878675262013 0.13560486582222453 0.42741093356078647
Ni 1.968101434171246 5.7656536201511965 0.8122017875814866 -2.569336042083143 -0.6656113001587505 0.7877376718785659
Ni 8.840450073024423 2.1386347070529106 2.439873583965653 -1.30127259092263 0.06870219046240425 -3.5158989837644543
Ni 3.569539130482591 2.744301649722974 9.994172145190273 0.07163504783848308 -1.1482467014104805 0.055119309571647006
P 0.22308143519658827 8.954191609863274 8.754632069532617 0.7802033111747337 1.016029006892934 -1.9784399713500955
P 0.5734496267911598 6.7740974478308456 2.1745088974874194 -3.6823223776294323 -1.6479249170771102 -1.1363936587266363
P 7.0156110928393645 4.886813592193345 13.107595904582206 1.3268013313213536 0.29095323281996344 0.520532947628452
P 2.8604513495669166 2.7570770009546086 7.9487937829576305 -1.4808276370735594 -0.20259264469668337 0.5727762212038845
P 2.916025057217192 3.9837896569913314 -0.18668935024708522 -3.679652801217069 -1.2705859604720504 1.5602934938103707
P 6.364923589278781 3.8884301211604413 8.443951148096058 -0.1901960708045434 0.9461785617586994 -0.8691028025206193
P 6.636785666907427 1.836377707170835 3.3768842304900786 -0.09339429389244562 1.7614314083383988 1.3642486775345344
P 8.591907195460506 5.512359502063726 8.352856571224375 1.4078214199191625 -2.2947843905496543 -0.2605548230337642
Ni 9.076319876549968 6.483397770787869 12.886676237334202 -1.6766827059360931 -0.2172322489867291 0.8483000068426552
Ni 6.85586341488397 5.625338608916411 11.0096758885833 -0.3994396451588411 0.3081711393601467 -0.7433843425741713
Ni 4.9741397193894965 4.175010816692782 4.128166002591457 2.099313958720049 -0.5208749043489029 0.7603014300444841
Ni 4.676159765771286 4.418709474466537 12.739351519190006 2.578512052155456 0.7359823936831453 -1.1235345433757813
Ni 4.859459091957924 7.389927024340921 11.268264246111306 -3.1433805884764894 -2.111096296066958 -0.7945446674980703
Ni 7.286599165361916 9.161442395127562 8.492941923670644 3.4534294044753238 1.4278343727059797 -1.725313322459603
Ni 4.6209858689674155 2.0424476557492293 2.525252725319078 -0.1961682292275783 0.43777402196266535 0.9618144685237435
Ni 6.816561078889706 7.661937868796136 11.789644553810561 4.405705594491329 2.141227054014067 0.3365499476131559
Ni 2.0984955576591946 4.635899743330983 11.22240315265067 2.3457439123166566 0.522590601488429 -1.3001477332895672
Ni 9.203645684239927 2.2757698273697784 6.713405231553922 -2.36267359819246 1.2050027752546022 -3.104501137802473
Ni 5.700177620607405 3.644917421919898 10.569632913518117 1.099720728785635 -0.1515282219207003 -0.8049157263197492
Ni 2.864551735224232 0.4524910392783661 3.7932481757287686 -0.15245998970635033 -0.8992073352154836 0.007517905643599956
Ni 4.110018309335341 4.238627230904458 1.8476607411734463 -1.325778289373478 -1.04582860675287 -0.8609218093717237
Ni 4.295651415113785 0.02632521975409503 10.162618033536639 1.4492681170997233 2.445337393041279 0.2679223191424289
Ni 6.032439029823166 3.5017200534203337 0.7545667295905606 0.5139642932719987 -0.53735670405401 0.9039561627543787
Ni 6.930814001694892 2.0965987806204365 12.686890757385692 0.001533663035707036 0.05921404846631092 -0.6202508697460801
Ni 2.8228040445182354 4.519238657520708 5.3113253105647 1.4043386035768848 -1.3733442120778991 0.9708464968190249
Ni 0.43945534610023546 8.635040277238929 3.259047886749907 -0.5475431576687086 -1.1959800029307015 -1.5238128823858337
Ni 0.9238224673490617 8.333155194423275 0.7409350393134869 -0.47895332441445254 -0.7019494724681524 -0.6400177679603622
Ni 0.4840398342303739 1.2936205362862436 4.0755825081552235 1.1983266487860071 1.2369412758344116 4.810775441352753
Ni 4.169962042516088 2.111624230103931 5.069639653912961 2.4872468887908714 -0.7771454981850164 -0.015698641682179413
Ni 7.081988991269232 2.841595154299264 5.797746343812848 -0.9821341539177022 -0.466663451303506 -0.6097916220859692
Ni 6.610156404951532 1.3355448875987905 1.2378962022240663 -0.9547979279965944 -0.7178527739619701 0.04693831642275142
Ni 8.15552760349959 0.08610623921828249 12.156446830777705 1.05273947494009 0.49555596596814006 1.8585656288892507
P 2.7344830391694037 6.591885979063496 7.55228463030994 0.7287380534159063 -0.8592140826519977 -0.6030301349924195
P 4.199724705756599 5.192027332753485 10.786034718201746 -0.2415723683939904 1.1818749309878873 -1.3682225745806178
P 0.2751767884831418 8.087671334730691 5.235961895810049 0.4498083274193802 -0.5731559731408065 1.4291335511333774
P 6.513476563534839 5.798298640656487 4.516292144561971 -0.6493038212479785 -1.7183988547279567 1.4188262556700983
P 8.503939511324775 0.5119522100654297 0.8948203745093862 -1.2213632188904966 -1.6788655725200248 -0.02018933046368136
P 3.245989878547791 8.749516350283967 12.027683563626022 -0.8427076003565422 -0.4828714285219361 0.8711583994980673
P 0.6760950179532789 3.6635225731677155 5.090460501083993 -0.2731663411501876 -1.4225229877953953 0.38567035928889065
P 4.210798536409348 8.943591973470216 5.6869736349567175 -0.5863259348638612 0.6705136225563743 -0.2829786992549191
Ni 5.2098607560884735 0.012141232633383 3.4979311483061486 -0.5680852434861184 0.7007163713919997 1.0402534266579375
Ni 0.7179487050232056 4.256841869232531 12.813613129635378 -0.823228408586008 -0.9992101355633826 2.043321502514829
Ni 5.664213240284289 6.696041353515293 13.385657839708124 -0.9333240743935345 -1.663990455180405 0.29203052504454224
Ni 6.373403298393229 5.520653252644961 1.8869351833877286 -0.9766710739206018 -0.7523538930626333 -0.059928300924516134
Ni 2.318958696708164 7.370987147733324 2.9077592004159385 2.9300309623736185 0.4636259500287628 -0.1844601967620307
Ni 4.734401978373148 6.007064987966448 6.350535047771538 -0.5800760972994075 -0.15583996192217678 -0.24763708653083155
Ni 8.740608936543133 7.365120156010498 7.209256222021229 2.4464949036844894 3.5576375011538217 -1.1683828100387235
Ni 3.333883179270237 6.523964624807972 12.900679844677699 -0.2642662104470804 0.7873705183471343 -2.493510610312396
Ni 3.744563301941315 0.5221659825020748 8.0048333167336 -0.22214845534142388 1.3703838438979947 -0.7683600386829025
Ni 7.689738669511265 6.7770076988756065 3.1866374935026567 3.2891022310177416 0.7445300261428404 0.8047504043864785
Ni 7.792452865330672 3.8488116556597176 3.385743295012278 -1.2060798103688646 1.43374970974915 1.7080301098991229
Ni 4.667596375316894 7.1235228296620345 4.095777604862 0.44493608692874337 0.5616425731845682 0.5141895219089274
Ni 6.686018188575189 7.74819473442632 5.596246326188127 0.9297463843446052 1.1673181162196349 -2.1086033544417746
Ni 1.0752866224425466 5.1467557278431295 3.5513310007031804 0.046546994521603706 -0.6183693364526512 -1.4883378294076754
Ni 7.017433486464838 6.205426955343223 7.20435714446377 -3.0468179241583915 -3.185603244591127 0.3854790692136909
Ni 1.1280337603880066 1.489946257724352 8.101739097768146 2.0564613823308973 -1.6049214169323909 3.3695409931907836
Ni 1.8499154883886366 0.35529609272467805 10.37700497751292 -0.2903533944524354 0.05122434539261501 0.28246319307108125
Ni 0.8974665644369868 6.8159939053634115 9.029210071538818 1.1835906281274133 -2.0161871081918825 -1.078228877460446
Ni 7.432139611379946 9.189875454855612 2.986756244909543 1.3429720275439452 -0.2596873328271463 0.055333482464982126
Ni 5.229516573048937 6.11676192670795 8.783359873535806 -0.2824752772559393 -0.3962933862203756 1.2947119069859767
Ni 8.670186440015915 4.311885595063154 1.1691008428624483 -1.4772843998069913 1.079945860151553 -0.18666208950935595
Ni 4.513604113964398 3.449502897294527 7.051765150866356 1.9294946517996445 1.1228136060493568 -0.6489317826205405
Ni 9.008379926441124 5.503061575403147 5.625735630384817 -0.818216042973081 0.6935697330448893 -0.27413487571104406
Ni 8.123570629567181 3.811201542317679 11.427536800014344 0.8751153272632864 -1.070724341553285 0.022567343777554684
P 3.540046107115237 5.4831361185695275 3.4726872774226782 -2.4580358144445538 0.17659570641228942 -0.5146075832829524
P 5.378134632791618 1.6843194145637392 11.29719567470836 -0.32448658869071856 -0.9620402113813044 -0.4622969468046941
P 0.18619005158541221 5.469245016138625 10.898944090604477 -0.9152582180307591 0.16686973737377714 -0.20230211003945806
P 7.657158734492599 0.5179400748348421 6.295801872691377 -0.10222680458241105 0.8929019618227461 0.2108111759517337
P 0.20814617560170154 1.6638453800571458 11.577298504736275 0.23868836197797605 1.200393301507049 -1.088513032995274
P 5.242710330980296 8.106676296824912 1.743624380182905 0.5010550414094983 0.9183713097384442 -0.13961990051888856
P 6.166468642635401 8.124537613939884 9.696433007872573 -1.8150628205106099 -2.0298934020343817 1.400206583686382
P 1.6664580974487684 1.2544204774852459 2.115448467339427 0.9572026807833451 -0.02340758029066291 0.6611059560892292
