# total energy = -340864.6115516514 ev
CRYSTAL
PRIMVEC
9.31140028414610 0.00000000000000 0.00000000000000
0.00000000000000 9.31140028414610 0.00000000000000
0.00000000000000 0.00000000000000 13.62817552661523
PRIMCOORD
 96 1
Ni 2.760876669299051 5.499247684697845 4.337576038322872 0.24792659274679235 -0.6122717081953456 0.14274044842574127
Ni 8.126384715201118 0.5869189608345847 1.7112220965630887 -0.44193072444351633 -0.061469420159390914 2.8171353652234514
Ni 2.844390616271086 2.7106416660752655 11.75464157686414 -0.44728401833562964 -0.7781945082748212 -0.5914884529014072
Ni 5.843480832831321 9.235633179342555 1.2379822942749175 -0.33189445111901555 1.4450679629754468 -1.8875998113380716
Ni 4.87589600892096 7.83977982192436 7.785162873841054 -0.8647021023497624 -0.05423356453258402 0.8571160624723884
Ni 7.131126410367477 2.88807970526571 8.099850949642915 -1.8239230991147168 1.3771928964000282 0.3610080806555202
Ni 0.4149932704686966 9.444832404074488 4.0888480581348485 -1.809982834884541 0.2870364142640605 -0.08140832517516303
Ni 6.292951424233606 0.6387499380254795 8.70183482460461 -0.0075834687742127455 -1.030549311996296 -0.2934330618190236
Ni 5.821636288334009 1.687179130515983 4.726782317516694 0.3055316448547706 1.0765702588111008 -0.0356336900432096
Ni 8.108665120922181 0.1892830711832112 5.729094007881755 -1.0644863310633732 -0.7869354876922446 2.353231221832637
Ni 1.9206345523559716 4.5918889962557765 12.718317475037088 -1.1887901700504817 0.7220907233027177 -0.1906645258005297
Ni 4.530117168380597 8.813808134663425 10.278069554766361 -0.4359135717151589 -0.28294990289951266 -0.0393317077200871
Ni 2.6701184530947444 8.642599422100732 7.413263693904332 -1.1162938026529678 0.7773972091845064 -0.7654693473986688
Ni 8.005708970663534 6.617863417281012 10.801828357979584 -0.17957972874127784 0.7742640628721634 -0.0966973901237496
Ni 3.538359949962554 6.983475539909727 11.93723254483754 -2.2920441088003556 -0.03258204770107937 0.04574969543128895
Ni 7.645078447057012 1.2102585317914147 13.125336462510262 -0.7621258848477325 1.9860756335184826 1.5479863943082437
Ni 3.3198772593892656 1.804949718240623 4.414342944824851 -0.4401196393767065 -0.7981665805213738 0.09365166131889033
Ni 9.129287679468812 3.539719414368611 9.230880640761384 -1.28792830840524 -0.6231731855991978 -0.4473302981925329
Ni 8.655905412760005 1.3472664720017526 7.89863159474653 1.0105250463555693 -0.6995382919234985 0.3426100377643067
Ni 1.1744934442320898 8.276894185471601 9.980484658560693 -0.42582533424122143 -2.369360266184016 0.7112270411153364
Ni 7.655442035303179 7.499308479407641 0.033028467087133986 0.7196985689214572 -0.17717574728547553 0.7638274409198716
Ni 2.1963730417843212 3.41332647020556 5.941502872207986 -0.7897361903658334 1.505644181896607 -0.4276227924612765
Ni 3.9989483530143666 4.803295022797539 11.340358766218609 0.5604148714250542 -0.297766656197371 -0.30769857059910233
Ni 4.798797616577506 1.4113009700870112 12.161892418198347 0.7797376843922249 -1.3527982696057474 0.5699552068153216
P 5.416357601528588 3.0967202459951544 11.063733831506312 0.2964998736698055 0.1375362785169825 -0.3319826399574476
P 6.9678323878400406 0.10829810046244236 3.824025322975126 0.46389077365437525 0.1624610667831202 -0.5060985173706767
P 8.078915197789652 5.118746633402803 12.999820652231119 0.24854160062297195 1.6100276278107049 0.49437068741078727
P 5.536009092061607 6.626197120318136 9.798835073131485 -0.7683919203621025 0.7278751911949787 0.0887591091132794
P 0.7266588658170929 3.348453946116568 11.116707317482295 0.7758982560414767 -0.694874567899242 0.980196313465041
P 9.192176875348968 3.964943120062881 6.897042469024688 0.41258775250502494 0.14074475815195114 -0.06993529153855697
P 1.0976371482897131 2.1796963243100302 3.880268972645678 -0.019809064306127173 0.4524097695979693 0.8504749030067869
P 0.5931957756025464 8.239685830905847 5.948017127677005 1.025168764410673 -0.13595016497678522 -1.7018201244336688
Ni 4.25974204537614 3.255079226500606 0.2531723114278226 -0.676401448795719 0.6452450777975727 0.16792980320717532
Ni 7.210012591518897 1.5788689252334864 10.768370635350538 -0.028821295107066495 -0.10213578753050151 -0.1477240176832617
Ni 2.7071498910597107 3.3184712379830024 2.81390509253528 -0.33734390426936095 0.7340846624398003 0.009230260349016361
Ni 3.537922314160605 1.6108070273757633 6.76473957925531 -2.1112017112965704 -0.2966978486132245 2.375528856888573
Ni 5.334286921562983 5.384922314988552 7.305710505445208 0.5194340581373184 2.8611853043548146 -1.8445765136990102
Ni 0.03848122295142472 4.7663846330331126 1.351975247002729 3.0796090025464835 2.3146291931897234 -4.04269436736285
Ni 8.39609872880263 6.240872763801607 6.088496357822808 0.5249542166245992 -0.654503620281363 1.1716218858013112
Ni 5.163813809603566 4.317770690434645 9.138181928788432 1.4917874785191727 -0.4308595542310193 3.0648562697173407
Ni 1.2639666872306718 1.0075121072882276 1.9754451775601396 0.7192439978825419 1.7492415511404262 0.3236052145270298
Ni 4.350863406182064 7.06565795667583 3.5968569584431447 0.5157159858557828 -0.0107747220180008 1.9584270185632788
Ni 4.5815347194096505 3.5412371725753715 6.276169487938846 0.7868452419712836 0.4617415885218564 -1.4007400875923488
Ni 0.6652473891235194 1.2918357075548217 10.084535829464215 -1.2536184793797767 0.980826233739556 0.8668047505150621
Ni 8.12955059121522 5.468203476959549 2.9680804610020943 -0.1563932633224855 0.9740583188881032 2.091947748162965
Ni 1.567257609381761 6.38488287684314 6.757898493644835 0.8682548526980273 0.18174665448560956 -1.397517466889993
Ni 7.14926501764828 7.369041992827334 8.289242033066607 -0.40412265245680723 -1.2585735093922066 1.6600826354855667
Ni 6.5554770370030955 5.525012328612619 1.3102862467370144 -0.3747159171599159 -1.357421627310372 -2.4530509596354526
Ni 3.44824422036111 1.0840331928291107 0.7007256855615668 -0.7284883992989455 -0.6888635858184716 -0.47745205727857765
Ni 9.1818132871028 7.915704977862588 2.2340395172321164 -0.39763010275392807 -0.8485743435499643 -0.607767906787721
Ni 4.8015258567896595 1.9465574900714517 2.426823674830924 0.8902192727842603 0.3991323983310674 0.4242014254845533
Ni 6.435704498269537 7.8169575804226925 6.187764262525023 -0.039440979604441755 -0.3035639796054385 -1.2754463738881454
Ni 1.1412983030842132 1.3442588897883545 6.270404800173166 -0.5531880146593119 -1.3926267144565951 -1.098033313780883
Ni 4.1182366989457675 2.0610877105816567 9.473775959963426 -0.23697934970666928 -0.4723756711969348 -0.001819312596925899
Ni 0.7234296722827076 6.72681610916637 4.133343514373065 0.17258247148783826 0.4626183346998549 0.6320121240470664
Ni 1.7823509503399508 2.6619523552583666 8.164653638231595 -1.1544661999576311 -2.2178515846473417 0.25485443021487725
P 2.0256298992237007 6.018898298212765 10.73690369005036 -0.8174835356824307 3.1104427000978885 2.648475882939103
P 2.4533118145289223 0.4722080991635751 9.354815375313484 2.4031746436303 0.6394778362964924 -0.5235668493587693
P 6.646300433007692 9.01162882854467 12.210777268416116 -2.5198513050894538 -0.4061535668439069 -0.7011357183176053
P 4.129382444795419 -0.2761789186503116 2.5677116754385465 -0.8516151872588174 0.9199288840335511 0.0549547589693247
P 0.23698723587572193 9.332257577572994 0.3365354137191855 -0.17338259879163045 -0.3300733387498767 -2.4948380708745677
P 5.613731348207842 1.661209635800295 6.921409471793238 1.3744896385362524 -0.31447111343624556 0.15940016846960933
P 4.713663485998254 5.395937701237623 13.39967172395236 0.4182889166548603 -0.36039178722775994 0.2633444699637594
P 8.31803195085486 8.813947805664046 9.726442662368996 -0.8410232706755838 1.013477958336306 0.2371618980311206
Ni 9.173116439464058 8.258057223187686 7.875763727384659 1.324716680878183 0.15379824890179963 -0.5849467951281474
Ni 6.543493265149711 3.4369122465106288 13.315776940718628 0.48308560141527124 0.4375094554473691 -0.7091223360675077
Ni 1.9760653168029023 8.373993465104155 0.8686800638097637 1.7105809013454347 -1.5885846274455802 -0.3782221305409615
Ni 8.669043798218533 8.935666427006273 11.918752209175215 2.7649247446581673 -0.5001924362988869 -1.8677069290688866
Ni 5.738811384965044 7.096646296013876 12.368059851076774 0.6014990430598738 -0.37115468217121883 -0.9043587975094359
Ni 0.42211090466040396 2.340923216028258 13.20450291680293 0.7088852803560373 0.05466833807715746 -0.31680310400353184
Ni 8.643688855905584 3.083814645537663 2.3239857793528054 -1.0966973685782788 -2.7088086183908895 1.043607687842151
Ni 2.824650448183148 6.833291968640696 8.80580405518777 0.48512448622217097 -0.5899709878156162 0.8161735586217556
Ni 4.518394115728374 9.399113429870821 5.6178749212263 0.27561480269068017 -3.4023981489301205 -0.31493776866001894
Ni 7.727037390222119 7.46727726326495 4.2610530905019806 0.4045983065416451 0.14512051862214362 -0.2636108362512686
Ni 2.410544554138404 8.674900668844625 3.8684528059930394 2.2811061217316135 -0.8752320553468088 -0.39134786928964216
Ni 2.156976508208819 9.555824292568932 11.911256532141822 0.6457443860314943 -0.32270918507532165 0.5214289770801601
Ni 6.695641541827496 3.6667455337344816 3.7053375623464 0.39831273064324946 -0.9831466543426164 -1.1029487488046295
Ni 6.357358378320524 7.428634953092806 2.376726480327753 1.187301244209781 0.25576022985859825 1.3691815960597775
Ni 7.075537352119841 4.030569867555233 6.01776603196772 0.3375886732903154 0.24767925262267665 -0.6658097893228018
Ni 1.8302487921533244 4.633697182442022 9.401492492581419 1.8206012338303357 -2.343536620252693 -0.48596318007338246
Ni 8.21171438518124 2.060231061777841 4.479758323536261 0.8635268510947386 0.8675130894359963 -0.21669231732285907
Ni 0.6316220612937264 6.886031738475639 12.418225018800246 0.3698197654098792 -0.6004644311477723 -0.15622845560984705
Ni 4.279714998465115 7.138454482200122 1.2958666126327785 0.4826965935069687 1.2678032555205907 -1.709562230272933
Ni 7.331777769861332 4.312919451013033 11.045431343584777 -0.06230168625269914 -1.431987475642405 0.9058160987812529
Ni 0.26955665094081094 5.97452016561507 8.635111194187372 -1.8966210410000752 0.6220110469702964 -0.14390515815780378
Ni 3.1169632296853322 5.247932997578297 1.2412105566692988 -2.0095192092534035 -0.9846062696072784 0.7075408505130008
Ni 4.7946074865588395 4.580780496006291 2.8587823161751973 -0.8810874856863211 0.4104290542908092 -0.2030832111798567
Ni 0.6718342735128624 4.3323616542996435 4.175700142021754 -0.562590024699502 -0.9191418693558815 0.256305560839107
P 1.5223301041816195 6.557721084413092 2.0848653017275804 0.3683565506007914 -0.6866092425666561 0.3361195449439566
P 6.833934455243558 2.161986041431135 1.393194952706353 -1.8298808593600486 1.3469500383550865 0.41705324447554626
P 7.587329143999752 5.087953833465627 9.118952956562772 -0.5031849432683075 1.089459198958627 -1.117353868486366
P 6.207752113854063 5.657783581804084 4.174582774016776 0.31393529553743355 1.150597203920528 0.47363988262133905
P 3.4271725220672407 3.8869415219154027 8.108151131639891 0.6338214093416632 0.298972246469698 -1.2150838136396882
P 4.033046699966267 8.670412574024631 13.014157414874983 -0.4469240638930497 1.5787442443163908 0.7984763984523088
P 1.9595655159293996 3.2612806189282315 0.8472610502943471 0.2619807568470133 -0.546452238597375 -0.651138303353556
P 3.7959691435101424 6.6656960792940945 5.946450019050024 0.10847587081591642 0.5316509119184843 0.6095815629576921
