# total energy = -340868.5503066751 ev
CRYSTAL
PRIMVEC
9.26144487821884 0.00000000000000 0.00000000000000

0.00000000000000 9.26144487821884 0.00000000000000

0.00000000000000 0.00000000000000 13.55506074046863

PRIMCOORD
 96 1
Ni 1.7553401282864673 1.885231889568033 2.6843352664168796 1.0519542600346334 1.268401551226222 1.4077915951224915
Ni 2.6914313853112777 3.6169738568744343 11.59257250170145 0.044622009584748955 0.6935105976721798 1.01917989381709
Ni 5.882832598859564 4.7079442528590745 0.8642502308386355 -0.3528150033217666 0.0793316451517924 0.1891257205585001
Ni 9.057637303586706 2.0781385202798854 0.3100250075257151 -0.22109610281750952 -0.10447497718663942 0.1827866657143497
Ni 8.891866705712998 5.065889827316917 3.074518077428652 -1.2627947465624059 0.516604044887691 0.9069787516307863
Ni 3.822161163198362 0.7651259148443061 13.105371138938361 -1.5050872809518723 1.1183373154455578 -0.5880604010564646
Ni 4.133095644589164 5.549874402079987 12.663083440299488 1.2734393707604457 -0.12096988951786908 -0.39847959523841703
Ni 6.627221212977627 3.683007957262139 6.807174787195477 1.1595878374549127 0.19698275470907364 -0.9425911015177573
Ni 2.518677658167959 8.367909735820428 11.517599254933069 0.6738694264024846 1.7152641657537167 0.9242218549819503
Ni 7.132840522453977 4.823804925488835 10.255175438634623 0.6252879179493553 -0.7933974412675046 0.4605208287408778
Ni 2.2575234417959384 1.5480134282473137 10.425346148863758 -0.2533518775274217 -2.3827058342529868 0.6193034182311463
Ni 7.185593711206904 0.6292734877830033 13.182160555003518 -1.906822921233742 0.6895392717292576 -2.7832155725475554
Ni 2.460497262847403 6.180199063831294 0.7950616824015543 -0.23741232347902982 -0.7770012592976683 0.09555864853361606
Ni 4.208224483627743 7.013312317740972 10.347594468698981 0.7644671313863995 -0.2996119369362259 0.5850097871555989
Ni 6.400195420158018 0.2191804230526492 10.052026576279184 -0.7662630469445577 0.030416664618644385 1.1062839838254495
Ni 2.376884940505159 9.234169700149124 1.5678051354743159 0.9478536354682772 -0.1270891150417295 -0.9949773284289574
Ni 3.4803490253289326 8.838391124277008 8.911110135416445 -1.8327676939895403 -0.5581173336401292 2.408942913572645
Ni 4.633963832957674 5.056100480316944 8.949620148434974 0.40765843352420766 -0.8478528920029076 0.7016743644298948
Ni 1.2361805867250097 4.226395438040179 4.697695538204232 1.0636095848853746 -1.1390992305832577 -0.03257022062653745
Ni 6.7671431188201865 5.718553093575256 8.180709081160309 1.0194331474784766 1.4111342863424794 -1.3268658660107018
Ni 3.331489825394629 8.774088914039723 3.7864166175537126 -0.21827997352495312 2.4322831309604824 -0.5511146770700508
Ni 5.443793815005544 2.6693798855885396 3.8784957525992447 -0.05023986999215863 -0.6760098697842551 -0.3868970326071401
Ni 8.476333468392498 2.5125651046958857 2.657821602659527 -0.4190584478310331 0.36606749745629863 0.9345412346300872
Ni 6.622071849749638 6.497033085467113 5.317948378893599 -0.045816287003166256 -0.29291035654633424 0.7678617588902453
P 4.032710845977336 1.4743108516855525 2.297257817797814 -0.3598354005036577 -0.43192424805010776 0.946643160099944
P 8.351452148669102 3.516070417361945 8.643004278686638 -0.7858995902285627 0.8604690381050213 -1.035937830001719
P 2.2054370770581473 3.239477372750611 6.456329036209896 -0.0509626070907961 -0.8982020338794209 -0.30735944209212873
P 5.174267252665714 6.774404091429438 0.5527322784345897 0.5251627330909794 1.3570758139351788 0.6993179483825762
P 7.593690008469713 0.8305950671080772 1.473367110475243 -0.6877654676582865 0.16260350589825545 3.324321202121036
P 8.394202977194999 7.258416450526472 2.601121186194786 2.708475403421187 1.5106406066699338 0.9922799841024523
P 4.241343409712797 0.5359468361424892 10.77536485284168 0.7367221000626474 0.019304870976199012 1.0389650468638172
P 8.903471295865282 5.79677525512849 12.006950836873513 -1.1656821232781087 1.1408028435379256 -1.1885932235483272
Ni 1.2523418076473862 4.251151279602078 1.7165448627725743 0.9121579818388807 -0.7924209362868482 -0.5046152479569309
Ni 7.932788543055328 1.7904502649722722 11.352389900605434 0.9040271252016302 0.3234036400391849 -0.24935869720762863
Ni -0.19411247080588886 2.131956775168098 6.5773622256792805 2.690159892941451 1.1390159268408317 0.7535525413564248
Ni 8.3242049784951 8.503386148228751 4.714612493010428 0.07192146873065033 -0.408445191091561 -0.5879377594356713
Ni 8.568716378822701 8.78523969340393 10.642688175152458 -0.2618763700586651 -0.5278899022141553 -0.15408904066934107
Ni 9.01765564701255 4.6604515646699936 6.54943897004549 -0.9967547320443543 -0.6165171137352609 0.848575629101545
Ni 1.655955565697342 -0.6541682510147215 5.371626785967526 -0.870111960511424 0.742723826172037 0.3781100304431294
Ni 7.316356048286007 8.42323760618735 8.10093747991635 -0.3258698421914904 -1.3141250214052658 0.8982251738078724
Ni 0.33923930854436546 3.9556463650059346 10.42229635513898 0.1493489548811944 0.4723090796250576 -0.0556903515837686
Ni 8.025375205267935 6.00989961952146 0.9637079588405326 -0.5773250169168315 0.42174113686951886 -1.5840440592627494
Ni 2.826231712259812 0.8035349781161001 7.111866128744574 -1.3680405404767988 0.6980899895127461 0.4508025730118494
Ni 6.362380941633053 6.324066345096736 11.968400073498502 0.34507598280629603 -1.1456254617375494 2.5277924143134016
Ni 3.9607216366766864 4.205270082782907 4.96600514671644 -0.580451221250639 0.13179474804751495 1.8066391152232886
Ni 4.683271764299068 2.6472079870852903 7.442636772296722 -1.7217711136342992 1.091430206642069 -0.2892282797090567
Ni 2.1710215487214417 2.262969171252877 0.34757090415569497 0.7605479988376515 0.5119937998091891 -0.49762467557171075
Ni 5.681247994506298 2.223728430251095 1.0657690789348535 0.24691640631472317 0.20715301037385614 -0.19214316722858524
Ni 3.4850538392134984 3.78089216581721 2.5889081191286896 0.5603544505007639 -0.15844217543171424 -0.01248579117183656
Ni 5.19786541364578 8.421144519695396 12.542579079319882 1.0037553317319035 -1.459018768728584 -1.5920160217246324
Ni 5.498112187905108 4.995854782838401 3.459224596216125 0.43886751213716035 0.7460480054492635 -0.5085670335158273
Ni 0.7492193836499326 4.224913606895434 12.826028371409057 -0.1676068726501178 0.0025384501511375637 1.481475040849571
Ni 7.383909025597076 3.6994562829688102 12.618107086623075 -0.3849368235569758 0.8008022183720079 0.17054435801188694
Ni 0.09595041891117836 1.7014107360623991 9.464699097481589 -0.6549335087299301 0.3385150417593267 -0.4587562806412873
Ni 6.241509827445124 2.5967794209406825 9.66879725791413 1.1939388041309567 0.6891638906677099 -0.352022075106826
Ni 4.529142802356265 8.7616137480899 5.800820654153645 0.053451692061236976 0.9893800368468382 -0.3371143047570581
P 6.48129789099885 7.251859347710975 10.19413696149364 0.5998609932358184 0.8834166480401301 -2.729767222920428
P 7.248145508404457 3.8408600199561147 4.0457111358390785 0.4151686258583237 0.053818074261720215 0.7982941072381735
P 2.0911601114643332 5.663836478555543 3.23228586097627 -0.11283697599808955 -0.6514134113918135 -0.4764092178363602
P 0.5396866074940397 1.4176400718437059 4.410193437934177 1.1111595667501961 -0.5931727825823656 0.8270202715282725
P 2.5743482019871027 4.9481212970882975 9.667184840399752 -0.4949144757293993 0.12008054493438028 0.15315110223610398
P 3.4705226325503413 4.081250077412394 0.4164751262418782 -0.750259986648082 -0.9175660402283294 0.47256490438960547
P 1.5302777617336454 7.933501674293737 0.13039002700398622 -0.3028217021227752 0.05569935044483311 -1.3919214608594543
P 5.929760338924711 1.3040762374883006 6.0920375198746815 -0.41421757479896404 0.45210252277019564 -0.174221549753158
Ni 5.601932982483815 1.9694925130361032 11.976614048762718 -0.7117152936056645 0.38330700126303663 -0.21454030397686277
Ni 1.8409436612294627 7.251220308029803 9.6258139671274 0.33769357429929586 -2.0963782731304925 -0.03243549482088607
Ni 7.781289831394447 1.5526163662406782 4.891845054788739 -2.5637418358248167 0.9815471710659804 -0.6240046803615575
Ni 3.8607350801850084 7.029390185661457 2.4812947629639015 0.12364255125402578 -1.24018497958269 -1.9238014580696094
Ni 4.067191204426624 2.8154143449031723 9.953941394375109 0.6697713450737109 0.23465841488297648 -0.4710466679728662
Ni 6.428859591364183 7.142389071892928 2.739938201690044 -2.4229392278517365 0.24299701665565895 -0.19862311852597403
Ni 2.8410037164839896 6.282825132049549 5.2253404153582865 0.23679757271316637 1.7993551799673655 -0.7873648619201795
Ni 0.9299972264420463 6.327798707292564 7.730776059959017 -0.4711721378071369 1.3427951356464487 -1.3209065631034735
Ni 1.2696792320409043 7.6823590795934 2.9820999735087597 0.745161231968936 -1.680092245838274 0.2790081446429453
Ni 0.6209641196388449 0.23054699407730983 12.533456556335043 -0.16951823074021774 -0.6842183737369766 0.42027200852316005
Ni 5.8846107962332574 9.590040711004322 3.9097271962636793 -0.42839489474061054 -0.9319732167925949 -0.35897150984146564
Ni 5.184195521335506 0.5431022282826773 8.059635141334443 1.8683548470655307 1.276021529665325 -0.7359386849294035
Ni 1.9850332171666176 2.925218032728787 8.613440821204508 0.4503302613611212 1.4522336274859506 -1.2997980632596324
Ni 2.8952850436049347 5.180509466362953 7.241791231226897 -0.6500972636835514 -0.9773519020377104 0.9070114046409347
Ni 5.15073392179823 9.100795635677407 1.2099595846187445 0.5614091170175235 -0.5813716761823794 1.744909756534292
Ni 7.426270873447478 1.4997983473751688 8.06700910356848 -0.4559779465652018 -0.11204456200378123 -0.9609878588573901
Ni 0.3793478469102889 6.4674057240168645 5.037873957236578 -0.30220849401880856 0.1272834904407227 -0.28270230566508087
Ni 8.825962265550459 6.520455278998741 9.690647784287862 -0.838973844345723 -0.18222873632835068 0.8295900891379776
Ni 8.032497256207366 7.960758105912392 12.87040828804971 1.0754034921965092 -2.8019347462236133 -0.47707204823133964
Ni 3.4583994014973953 1.8737199138622942 5.222548089794906 0.25570417980968224 -0.18710611902531002 -1.3483186365678392
Ni 5.049376671497663 7.588272063346738 7.641313283028426 0.5781953353369268 -3.3241584512909266 1.3539020441928877
Ni 0.2438112351117097 9.17732295285884 7.641705968281784 -0.2134462995817356 -0.19692156245383505 -2.173674118799179
Ni 9.35730060683279 0.25527690359417515 2.5421563465119803 -1.1230478335473497 -0.24592730292857645 0.003021817545459312
Ni 2.2207091992936765 6.1129054069705555 11.793606976242229 -2.352026660001575 -0.27081943818456583 -0.7919365404512619
P 2.9265424193144027 7.814232790031062 7.069424632470143 -1.5410300175950686 -0.7027758250241897 -0.28199088142035306
P 4.954595046901902 5.363830501857236 6.790475476338664 1.969926791672762 -0.5279665210883617 -0.6573038087343196
P 8.414078037423893 3.9601011198848246 1.0922392139023291 -0.8438602259037467 0.22970929840781726 -0.6285820153195948
P 1.0872195108995049 9.128950427427563 9.472614854227926 1.3811449390692407 0.08635332788526419 1.4247621615385593
P 8.366548303456193 7.336573781967123 6.612497368265654 0.5702161737861922 -0.7547879564254226 -0.054230222098474355
P 5.296314570324785 4.179634403978816 11.359534179012037 0.7804174840680689 -0.6963305836194782 -0.17863561966045363
P 0.9149594187562795 2.193128617112108 11.94229298716149 -0.4359575375792169 1.7708449883428148 -0.43288069842610616
P 4.795196322950599 7.232252869377066 4.28441561036821 1.5677630627145387 -0.138521011027755 1.0798874961097917
