# total energy = -340861.0750527192 ev
CRYSTAL
PRIMVEC
9.33868992571694 0.00000000000000 0.00000000000000

0.00000000000000 9.33868992571694 0.00000000000000

0.00000000000000 0.00000000000000 13.66811667553389

PRIMCOORD
 96 1
Ni 7.494737410783561 5.985978701217402 6.851047677396531 0.6176741101578395 1.068692655835237 -0.30200486264843474
Ni 2.8717871662059746 5.124307140354813 1.7121226860384755 -0.09108518614329475 -2.2386212130945253 -0.6140640242090779
Ni 3.670058362626594 6.497533446158074 9.420708620231899 0.5861199895006421 0.6044280437812107 -1.6297945260249866
Ni 8.012287594518128 3.058290138406679 11.82738981637737 1.1112140741372152 -0.9558621075950506 1.6122117799462172
Ni 8.968952307112005 3.1722875236980514 3.080396684688463 -0.5005274510408025 0.09192927931114489 -0.6504276504397767
Ni 8.785559118584768 7.494961539336604 2.855474343020346 -0.29999323153504465 -0.32846382817091174 -0.23332169834942396
Ni 4.232789127178696 0.35148493396444846 9.22548611344886 1.0066179979916792 0.042636603723603984 0.40674826300511235
Ni 2.0213220329955237 7.476545643228256 4.775530426406297 0.22131567502748337 -0.3087002723907393 0.22028749087328514
Ni 3.791470667547798 2.4746500475936295 1.218226469470659 -0.42167145997384803 -1.0174515982720735 2.202617027085774
Ni 3.6049023245191223 0.4035780129054113 3.4134068887993916 -0.30748953991208977 -0.7066607619008927 -1.129218738244752
Ni 8.906691262814668 8.53605734559963 13.00575969203423 0.5506534211629162 1.8942003473737246 -0.39922855758929954
Ni 0.6783166609631647 6.525530837908999 12.239648141368333 0.8417786607843697 -1.8832603034224533 3.4738709601591267
Ni 8.685373655374656 4.976849229832098 4.801704905925808 -0.03708559199838774 0.08151579728730478 0.31356197135841485
Ni 3.0014922275897606 9.181099321256683 0.7174887288212126 -0.19009734044315002 2.460916478426458 2.25333126561119
Ni 0.3379699822159703 5.350415495616114 1.717467218159574 1.8202685330812651 -1.6353954171515317 2.406222172207372
Ni 5.103481862301256 5.939415994322769 1.6518872035392633 -1.1422339195574973 0.7405142201152279 -0.5400728174335925
Ni 2.664402883813454 3.6679571574418186 6.798233651609946 1.9400176628181554 -0.36956985418260224 -1.5310567084324405
Ni 3.4199402361205875 1.0599132660289077 5.695955419711104 1.1025162892529012 1.086732286945767 0.16118014318816756
Ni 2.0751222244154954 -0.014184535800693478 7.333518940972993 -0.22903155561450234 -3.077180595610649 -0.4980663910948196
Ni 6.931483679607692 3.919550796922023 7.394628524829071 -0.609251176201467 -0.5117382321549574 1.4874482277138705
Ni 8.712876096570945 8.44351093057239 7.601932494490085 -0.6713633721511792 -1.342801563404352 -1.5153166719893645
Ni 1.6876973431016697 5.965265487440367 10.201731256757936 -0.06980725060112493 -1.6210229504799436 0.7444883742716275
Ni 4.4989137678478395 5.40867024202781 7.170717563256559 -0.10848744078014219 -0.03821764872030192 0.7011719708721795
Ni 1.484244649077107 3.397041768951386 1.1635008139004148 -0.5080116752329896 -1.60407603821296 -0.7539425777059919
P 5.220318209264503 7.656773015943764 0.022587488801854842 -0.9456509713900038 -0.30774330779410874 1.1863640771074921
P 4.301867414964416 7.816716754608901 4.043014811972538 -0.21142258428348748 -0.6272275581742295 -0.4023820156166167
P 7.4680661129714725 7.451536632184569 10.82529891542658 -2.016407194622489 -0.6503939689883638 1.0865037158747288
P 1.3927254899179813 5.1673304838493115 3.9272328030775636 -0.23290415119603117 -0.39179112747464784 -0.8089641853575099
P 7.259449123537217 1.6523970959974354 2.3007132162668564 0.2833085717905121 0.19820351449005222 0.0966667939961303
P 1.8276562857871614 1.46659452552499 2.2099159378223225 2.4363786411860944 1.5701814423480442 0.353891524215397
P 5.903490055007957 1.2386464483907962 10.823904649052862 0.7443261376621504 -0.018642297691535633 -0.32947632859582615
P 4.708389916735427 1.8231923921057265 13.043388074483195 1.0156340854473607 0.1890143917916164 1.536715963600747
Ni 7.009994044000628 2.309056401653873 5.718466331257336 2.211360577606359 -0.6599787844633215 -0.6325561694759945
Ni 5.60534304732283 6.194838496584121 11.929245037307652 0.49946455699392683 1.2353456492125177 0.8028768415128495
Ni 0.5102006349327058 6.2914939350838095 6.508797773686415 -1.3969677650341101 -0.07273522288119733 -0.8599077662849125
Ni 8.094038484240471 1.6255577017705654 8.245619426270203 -1.445868347389555 0.2892591329469922 -1.0567236563988187
Ni 0.030570200766061033 1.1731262013846304 1.275796689926604 -1.1241235831100318 -0.2480525768016954 -0.8445755068032164
Ni 6.323264157477621 4.214541327485132 4.479328667787787 0.49332399131382776 1.890009963441461 -2.3272988182375918
Ni 8.530379422255878 6.748239910115818 0.6696531585190912 -0.5088711950198075 2.12904748122874 -3.2100678053913945
Ni 1.3281391118828272 4.521476042187477 8.237636714305996 -2.215127243737643 1.0474897965053767 0.5881961553033804
Ni 5.42245414803994 1.865991607047183 3.9039150287403777 0.3790572248477472 0.47565999837516143 -0.8004268373104603
Ni 6.005851432920526 3.557769957552173 1.1640256482621234 -1.2932039549818826 -0.5344955804561311 0.4391017396351535
Ni 2.9503909174960117 7.265790093850384 13.382220017759408 0.4044198719822519 -3.5698178452700975 -0.5642676695122412
Ni 3.953384869741769 5.08915631228594 4.756599968494924 -1.2851306910554448 -0.10631254461601046 -0.10751504956454387
Ni 2.8653808250648365 2.636087976612386 3.975808931473697 1.3388166106146748 0.7559580654741238 -1.5946519166855826
Ni 8.014668960394205 5.151239921478784 10.880818359622184 0.34635793484251315 1.819568164580131 -0.9550252135160521
Ni 8.861828197447277 0.8683888803710748 3.9772031978474174 -0.5840466519113813 -0.3345717408408625 0.38321444154923034
Ni 2.767894243180947 3.9089887388598834 9.97396621794206 -0.8791545303296665 1.470235977600642 0.465477915635837
Ni 7.272112386784132 1.2482559601025045 13.630214526225336 -0.5832627225575052 0.5370381443723268 0.2969241056914177
Ni 1.5770151926573883 7.200578023604652 8.251578444174227 0.3738250299145304 0.3684478247630171 0.7525408122624588
Ni 1.8568116750621402 9.018372653057932 12.141646997681418 -2.7193642824195488 -0.09310401634553643 0.531526213415162
Ni 6.7886297431120655 9.039450075733662 9.540072016630702 -0.08576891613670388 -0.09170687888769367 -1.9809599095584725
Ni 5.558967114222399 6.736790676531218 5.541819412176686 0.8425188813845039 -0.017468846208724752 -0.475355065540233
Ni 0.13814163366790325 7.459707985680919 10.454974108840947 -1.0964166041130665 3.7341578742434853 -3.319052240412613
Ni 4.065337081986626 9.14020519901609 12.275882257443579 2.200839109249745 0.8994842430259542 -0.41975727367027066
Ni 1.0349416097440605 3.113005521418242 5.069025832746816 -1.6002852037119601 0.2866188671106677 0.878747524699235
P 4.3742889536663565 4.057800759390563 2.8624456748889466 1.2442383237164572 -0.7758812867606122 -0.16013936062847905
P 7.206274624327822 6.384815461356988 3.9114868383573387 -0.9495904156537259 -2.5460099657626927 -1.0740708894280147
P 5.065389346973698 7.91986258245712 7.844391961564827 0.3795585899641979 0.11603208589661952 0.0428875433921455
P 8.788426096325773 5.803043108485961 8.769750584643486 0.4648495380232187 0.2081997064708156 -0.8293278366155266
P 0.3717172052214124 1.879887577335834 12.567299805323596 -1.1519352060056613 -1.102875986585165 0.19808344397242017
P 0.0474199986100213 0.24196638425804734 9.100874373432971 1.6567666837384563 1.0844419482496936 2.160656880603905
P 3.3160940065441102 1.6175077512404463 7.790047324534755 0.3892485635584522 1.823505294851008 -0.28183790078225657
P 2.6034679334549544 5.310473919725952 12.085731593042103 0.7119891160923416 1.526303252907855 0.04725944720759603
Ni 4.0748438681115235 2.5419259682652977 11.137806026278952 1.4337805629870854 -0.894575235760111 -0.25338401631693785
Ni 3.8530499874962953 4.127177885247007 13.260423892691119 -0.714195636825357 0.24887558692362297 0.5002970801975513
Ni 8.141983317212203 7.709060339630697 5.1506796000961765 1.0034360007192717 1.4380961596433042 1.7447272082098402
Ni 4.413819627209273 3.32505914866582 8.65317478712315 1.5536875584580792 -0.7270604086031672 -1.584081083148272
Ni 6.208734466872771 6.296919713805386 8.772032960408637 0.2810783969084127 0.12482011650189472 0.9956707549515561
Ni 5.56151657651326 9.104353969218959 5.523586554386658 -0.8893219577809717 0.5884103281967157 0.4424997095731089
Ni 5.901500914099702 4.158453157086182 12.334559112630172 1.4160337805266257 -2.4221108184131706 0.49192351142187535
Ni 5.092191386441727 7.799150679264175 10.616299039714209 -0.2520264738477788 1.7480128209396477 -1.0269225138769862
Ni 6.427624014988154 8.351702272032252 3.4303416687197132 -0.03340762892616827 -0.3357670467005443 0.353777624345352
Ni 9.334543331883582 3.046579421510195 9.680771517410207 -1.1952554660598513 1.0553411742289953 -0.3612425652638295
Ni 2.748058866236663 7.062626899206835 2.4361363573601453 0.526873288024183 2.4076679035149633 0.7272213596610636
Ni 7.242209902332345 5.5042050377622855 1.7405935493577025 0.13554238801540527 -1.4851985124477454 2.3147834593794006
Ni 8.266804243877598 0.720371582334725 11.130658193174831 0.7916940854231526 0.21697976665629082 -0.27621592660978883
Ni 2.450509534692983 1.9549799812948676 12.879315701097216 0.04004930261240199 0.21521084768132615 0.19099157012264525
Ni 5.6328921819676685 0.2415816302419906 1.7574872390433003 -0.6918231826674279 0.6464092733090029 -1.3615600749587777
Ni 1.7037038572648069 1.8394977443395872 10.42058531785242 0.5179705862179144 -2.0600390723798263 0.16055459378902673
Ni 5.515766335623408 1.39260408695175 7.432817228660644 0.5516116713111274 -0.3875953442257454 -0.2760297787409117
Ni 1.1013770483418177 3.959725840054937 11.73082496316787 -1.6411040375005348 -0.7875592373191727 0.7853141500387378
Ni 8.211164330584733 3.3562130175387637 0.6452399558789088 1.162001846213044 -0.13814228753209756 0.8364911871331852
Ni 5.111550490210795 3.3088471833290614 6.041361800543238 -3.356013648128311 -0.34665104060289975 0.9184273597873601
Ni 1.2616009476982584 8.849389062753405 2.8524402027335296 0.1836176462560773 0.45109567877223605 -0.13225420418243675
Ni 1.1337636242564961 1.8950442707353503 7.495841243907296 -1.2986644638758214 2.1540434890524454 0.8013159247836329
Ni 6.580311591748532 3.35426123138935 10.164664129560547 -1.1824356885873637 -0.8234006724978142 -1.8625204997719407
Ni 6.651537778167579 8.675642740696716 12.496936513833765 -1.0536840982415465 -0.36718952687588374 -0.8661164661987858
P 2.5689988297349204 6.1125272854791675 6.457569457412609 0.9017211027762727 -0.5869080326195764 0.8918470381956706
P 2.6900562644471395 8.770888037050177 10.28245582448114 -0.22056722689723304 -1.7427921959706567 -0.5779145708717143
P 8.562373773202733 4.926186838154726 13.025017937954429 0.08564396052306542 1.007510942119594 -0.38976432685260615
P 1.5650056376901806 0.3883400729054169 4.9458625235049665 -0.6600685159636503 -0.1962921563999523 0.28210580973166255
P 8.861557375445683 3.2737617260881597 6.75718824259605 0.7050476517775018 0.17764445939177795 -0.1578773040671797
P 1.1055140878833987 7.824495883137427 0.7964959115067265 -0.11673014040490866 0.02106016310440889 0.5026732937392117
P 4.953306393072899 4.884900490946308 10.054758024231177 0.3634817390069934 -0.06669107356964643 0.7761203993546117
P 7.555924505764233 0.3366392189322789 6.0453802387255005 0.9492062928414297 -1.0711411173757295 0.40922166424626943
