# total energy = -381175.6065631431 ev
CRYSTAL
PRIMVEC
9.20673913261294 0.00000000000000 0.00000000000000

0.00000000000000 9.20673913261294 0.00000000000000

0.00000000000000 0.00000000000000 13.47499335202959

PRIMCOORD
 96 1
Ni 5.501790618634793 9.165538687707652 7.680071884873567 -0.6233999568980232 0.32987742068898673 0.6479755893548582
Ni 2.113314834259727 0.34767960301058914 9.844276968093695 -0.19323588607213174 -0.3583978967261828 0.3277264357842549
Ni 0.38311910284293194 6.5818147389508175 4.403115486768524 -1.0371804441595684 -0.2625705679122123 -0.23092825841658296
Ni 0.8388489929271123 8.168062187867244 2.5395104268061286 0.27080221179338526 -0.3112518351679995 -1.4995069586506176
Ni 3.7505492028944194 6.480282822978802 12.228893220587784 0.1649324111417482 -1.2214845749597092 0.005571837660822662
Ni 4.9791516746754745 5.46013933210438 4.801719403673238 0.4243628907630821 1.1337976158646859 -0.41768033653658393
Ni 7.936761287888562 7.317166177162712 8.149783128566298 0.016331133059855743 -0.2790863061790484 1.6774542939947952
Ni 1.9702236991457396 4.549546826735127 7.894661633176443 -0.9179056829559353 0.800148386838093 0.17942623388254905
Ni 7.503142301812214 5.12392764299792 4.8595671851780775 1.4430159655424244 0.597206586332107 -1.0408332104208076
Ni 9.014373242627448 8.635276563985474 10.389623412737942 -0.14211284214407136 0.6229289307988756 -0.4899694730192981
Ni 0.01257088121764499 4.016955398085408 1.0238123763037696 0.7326191336378673 0.040959987352129454 1.1258899309818353
Ni 4.901014082106153 4.899881653228336 0.1801408935701519 0.18078711878581769 0.17261872404241238 -0.2750008232557651
Ni 8.343201980897316 3.955702964556045 12.214393527582313 1.3255198935057686 -0.038553691903481985 -0.22607375853775902
Ni 0.7906517150785907 2.757105254667698 10.777259341657755 0.29746480868623604 0.8589009222869531 -0.6038081508090246
Ni 8.064145726534624 1.4472993462822563 11.549160612406585 -0.5481764203773333 1.0527034794958323 -1.2314301162081955
Ni 6.893186646656071 5.07128351028773 8.268781148799333 0.006161391615705517 0.10871884006465792 -1.0584743205413385
Ni 5.1779804067512485 8.137320886867013 2.7457045499571295 -1.0578809099317135 0.2503881669134075 -0.33532713094964833
Ni 4.101068164164508 2.6384764246623105 0.21100740621866268 0.3187831105480381 -0.6218848058050773 0.6076308669892245
Ni 1.2483325131238219 5.193917271690272 12.279437296167652 0.20422503809378376 -0.5847971569241606 0.0215692415303435
Ni 6.098525396810903 5.3014703948662865 11.467111076502432 0.052973981093870054 -0.2806680488438715 0.12571280351949318
Ni 7.702053894537584 8.773727502722068 12.840859627507465 -0.27646326673390453 -0.5502227613834008 0.3119673731777853
Ni 8.248823701007117 3.3521644063741936 7.015094917037703 0.41038920219180935 -1.2224795918831268 0.10447831962074909
Ni 3.675201252194839 3.243285512804639 6.877433916493927 -0.7029524598113701 -0.7213839270436803 -0.5552965763618823
Ni 4.478756211763344 0.5249875830384315 10.194101741254945 0.05323186274094704 0.8211830960212051 -1.0840256866478815
P 9.19752289845183 3.9537603426599532 8.789333845736591 0.5787794899751709 -0.6485921398929346 -0.12307202346253643
Ni 6.960948244548167 7.243254477722803 4.053277824172893 0.15709388893393592 1.0024450975609123 0.9739292495094066
P 0.9629420224364342 0.8433851531555683 11.805751503315948 0.6510837959665368 -0.005913537270957558 -0.27504247512697794
Ni 1.5693991168318444 3.100083896824523 5.818744572101185 -0.3522516746191288 -0.3781812500006971 -0.43913130732150824
P 2.1548188129686356 1.6608680672473293 3.708412721226926 -0.7103389820834282 1.1057301682045084 -0.014089902434162832
P 4.36024706936293 0.38186054164295236 0.7039095043856332 0.08703441311268881 0.1428576907298959 1.5134114845468516
P 3.7449883326326225 7.66156265710152 10.310377328811796 -0.5559804898027844 -0.7228214308211551 -0.6540462210289704
Ni 6.273342953981435 0.7625794476692445 3.6964062131004196 -0.15934823218575137 0.10405434470945304 1.6074758079231284
Ni 8.400237728036112 0.1765788063113949 3.5834588616356866 0.3257852528974841 -1.5526539749872421 1.5982746010398345
Ni 3.7948888571672903 0.30692229082193184 3.972791592524457 -0.30874166715163603 -0.019376090533766634 -0.18336079305026484
Ni 5.827460591764833 2.6609961078748197 8.028926267760655 0.10589628301419828 -0.5559576069846489 0.6706406350525418
Ni 0.7115474149306444 8.706555136115991 13.424218855490961 -0.009764021365299313 -1.0429811100017456 0.04604665784641747
Ni 2.3610037293807924 5.242344718009895 4.936509743045444 0.057486267141926804 1.7264569491457429 0.7169156068596815
Ni 2.629306512773652 5.491064767881492 10.219353984556363 -1.3746621595583746 0.7654477501321141 -0.5057174798821742
Ni 9.136380945788595 5.423837160842351 10.320119899856554 -0.1824814757691051 0.5695438303095159 -0.3719234420164434
Ni 1.2276081439859001 1.9294010191112896 8.287565658062816 0.05496658604386663 0.7064041658053963 -0.7042809488148064
Ni 8.041082845730319 2.5667375155895926 4.748156438426413 -0.07207882024412103 -0.3620601760691184 -0.6392945166410926
Ni 1.3189850270129444 7.127461323281378 9.150423063873516 -0.23960804557876797 0.5623393421412767 -2.041210112598782
Ni 7.664232611366289 7.700230960246465 1.7117417440778118 0.842655149852052 0.6554675268565292 -0.15843034835717232
Ni 8.321207081798917 6.446567745331946 12.375716767629143 -0.17265523370730265 0.7038477179321297 -0.6844186626732407
Ni 1.8702845489937427 6.96953813188965 6.658479253305094 -2.1405619096262427 -0.23467024195751843 0.23287458350967638
Ni 4.647589388685253 4.762158046860421 9.31709541918873 1.6277070473683388 -1.0653381375407072 1.0979518098106704
Ni 1.7174710976604546 2.9294830260445597 13.21144927945755 -0.8178064662394884 0.30008193459410903 -1.5019633906109102
Ni 5.710829624088601 7.208692380102296 9.0092994088505 -0.19183874861428898 -0.538150403599899 1.423666100260903
Ni 3.4156356639649688 4.0618382499500765 11.706616101465036 0.96969721370593 0.6843667263893827 1.3859050794620453
Ni 6.007636470942592 6.06408298679537 2.2919347745728444 1.7750243165314847 -1.675267056535489 0.9450035676139918
Ni 4.951991795085572 2.2484605537513125 2.598382918344308 -1.703719398338911 -0.2831188243772092 -0.8608588173442722
Ni 3.818099045793102 7.593543270521791 5.793222571351637 1.7842234665322498 -0.10752404842560837 -1.2532965772639835
Ni 8.359534735606635 8.110520070092027 5.966605718610268 -0.12042892941273453 -0.27017614817361213 -1.3463424866780747
Ni 1.7942645063585483 5.544380992527298 2.571850938343569 -1.3051608702334423 0.6281891507565505 -0.27111228683463634
Ni 4.002150962024199 5.2874209113902895 2.286396000484273 -0.3170828400274797 -0.9774470328546778 1.0698265123293642
Ni 6.649898572702453 9.182497500658364 10.146979810503407 1.059265706094382 0.14397226395031335 -0.20112274501937621
P 7.360695638417309 2.6819690589615304 1.3729935984198207 -0.4257921670104409 1.8850179095435085 0.7139909770137187
Ni 5.839503006172831 7.631548688469966 11.830989936509102 -0.3516289534334654 0.006768171961768989 -1.1176408035991654
P 2.672421670780267 5.340019010406259 0.36964319919691835 0.1952467458545734 -0.4777050538296482 0.9957828550493882
Ni 2.1367183644012635 0.8857278657731683 0.944955737430728 1.2743089178495923 0.283842332806795 0.8629972038435136
P 0.30517577246321853 8.63522132355241 7.678213044300956 2.139873111089334 1.3163017173416103 0.5040364926353255
P 4.67008145168123 4.975248017405604 7.201036056079596 2.131887007560064 1.7894448628321893 -1.0295913189584012
P 7.501457468603756 7.117656146412481 10.548305239410416 -0.8698569070778245 -0.38594058223114175 -1.5155987220061575
Ni 6.376587323378439 3.0535806589233037 12.724799477639563 -0.6942384769771399 0.22451001359506495 0.22111641453248368
Ni 3.7915283974892176 3.623643514668245 4.509164228817422 0.10263663842632001 -2.729591873684828 -1.4043504306514265
Ni 0.4989813078256867 6.488430786855773 0.6985346102484857 1.736422802109203 0.4607553133491871 -1.2652812604296855
Ni 3.563781298704331 6.495216153383827 8.276582939295766 -0.6186644990955668 1.3765681183318357 -0.8140979070396496
Ni 2.313441716512509 3.2205080409044973 1.8535798420351262 0.4627839137434417 0.018567221479226088 2.1851373822437723
Ni 6.512764197620556 3.735928901610092 3.133636935867723 0.3475920643599304 0.37900220324009565 0.07496591198392896
Ni 3.1440368680659447 1.8473413557944083 11.68307447024084 -0.6058418934096018 -1.5637017481609714 -0.10445646524387815
Ni 2.583337265725387 0.10734965424756031 6.789375142146272 -0.41681875986723704 1.0295039014509173 0.9865132568220044
Ni 0.2598850620677586 1.184097096208992 6.188861918348571 0.8975854833413445 -0.8152299637615636 -0.2999466945678254
Ni 7.297721544724111 3.765114263745682 10.020072280929464 -0.3079893623666438 -2.286516237003591 0.896790755354191
Ni 3.747299224082475 8.758011599515301 12.327624446603444 -1.7469653535117398 0.3458627403736495 0.18414420818350868
Ni 8.15547657586745 1.3423333167214166 8.931036604632899 -0.049134295632805705 0.32495324391449193 -0.5794418061495182
Ni 2.910379042943188 7.556651867973744 1.1530740690001327 0.28199808050920466 0.09923558316457103 -0.2509880052809355
Ni 0.47906897305380847 4.101500880890178 3.984097467824932 -0.5772982774439542 -0.016115674614939984 -0.7045329169246124
Ni 0.04211254414649916 1.9108954740347797 2.6406004193136297 1.4845745057105013 1.3050510841284557 -0.35738102542589417
Ni 6.248429518669475 6.6081736322612885 6.568345280021994 -0.46353750408001465 0.5796595785872791 -0.5494956534093891
Ni 6.246192281130375 3.704975845616447 5.871040690083071 -2.236193063269007 -1.11739012104094 0.6732778155650727
Ni 3.0582392687783853 2.9871632449024377 9.487957761351865 -0.1307958744693554 -0.2008422376644799 0.34962117897481726
Ni 8.997193467944479 5.535855552357722 6.626247381286013 0.3434572162559504 0.5918882594429871 0.4255769656758413
Ni 8.86480056336726 1.7031546187579807 0.26563835317139584 0.3824423392698962 -0.6178211772586649 -0.4879706974217144
Ni 7.251255133778269 1.0786154892728863 6.491120075272114 -1.2345673762855964 0.30325776121892933 -0.11993399205418699
Ni 5.61555829053053 7.428098173494487 0.5933872079324186 -0.8914485172056712 0.5564743987200674 -1.4248423799571912
Ni 4.724106595218025 1.4541399532433739 5.707845720029249 0.683775629772603 0.4239332594248312 0.5699287244527604
Ni 1.5480486894525278 7.441309843735677 11.406877828963104 0.6994182214058665 0.27380988827145747 1.2790469467552101
Ni 6.583011615000541 0.7286977280493123 1.2491196892949872 -0.382617945615812 -0.6896585709159412 0.5097407421089544
P 3.051334214645359 7.1819007700661555 3.419454619237474 0.2894424526023918 0.2599040768236427 0.5977593735117835
Ni 1.6951907896578908 8.586057338125265 4.584408143368065 -0.11533994492560137 0.8023471942616246 1.149647438412749
P 3.7620300062329304 1.5142875781114529 8.099858666510636 0.33737141507318674 -2.1225392477965768 0.06321802741938146
Ni 7.3157391326418875 5.187444934282917 0.4909152839244279 -1.2437549563221353 -0.07086345977978119 0.7564352622208586
P 5.906380757135898 8.680187036066675 5.564498637575398 0.2629420923190181 -0.30434302386330814 -0.6132983496876471
P 5.052897652816193 2.926435595487184 10.795760283364844 0.9928268577448578 -0.13878994841842549 -0.09272503573956288
P 8.694521928446838 5.919417499339051 2.333747179033028 -1.0915189097011329 -1.1136702489871917 2.627916570730513
Ni 5.754635287508519 0.8077007540699741 12.479635990983414 -0.3370639111350969 0.31643183670704217 -1.0363260665790732
