# total energy = -381170.6088888171 ev
CRYSTAL
PRIMVEC
9.27907750805892 0.00000000000000 0.00000000000000

0.00000000000000 9.27907750805892 0.00000000000000

0.00000000000000 0.00000000000000 13.58086787657133

PRIMCOORD
 96 1
Ni 4.696094660768819 2.114432639018468 5.276234640642805 -0.07505692903583848 0.1249350448132042 0.06865925303961079
Ni 5.8190857202040736 5.672986647038353 5.692230525592714 -0.6085572354582358 1.6890808224901297 0.22292235739297095
Ni 9.029730001372547 0.7036194461387179 8.290019583809372 0.5802483612112135 0.1347476600282518 -0.3930486540308327
Ni 3.065770046215384 6.345886779641193 3.611479081606124 -3.075475182883768 0.5076769176013902 -0.4208021699950172
Ni 6.608800157797909 6.69857523133734 8.244686651325972 -0.38736060250712 0.4737738370960421 -0.3335687534976449
Ni 3.9774857930491607 1.787920464578623 2.747205401541588 -0.7934172387618464 1.0431729142975776 -0.6013278075893322
Ni 7.778177324997879 8.608274307299062 13.188747024518726 0.473115891797069 -1.1954855797927864 0.051630065471465925
Ni 3.3064229177652695 0.8916191210692601 6.792294840666084 -0.9448091922149986 1.2198773783735892 1.9601296030766822
Ni 9.037580100826228 0.9378734659353433 4.733910612676064 -0.7770951045630552 0.8243221558708189 0.8511783568317147
Ni 6.203712756202312 8.714519743167434 3.02145781224251 0.7418545361932062 -1.0828067266391157 -0.4333900339623568
Ni 3.8298649511950202 3.2996584703636933 7.718047975742802 -0.5642643270781315 0.03396015899552861 -0.9342483859800168
Ni 5.275025576861702 2.644926771248216 12.111458204846134 1.0278941337616363 1.7691760852808238 1.044975000503323
Ni 9.209567799849829 3.2866492038931736 12.489265118978585 0.6830863170150623 1.3573452655464817 -1.200031547292256
Ni 5.561442857992618 2.4673901839583 0.9611583826836481 -0.9645737764364355 0.3966353429408266 0.5888692701110052
Ni 0.9322689032048197 6.402173662958007 5.382967228073019 0.07074364637246526 0.05244536228390968 0.22293752690162252
Ni 3.640506819337742 7.305194914297577 1.5739820567724092 1.9913240264016154 1.0183347722079752 -0.07098404451804549
Ni 1.2856347275488622 1.72962930055023 10.890647111793031 0.30887742139855195 -0.1709937868444797 0.1759058794341164
Ni 7.2796867306118 4.8590352593582145 2.44427136269489 -0.6362091928475494 -0.45525443813561595 -0.049189831461089475
Ni 5.732456253892536 1.9727504066801143 7.666033179646407 -0.1739209877936037 -1.8049169903258593 -0.010151229501388968
Ni 2.738190777878171 5.909491771004558 10.968112561295518 0.46168913801736616 -0.10306112755824832 -0.5096353268793417
Ni 1.0112616888421504 5.896436109147195 7.699293104565759 0.1652489139409025 0.7232142953841997 -0.1807727206081145
Ni 5.116130656004935 7.725323700307378 9.973504032606465 -0.6481347406405419 -0.5998396530795799 0.3117280034734696
Ni 2.2742925839215498 1.6608249418634204 4.69470187125582 1.198263913868872 2.344017159433537 1.1342357318433693
Ni 3.2535878512295047 7.066685509619797 5.803077455928082 -0.19924686815290202 -1.1306390156310462 1.3841053072491454
P 7.041056697928229 8.894385378876821 8.250838679621232 -0.646881584959731 0.4602133248027881 -0.08240385631921292
Ni 1.7193295246712874 2.2563004529041897 8.530279022478837 -0.12716393414372293 -1.1927905494591264 -0.35951915481481955
P 3.7267187271677007 8.023098572137236 11.6506601506383 -0.5582705713885417 0.9148288438028245 -1.0942424792798833
Ni 4.871970293209787 8.350334514611816 7.5570467043234055 1.2883245154023941 1.0067087579332725 -0.12915011133581628
P 6.240392949039663 8.026383365525655 5.1416351280597645 -0.4910675911794833 -2.2777791142409094 -1.0526281461732065
P 3.101169726375893 2.495561462848813 0.30815537568190604 0.5001592690681064 -0.7769806904723779 0.5006089550110152
P 0.9963130952016312 1.4976430872624453 6.577023957349766 -0.20335780499748207 -0.2772276557037548 -0.6316362287648863
Ni 2.9942840341691017 0.10567662842568656 0.6604596735750016 -0.9994379353034724 1.0616249503551782 0.6785074393951281
Ni 8.945076978540481 7.69624307183476 7.964975359409211 -1.932278128082053 -1.5392649552748456 1.7600815791787234
Ni 4.7663279973703645 4.9290830144123925 0.5242808620238558 0.4421364126964191 -0.9048190249753062 0.6236768647084936
Ni 5.203864332523314 6.525204949785843 3.3116535336778457 0.8992312464748835 -0.6079288578456176 1.0915291941137784
Ni 1.709966935606555 8.843378290582635 4.877772500288259 -0.016077622288152953 -2.816238821551111 -0.37050085063730387
Ni 3.7365916654876963 8.904453177821553 3.2756238041640207 -1.2521233828914888 -0.5428958887046843 -1.4198356707712192
Ni 5.2808342792943295 3.21218460801163 9.709655323451013 0.5809106773855609 1.3709296890991358 -0.18245602184780838
Ni 8.181455306506635 5.259056284710656 8.94862344191069 1.066065502625035 -1.5837198431541113 -0.6992248744481377
Ni 7.316756644698624 3.657107088749839 10.897464449935606 0.3460103216951073 1.0330908474712273 1.028195467052139
Ni 0.3186657866171116 5.3759169850884945 10.811538337688592 0.0350284523590429 -1.246643076503208 0.15095178059194003
Ni 0.49279973623602874 5.630831798553637 3.2254564723716763 -0.5676622970160868 0.42460688845308814 -1.228472576241768
Ni 2.3043011201310093 9.13320099310776 9.327380533565668 0.8361780267681406 1.4774594919322748 0.19387480520771128
Ni 4.72732803519091 5.300812132868531 8.949357416930532 -0.5014959856016589 1.0256886414698851 1.0630925360396402
Ni 2.320279691359423 4.312840928221106 12.915052286367645 1.0974615004378132 -1.56704572493254 -0.05147091418578232
Ni 6.322772597916466 1.6328021282108023 3.4887345182689717 0.6276219653991706 0.3485276888003223 -0.3102005110853497
Ni 8.658297813392197 6.763408144910467 1.2888694139194923 -0.35779008793885475 -0.8296924190437969 0.7288025881052544
Ni 5.2607636349464455 5.108429021789149 11.350128464922285 -0.6032584489531417 -0.14633279376268993 0.6000810796664245
Ni 8.344414463250766 7.923320653194652 5.843901684718167 0.9577816932152665 0.14278081474537344 -0.4867255121607037
Ni 8.554205123473299 2.8021607372560355 2.9891629113694727 0.43381837974902704 -0.603984785596205 -0.06009362285778683
Ni 3.780908538999254 4.520506679726271 4.71450342236002 1.47999742786278 -0.9323838219674523 0.7129363104969593
Ni 1.9270045552538202 3.3530595606189313 2.0494206392521304 0.528154982950084 -0.6850041028630655 0.2633210729249917
Ni 7.816546309916282 1.8937390628880464 0.40539825068743873 0.8244831069287155 -0.886147673818048 0.8333359293336552
Ni 5.547264427773677 1.1132016328115757 10.323089560830615 0.5692666653887293 -2.11333289870696 -0.04825446413101367
Ni 0.9980482826695253 3.771443880083469 6.702755455691812 -0.40525136674461176 -0.46919495947610806 -0.02578173694979431
Ni 6.213845508688623 6.787060513122561 1.2994716877206451 0.3592674438153296 0.19381284162152426 -1.0250998588459508
P 1.572710823172936 7.7426384586768435 2.4460770711507838 1.6216153326483038 -1.1389277380023999 0.8810715448467212
Ni 7.514039108628531 6.703808630973127 4.070498336682432 -0.3582536578388346 -2.1949551396651423 -0.38193737460901966
P 8.07446754444879 0.6461494804574295 2.2494673403300878 -0.10887927690192217 0.5810196921595995 0.33888888015897767
Ni 3.20011252835532 3.360807590221559 10.888107428317294 0.009559875774293212 0.298058476406177 0.04112325240287111
P 3.659686672258259 1.7098277494460286 9.439164650715245 -0.275648484142093 -0.5831678488508537 0.04561985472164401
P 5.196227651849107 3.634800186756166 3.0415442310219216 0.10380289082027928 0.19690356473170606 -0.38178465108123927
P 0.04688532212713559 8.475648454472283 11.428625747828143 0.04673442794206145 0.5969571893254622 -0.5509362425106576
Ni 2.2249742877084153 5.690793196508345 1.3376625143535743 -1.5654434134424264 -1.2347771783035573 0.33766040706851524
Ni 4.358568221492663 8.954003450968898 5.313012263792525 1.244015923293006 0.5962074556436312 -0.130885091749052
Ni 6.325741902674359 4.242403451917456 7.584452459331024 -0.5441271900086241 -0.32368337606313285 0.27777530067710865
Ni 7.6757641480826635 2.3302918158399444 9.1164429793804 -0.3521352036459226 0.29608309784736103 -0.34825360920332926
Ni 3.482716108687817 6.470170741913764 13.064835153248627 0.4073712413010919 -1.0161915006127273 -0.11326043668875332
Ni 7.275603936569697 6.2390938782080845 10.850786979141523 -0.3752512208380957 0.5239262895807171 0.5822219399978167
Ni 1.743844847078644 7.927134353993071 12.718767323254845 -0.7944634206381738 0.6291934236513487 -1.026694199916264
Ni 1.5715509385018838 4.033642769282818 4.4588843269226155 0.3366108827580784 -0.820123030187807 -0.7537888257369469
Ni 5.549918243901043 7.59795908434849 12.675064724665075 1.1032464825507065 -0.4022825139242749 -0.84401474920374
Ni 6.844275304176218 0.4217758222426941 6.10912276941641 -0.42011337145810873 1.7064856482301385 0.9927504959809678
Ni 0.5134642415354926 8.726508311127429 0.9749109032513784 -0.42162106635188673 1.5171560391909484 -0.4883512206895848
Ni 1.0479140444473962 1.5251462725824325 13.48132004557585 0.7816037910666862 0.12134552768973295 -0.11496919184974393
Ni 1.3786760363219757 0.7570493015337978 2.9036163133868294 -0.3021557864040022 0.2663158938872575 -2.492126842590992
Ni 1.4910363841761327 8.57001667130908 7.108008952772303 0.8854609321636687 -0.1886546944593525 0.1201317098872899
Ni 8.344943370660767 1.287796752575703 11.641248382463514 -0.1549274774102364 -0.4382039104112324 -0.45350351688278034
Ni 3.2045943227242653 7.097167278775045 8.385520775992854 -0.9125459613059187 -1.2469107283422978 -0.062102425757699496
Ni 1.1806976415894384 7.23702153287182 9.775277886508192 -0.8513159108508436 0.3680109943359146 0.4188815559335367
Ni 5.227980654603829 9.145440096156701 0.835793407897655 1.1833869967570394 0.5907227783799761 0.026053759664258356
Ni 7.238868069268136 8.676633270272188 10.42668396429483 1.137100454985674 -0.18910052374751948 0.2871647123118087
Ni 0.01792253793709674 4.128679079690141 1.099294151651793 -0.3520015062815357 0.13007313737071793 0.2714218476552551
Ni 7.714532133327909 2.606140227848234 6.532886170031419 1.706168374100036 0.010762894943458882 0.1421326396384133
Ni 8.058256996286167 5.213134130814362 6.410862591005793 1.0237713698425142 1.0652424925031072 0.13242029744665582
Ni 7.180614021549216 4.029513579853872 13.441038642811817 -1.0412489578019875 1.6625169559586723 -0.33359575008083836
Ni 0.6259665592733865 5.7016961124162355 13.084500301915513 -0.686494828475979 1.3445257451843102 -0.29432909127073187
Ni 2.155548230837922 4.476839341630502 9.036939844487806 -0.15505731811988135 1.0936809503494582 0.5022048387432254
P 0.2721748252781337 3.365113082120504 9.767550270875775 -0.83702880480421 0.43173758596059836 0.7194085484848644
Ni 8.943555209852061 8.229715787899769 3.33391311237694 0.4055223610178113 0.591708025111381 -0.0027863044958855235
P 8.749492585768996 4.128048102429089 4.7448701309559 -0.26222295476480645 0.12665254172494317 -0.2748252169098493
Ni 6.551149250107936 3.5864376355119783 4.74917469494711 0.4536071323401801 1.1445864789500741 -0.04319838976434496
P 6.402424198046954 0.8030410485103548 12.518110058886045 -1.4574002592885547 0.17339339742490786 0.12306353882210419
P 4.026590670482822 5.291662962583272 6.928971938671914 -0.13438847691662018 0.6259556334403413 -0.7018129468902882
P 7.737219477493688 6.2106813433059935 12.995993678252345 -0.9264677135933335 -0.1749849102817438 -0.09225889473642175
Ni 3.5795061647177713 1.1651087916104985 12.065283660045418 -1.2243922355248076 -1.3678402515405348 -0.20600398437107748
