# total energy = -340865.28041794314 ev
CRYSTAL
PRIMVEC
9.27559346601097 0.00000000000000 0.00000000000000

0.00000000000000 9.27559346601097 0.00000000000000

0.00000000000000 0.00000000000000 13.57576862886301

PRIMCOORD
 96 1
Ni 7.134832717924952 8.109836704046572 4.973767896514499 0.4479144528307769 -0.5484754396749908 -0.37129146485939923
Ni 6.192784914676281 0.2343886764676943 8.601077688752778 0.4924063645955649 -0.44604243261904464 0.5472245979870254
Ni 5.613115989131073 8.352449121503616 12.656390253489855 1.7141812171021833 -1.0693534293476874 -0.3197375040415074
Ni 6.960284603851445 0.4983859741987556 11.531461143177793 1.053942494109256 0.33273314497022694 -0.08580825401507157
Ni 0.3632053330634345 7.1434033661024365 5.311954171862424 0.24165310103325482 -1.318582285845671 -0.16886542764756723
Ni 7.948311522918075 7.439582334668764 0.12015139736694491 1.13575319692916 -0.3248398582650792 -0.1408756273028606
Ni 5.778212273666854 7.374996378759857 3.3133151916865655 -0.16497354879232878 0.20728490796603014 0.25134076063466393
Ni 6.610873005533399 4.012732953850988 7.242278407636572 -1.7562146400241496 0.6166001603673703 -0.16575644970494036
Ni 6.5811911070832325 3.4402526130866793 11.587366071349354 0.33892693248576466 -1.2028451054816511 -0.060422466952115304
Ni 1.4754871719577458 9.089515589174095 9.667073389692035 -0.004448265579340726 1.750764929763488 -0.6556963550378836
Ni 8.767847290313687 4.058146258479742 8.062485727984619 1.171974898265356 0.15856173172871404 0.4191327527123943
Ni 0.491963553421601 -0.036148842074995774 1.3585404920640924 -0.7736547114229385 -0.05842729089895744 0.39295403743449747
Ni 9.13091256191881 7.533154519532912 9.943639116298089 -1.0461715919145853 -0.5065911407363791 -0.8920540120001539
Ni 7.992528276015558 3.282947826894066 13.595995793031673 1.5521886053150493 -1.6113111225088186 0.5309934808401436
Ni 1.9461307742581886 8.312183771137313 3.911776469188035 0.4642962366229101 0.5280554812577422 0.2939364838180034
Ni 0.6551156736088971 2.6219968775617315 5.593066794287312 1.3338381835634772 0.31609836462702334 0.3423408432633201
Ni 5.381819795458155 4.083366596569117 9.553988139274884 -2.458477529967663 -1.2589895138837028 -0.38490879853251775
Ni 6.4824802435499 0.6450164076612283 6.032799482029886 -1.5366699408541598 0.8596372862323453 1.0437570689358218
Ni 5.085297629940998 5.50153060214498 12.106869788736077 0.6030447902804389 -0.29064829998503494 -0.30548073701217715
Ni 5.828319028488041 2.6341293535532366 4.756012213890817 -0.8015905186012582 -0.1379484263537366 0.14438569733864812
Ni 2.862800554331968 4.533409106226491 2.4745372060613073 -0.5269265098596216 -0.3233473328799528 -0.9976739014245141
Ni 7.286961723075318 2.2891329376296525 9.116861893239962 0.5675831070387193 0.3533024844811464 1.1288541558164815
Ni 7.444683910964887 7.102136251663441 11.412673258020902 -1.7352601492596698 -0.6650119760118547 0.22360781349576975
Ni 8.425355284571836 8.432349081894156 6.9939781963890155 -0.7713204068628071 2.5967578857395215 1.0201168038090624
P 4.2455781715992735 2.461714625930836 0.0947269962257247 -0.23622935891452224 -1.3432543346710544 -0.5525308406912871
P 1.7225147718092515 4.082142218258048 8.054191492486451 0.1592549011409967 -1.1273305200831034 0.029426018570600936
P 7.790830500453415 6.083778142618047 4.7416359718883445 0.4236887475141929 -1.130822592396762 -0.5317990074605745
P 0.7930984714697792 3.301063060541933 1.1373741737966203 0.2237137429460147 0.6949969524097191 -0.0009662205680112393
P 7.490254900679157 5.130172950160342 12.792446510629455 -1.5150564763494423 2.0680516582716577 -0.3268823426164048
P 8.287445763897754 0.814728227406011 13.567201568857033 -0.7963657798672091 0.4100827266949841 -0.9765173219515568
P 4.651441030532229 8.99598050668301 5.269353227111823 0.10494780305799989 -0.6926755033653942 -3.2640745986251525
P 2.9839305267884417 8.050305946467459 8.217710926167067 -0.7851449714507253 -0.24458801529186266 0.9012359356097381
Ni 6.036324207470844 0.618141303733256 3.3143744644375053 -0.6157835780033459 0.17089377093150568 2.2412519658491528
Ni 3.397547781691503 6.9057626666357965 6.367116907426698 0.3887489982142143 -1.27719935202351 -1.2155113880954098
Ni 3.5285469853826568 7.252771886298032 12.279716759004657 -0.9108665167209666 -1.1546693171073728 2.2346262330025195
Ni 7.867669515066281 3.6912501668558946 4.8622288874947355 0.18642760490104668 1.9694092286063953 -0.017603057793743875
Ni 4.891808754418979 4.991883130162367 3.3903035433510094 1.5915704495467815 0.2015030111769304 -0.5904502414448799
Ni 3.4056082722393763 1.083982931400058 3.826506867855994 2.027267277265444 -0.6818627290206063 0.18140778308895208
Ni 1.5889091264104425 5.308329270014197 6.241404791896979 -0.11930715710346548 -1.2010982979938734 0.15931866449939658
Ni 4.904562695159285 8.660686361315323 1.222493510517757 -1.9208066371073438 -0.02603447639054871 1.5587114940352316
Ni 3.1344826810836426 1.9882976212439556 6.1079828032448304 0.13460573513374882 0.6325685107711687 -0.03444712593427616
Ni 2.5330161113640934 7.079744969520097 10.26632216506176 0.40775459278243964 -0.9176141198574456 -1.8032501441463975
Ni 3.5445195569861525 2.2666025215873233 8.982542954719024 0.8439774682079013 0.31920040059111476 -0.527931039864736
Ni 3.2974826815413816 2.2926020095110156 11.63815365471624 0.9729946535102789 1.697879651728682 -0.2830928562352802
Ni 0.48962332124067065 2.228776652249893 12.334467803373968 -0.5175227000472183 -0.16936602143306959 0.6431280314545699
Ni 6.093693751819055 6.4244985100461545 1.2325083685667084 -0.45575528903143436 -0.5726162985872525 -0.7556209938496793
Ni 5.540246928435915 7.633516438667536 6.833716351063305 1.9494649242739848 -0.5899460481149517 -0.5693355709534518
Ni 8.549805919417423 4.861848588170843 1.927202071080922 -0.9759799613908481 -1.5925700944558896 -1.0755222771625608
Ni 1.174169524722234 1.4081278136624007 3.319981560566607 -0.9853390340082449 -0.4625530286795582 0.8229319603915118
Ni 7.965248756221203 6.272425158455382 6.918469301850448 1.0431083796082294 -2.9958393762279956 -0.7491523554062002
Ni 2.2869253464324215 8.898967076717296 6.293291533065849 -1.772872817406121 1.4320844062315854 -0.8778921186774751
Ni 3.6913800251616142 5.24841821311119 8.072966220815507 -1.8008682741777822 -2.9004018266532756 -0.9092202393667953
Ni 3.6949604041621655 0.1762362720478599 12.981516493519706 -1.580950250828774 2.391016153890895 0.9452565641650624
Ni 7.887593489400956 2.199994486346498 6.804460202344034 1.486434955958008 -0.8150016498008417 0.30448289187528205
Ni 1.5492095872333453 8.167391760260097 13.320313102904512 1.3758309830554951 -0.441442214842872 0.0677529391752575
Ni 1.375885851470908 1.658605934208738 7.802645751155234 -0.14111653966907312 0.4291870516246028 -0.6791756691067464
P 1.8480970290332501 0.7540881088723221 11.641805455784938 -0.14811662513599005 -1.5612098349770531 -0.1911548351733869
P 9.00215805179795 3.4956000781029726 10.638094436065375 -3.488366582672141 0.18444219903990172 -1.3611533264386622
P 5.507791627599312 1.527439769838802 10.474207688891436 -0.7150255889258201 1.2542748820168528 -0.8189084410544154
P 2.5696732559500486 3.117471243034391 4.082613418395944 0.14819452956177703 -0.8962919613409016 1.1883703089042437
P 2.5507695968745994 8.994505687353767 1.9333119043650233 1.0434341383787642 -0.04315005302491278 -0.42467245158370087
P 8.923862769042373 0.612022194855889 8.591072106297093 -1.1692171330145604 0.2524738457978426 0.3007460505406691
P 3.2501586046998985 4.458082013315931 10.660725028514973 0.8989067732559293 -0.11695099816646311 -0.2016603626904011
P 5.158676848265767 2.3913592510106767 7.516916665962019 0.34528835592741824 -0.15017762143007685 -0.8258416778391389
Ni 4.740301214017414 6.865886891186652 8.901861989375513 1.2479561388876765 1.1631974091830417 -0.6590673283926456
Ni 7.2000401385826605 5.11938543519236 10.027863358269087 2.510683522547257 1.17649001252689 -0.8768911882167866
Ni 4.098476537998905 4.099218585460159 5.412305887844455 -1.1560906229349315 0.5772967347820573 0.8632113767368488
Ni 1.469773406506089 2.4927507609977906 9.981597626619216 -0.40234910549615216 0.09751731492188367 0.6632721105026125
Ni 1.2585310454735648 6.276988750342095 2.8007357046726713 -2.955513422915439 0.24169423868383533 -1.6811407417074467
Ni 5.908246815658377 5.620323125098503 5.5558429109528245 -0.3437549500020273 0.17362659648163647 -0.13224829064516577
Ni 8.860974246701083 8.548470233987164 3.3834340389784496 -0.6063149763912784 0.14284843475851527 -0.4050068548339735
Ni 8.434000137495447 1.7917477999442635 2.065987207759285 -0.8666335150445205 1.3582281823720672 0.0674328368316774
Ni 5.052786675544801 2.455926655733053 2.078694770533262 -0.2497029679209248 -0.32305037046482427 1.9300181284032825
Ni 9.098290300403425 8.803882970150843 11.8999758258265 0.49782007941196843 0.9256076795858832 0.28027672694272376
Ni 2.836216704032538 3.9163688154138714 13.55866245769665 -1.4492735164163622 -0.8621554246685088 -0.8716605359454666
Ni 0.7623897648451029 5.424450422107206 9.598421013695456 0.07650137479184889 -0.3621157118974022 -0.5135002091513866
Ni 0.6227290121624598 3.8311446644888325 3.4606394395253104 0.28777714908482693 -0.36513727233254534 -0.0019157289654741201
Ni 5.877999106019006 4.051579138447643 0.5292291769257842 -0.7100900992974158 0.8601828743231701 -0.0146858841469489
Ni 8.261845126484484 1.3418629753724054 4.501344307866373 -1.099814316940706 0.07397552304620163 -0.24056783838887602
Ni 3.750447003077444 0.13132755969275894 10.556028624647299 0.5709821054179393 -0.37501313668536057 -0.8633070217744486
Ni 7.015576415308145 9.089552691547157 1.5576160574100284 2.2982785197458417 -0.8455013610515955 -0.5129307098011617
Ni 0.9908188726395998 7.253346973080505 7.810872274822563 0.6436142270623689 -0.6600554033375278 0.14433196128257722
Ni 3.516748430748716 7.119351752764537 2.50565218367102 0.7656148718375976 -1.2354955445268205 -0.6854399048489035
Ni 6.049968605164654 1.5332741180029126 0.04901872773112238 1.6625755771107495 -0.892224219029431 -0.26879880821011126
Ni 1.1903461593775742 4.479350948674127 11.679980087429158 1.6981601590835784 0.5083428333201633 1.3688805198795908
Ni 1.4547376698224268 5.71421995572695 0.3375629554804708 -0.44002245167721 0.7881845296079975 0.3325788787805498
Ni 2.6506399095661415 1.8528183060054797 1.5850254355101034 0.0413227700081869 0.7240686729646949 -0.9653947296758342
Ni 4.258749514036535 0.1965934165880409 7.195292889949286 0.38738734197999736 2.278274565820089 3.078868781946349
P 4.942982202465718 7.507693016018629 10.759380238488712 1.1671437954252997 0.03573601994902878 2.757316593293606
P 1.0383006345665995 6.714425728751415 11.795238609348457 -0.4292024782435705 -0.20553578648540732 -0.0216196351523047
P 8.27631505197894 6.825324721835847 2.236825084526521 -0.7460922284236376 2.0971349487908593 -0.23495949106316308
P 3.8598062476797743 5.628021867509015 0.5628782466156801 0.9871632317011771 2.075104451353381 0.3884921450084019
P 2.471342691740608 6.1141371593766065 4.386697047543281 1.7672621560875628 -0.0011299998393851506 1.4262464593935695
P 6.906606745622974 6.975867600537782 8.461300991154314 -0.18530043327513893 0.35626028155788964 2.4720691526091683
P 6.692628084577074 3.617332964121716 2.9541280456258217 0.05757419887004279 0.12885494869290065 -0.5865077118573641
P 0.3757941682436111 -0.010272719541737097 5.349870942013857 0.32541912780731697 1.384006319777436 -0.041707407041115266
