# total energy = -381162.9395900747 ev
CRYSTAL
PRIMVEC
9.31292634360261 0.00000000000000 0.00000000000000

0.00000000000000 9.31292634360261 0.00000000000000

0.00000000000000 0.00000000000000 13.63040906888844

PRIMCOORD
 96 1
Ni 4.665124115629836 3.9297754637820095 5.821111567221092 -1.110033680675869 0.5358528658149739 -0.5914380592794459
Ni 3.6402924661371534 8.354104559880723 7.725456897252959 -1.33205280952828 0.6350714796986805 -0.5593815450645335
Ni 1.8939791118913927 7.747656119408603 13.507667440491863 0.6466982653043314 -0.08867400559864083 -0.20106900896330535
Ni 2.1997876691447753 0.2607060557222399 5.347454278686254 0.3511381298399759 0.13073905308949096 1.3564764897882833
Ni 0.06974171034818669 0.7997885133168725 3.6787930342932333 -0.1053902899120572 -2.3125555984901465 -0.4142846805914736
Ni 4.046298796253134 3.432269633863535 10.013920386979859 -0.6702642255497295 -0.7535553695699022 1.584177242406504
Ni 2.454086431649294 2.135230464805754 0.11478460915172264 -0.7017399275605075 0.22871659547724482 0.8818940407480166
Ni 2.4362428650720336 4.0246276170123805 1.9933247520077388 0.8587019189022695 -0.5434340205963415 1.565680212043581
Ni 5.738867253464779 1.7510350078233545 0.004239244001027492 2.0407244312116144 0.6987340508546482 0.9793766457772228
Ni 6.114718328582237 3.583790942951227 12.047700490350657 -0.8685716126074977 -0.28107068359892884 -0.4761971018255541
Ni 0.9973771430888406 2.772458126331029 4.187970754603817 0.28380813713474995 0.5116335882562931 1.532935413512392
Ni 0.24132678761648835 7.369169486179784 4.4346394366820565 -0.3484883509219547 0.6854697296455743 0.410838373914086
Ni 9.53634328781226 4.590853529276158 5.458883440532242 0.4066413051136029 -0.08169140363322061 1.4740525231332549
Ni 7.228693307551711 4.205717466748715 5.465384794304468 -0.7028529581190283 1.3371903878651616 -0.008174051170360117
Ni 1.6813184423758771 2.9062569368819116 11.660310699685583 0.7503600025610562 1.778765271631156 -1.4328660215926163
Ni 7.306567996340358 9.30162960908226 4.558417538654061 -0.6275072941981774 -0.2629426065396504 0.13759901343411787
Ni 0.38184859958288486 4.606247796265829 9.187441027206605 0.7071886093799046 -0.8240838146077678 0.07534412125895411
Ni 1.6474007651971816 6.751415153314765 8.539669270650656 -0.039434294736222404 0.4208623338089913 -0.4602853156913041
Ni 0.4916470680532585 8.038964450586414 6.866658889727583 -0.6561182730666506 -0.20557461014314274 -0.36676400930269093
Ni 5.789874150199461 8.245776602455521 6.460527766400676 -0.08332353992000488 0.5982494257743245 -0.9613285300262605
Ni 7.579744060229065 3.3569559997767393 10.14891590854597 -0.005250963986294183 -2.3456526381544314 -1.4237812856825287
Ni 1.6195737417457974 1.7930269920075221 2.2579999768715386 -1.4812575255221263 1.7098774475205067 0.49506128571990865
Ni 4.149700215724593 1.9413260286339757 2.171228649694971 0.8508042613217477 0.6863480184854696 -2.2353142602084795
Ni 5.59450758461608 1.2755542483407984 10.967954240294574 -0.5165387388673942 -0.10145984450939945 -0.3180943120111296
P 1.1736056453547528 8.147087523635468 10.506754853122159 0.29826776420350565 -0.9694599008841434 0.3918939716010993
Ni 3.277125596488497 2.4919527895319336 4.128692116828464 -0.09686579738081383 0.5885113725509541 1.7735068514456942
P 0.2272763758758245 5.921307477498453 1.027976624666556 0.1724498025647159 1.6352802317299062 0.03543288688631317
Ni 4.143972766118636 7.581522829131077 2.2435239644040577 -2.2463234668347893 0.6291916238791357 -2.2437713898368967
P 3.201169370494692 4.3898805821272715 12.107987718032227 0.39313247199389073 0.5897383029795198 -0.30841076617477853
P 7.679019853398997 7.794537389841758 7.818947500674565 -0.8965351876999591 -0.5325268867655346 0.4630852470339444
P 6.44407927616646 2.064033144094297 2.2264459203594966 -0.23223720703599357 -0.12802653925433433 -1.9929379078559548
Ni 4.276337386036483 3.938846253889656 0.3547023510358835 0.05027920787052631 -1.1167974817622637 -1.1164287855689354
Ni 5.01861485496859 5.66210080289257 1.5575738669381514 1.3876698846719522 -0.4648950465491735 0.7802747878426175
Ni 4.031640250432358 2.067050532179387 12.230034547025781 -1.0839914909758364 1.7930906871148924 -0.9703518165707934
Ni 0.35899188483832917 4.784571706924165 3.304365905590003 -1.5293772638474885 0.6365033270492007 -2.5322566207323423
Ni 5.369144083779384 7.480878035811429 8.644773093029382 2.2261986710604567 -0.15103662699626247 -0.42657455370242015
Ni 8.900363558396252 9.31357809338217 9.031263255024639 0.26523320234604 -0.5520814118586943 1.4101012170922747
Ni 4.273226868689507 5.520087991443385 9.057106625197862 -0.12021964161540585 1.8875995542277555 -0.016426263876823322
Ni 2.411917501867544 6.016243447064521 10.479344117471403 -0.2691289378560204 -0.720277838463695 2.0830938973167608
Ni 6.555508438012448 4.267629800050189 2.7999582660731948 0.15595746133664753 0.11169129242942055 -0.5075216229704484
Ni 1.7322042710701087 0.43061201239874614 8.087929953900566 0.4870317305472128 0.2570416676741831 -0.5331652916804819
Ni 8.088639598876135 2.140343261283267 4.995762796687129 1.2662400247985288 0.4601685876077817 0.7902339559378584
Ni 8.689584099970823 5.741800825214171 7.312673550749571 2.182200668212951 0.8033530098183197 -1.55568119184934
Ni 5.930238573713271 2.4049421201523207 4.219074996780951 -1.3152349666399927 -0.3431520263107058 0.1247139299413336
Ni 7.537072232433133 6.160044340341906 3.8886197803695737 0.7977060959451875 -0.17235261486521927 0.1884765170102754
Ni 1.6900353412883589 6.58707925779163 2.90274503241621 0.4032888437016022 -0.8104083740032043 -2.1279655610184705
Ni 6.946027371876872 6.575968936848691 1.3820140327725772 2.5807782224818134 3.4422384208555106 2.0610132633676375
Ni 4.226177965584958 0.36908616553409745 3.8562880945207882 1.6507667574012794 -1.2548922038858776 0.9512714029005747
Ni 3.442793240456595 9.075306876848144 12.269180500966728 0.5237352566158335 -0.39582673099660215 0.3389788687696227
Ni 7.688248963251849 0.5810157703438121 11.571644192029646 0.8637744483291704 0.10455699537748445 0.17442389557195123
Ni 9.150778830680146 7.842182320222375 12.350186195539964 -0.21212449544651857 0.4149002026882854 0.09365911751805805
Ni 2.8340724459944684 4.558258287616236 7.698073169088149 -1.7930834880260411 -0.9674102174439663 -0.46588672103848144
Ni 4.2773524949910335 6.518731692493869 12.589685787038258 -0.9891329538330385 -0.5857793183317718 0.037933541820979834
Ni 0.6284427782516167 8.65686779027045 1.5815360260212878 -2.465751437921257 -0.3646197092661785 -0.16757421963996946
Ni 7.446103569423387 5.603196544749997 9.060814101113525 -1.4038616639404662 -1.30225680921277 2.5160738403248923
Ni 2.00137577669774 2.4234841561937217 6.556908170818588 0.0683995716203209 0.26827867404058314 -0.32233097580029646
P 7.3717584796602 3.709906589396557 7.725824757837406 1.3482469027896393 1.4319648499345854 0.9396806127391816
Ni 5.766806032030425 5.773958359343231 10.750057843675856 -0.9100743598369746 -1.2125438208266537 0.1599835517769051
P 5.618087913725487 5.919538021522628 4.967289456158258 -0.025270087420698414 0.07156768493565739 0.03859148711995289
Ni 8.630717093533004 3.07590120033252 12.596311002728793 -1.0749759177407874 0.750971668003126 -1.120984780370734
P 4.801223218949291 1.1812888094603058 5.8019194889317305 -2.031627868226985 -2.1627039929409206 -1.1988133586144385
P 5.797920518426367 8.859703322657047 12.346860549598032 -0.7381022682396257 -0.10609554350919793 -0.4160204323356577
P 0.2304669843880214 0.7174696961510505 6.038530210726337 1.0478392094249953 1.3507010207570869 -0.6748883545853023
Ni 6.632600841001257 0.8949610312081299 9.078070022048287 -0.19311890087829323 -0.003092008661762417 -0.7669988966693178
Ni 1.9146724338823486 2.608969707091051 9.041186177878538 0.43833606511372253 0.29904835112327205 0.5167878787637229
Ni 3.9356798589855493 6.261322412642375 6.373633508598419 -0.19611963537782998 0.1765867075512249 0.5530550886258733
Ni 0.6330536080075672 1.137778818307405 12.390791485014656 0.03190970422440311 -2.633276549490845 0.35630116209815405
Ni 4.662740006525567 9.18328094307818 0.7235510369521729 -0.9611981750959833 -0.3042880022556566 0.03135151772808794
Ni 5.139897092722062 3.767283527644207 8.041831900559869 1.0154283971944578 0.053972340451397365 0.8504743887861547
Ni 0.5011397337172464 3.9059809373702667 0.8883590978330675 -0.4587521668762293 -1.5873772374010404 -0.6902373262375467
Ni 6.805774703477326 4.875344798483953 0.21706940877317485 0.6504178802477637 -3.398677248435108 -0.9108351492623991
Ni 3.4697541617724443 7.23582700901214 4.253259954941258 0.8491965505149957 -1.014717487170362 2.7179663736307575
Ni 2.23871570061291 0.6043995967106397 10.468031706030171 0.4348982430767671 0.7376898632925553 -0.4368718218633702
Ni 4.178179144009176 7.673897743995295 10.426676725997302 -0.7996822458349517 0.7841021320085076 0.9611441819295965
Ni 8.422703574185576 2.8538996658498896 2.461802190996506 0.44181939567663264 -0.523772280501356 0.7740185225202605
Ni 4.26832826951433 1.5457967404801123 7.852178815193164 -1.1762591274630065 -0.4070848204089247 0.569827937208838
Ni 4.334235848150691 4.63929937130899 3.5554647466561358 2.1753566487079246 0.17237035547703217 -1.0532932905610313
Ni 6.20751232512494 2.3754667087655634 6.6011250130692 1.752308620101524 -1.065673409392939 0.42709314521005154
Ni -0.1459316907893247 2.322615852645548 7.89709040173744 -0.6882922866960339 0.3307472248884497 0.14477959034295712
Ni 0.6755214827199694 5.152199468217136 12.41512150468224 -0.06007279692218041 0.8759812748080076 -0.1938254400270146
Ni 8.585484211035222 1.3695216735832574 0.6004686105664532 0.054048445104971435 0.29649627412537966 0.6852609560688779
Ni 2.2203785489476573 8.757363576771082 3.282243049429105 -0.9664925907257033 0.6834804671296875 -0.7719032759494706
Ni 7.064301534471445 8.95781500005341 0.49782433199412296 0.7419105862421222 -0.763592184980614 0.44811345621546056
Ni 6.4015937068943005 5.9064440473015285 7.238115194976666 -2.536373985334825 0.07237064045292697 -3.2079669569983076
Ni 3.034970889733847 5.964240067227664 0.9514178523483514 -2.512942750895079 0.44239763677760585 -1.1455598986069369
Ni 8.989106432046935 6.626323928750176 10.256609655697732 2.3428434508404106 0.4431710246085206 0.9344054803831714
Ni 6.984443192404638 7.676095594575792 10.323535137166504 -0.17463086937643474 2.2900548462844688 0.15560881974797716
Ni 7.69491701840285 0.5598959163334207 7.013854344600695 -0.3326040755915304 -0.8832544114306531 -0.7714430484836005
P 7.814774378449475 5.059917682614804 11.2817123113425 0.4225893438024271 0.8014092558283875 2.0468192312554425
Ni 2.435013558815145 4.8274763578748106 4.418910835642216 -1.8196841213327049 0.5240214203976846 2.2419487348058613
P 1.5921657999728978 6.061457703709927 6.464344203552743 0.1951888960334445 -0.26394327989002286 -0.8084671911164334
Ni 5.85836140939005 7.722529844551898 3.443149925529617 0.9722163805833579 0.16071914439134902 1.1865587096168015
P 2.5418421351239906 0.30308359505061316 1.3614920686234906 2.3581129754049712 -2.1873726993321942 -2.5594825463278306
P 0.010752704577298641 1.9234545232781504 10.400397510878454 0.28205361633748843 0.13593628101971428 -0.4738293729243258
P 7.934045024146222 8.318780630847558 2.718748618416429 0.2625685110296833 -0.43326867789314416 0.3013345760542875
Ni 6.6132020157505105 6.786888089166948 12.603888930768415 1.0725012309480495 1.1178133246212878 0.18897505391324873
