# total energy = -340858.73210644507 ev
CRYSTAL
PRIMVEC
9.37895902870953 0.00000000000000 0.00000000000000

0.00000000000000 9.37895902870953 0.00000000000000

0.00000000000000 0.00000000000000 13.72705457822501

PRIMCOORD
 96 1
Ni 3.7352173314063473 5.336168123240066 4.649600184831411 0.617155518650208 0.2181352204169727 0.8797055177371301
Ni 0.3447752236912607 4.6829517631681075 4.698386716055819 -1.7006081064034388 -0.376545514169487 0.8578727381327547
Ni 2.25136284315352 3.639251822536528 5.965022637212596 -0.28401331116702055 0.27134394322946814 1.5723617378288146
Ni 4.606400699505533 7.722456671104417 6.147840120455673 -0.7126473185016308 -0.9751435815324818 1.866012314975283
Ni 4.204746778732469 6.444001385768813 13.597951516930408 0.7320696888923005 -1.4787334735486921 -0.2008815755428476
Ni 9.057026268360282 1.6984169341495086 11.481143909605743 -2.169656512999354 -0.1915397293166314 -2.485547646711577
Ni 3.201948478462625 2.868779716580043 1.4506201469040971 -0.05923513151223347 -0.7071934944759112 1.170701687979887
Ni 5.348388906865689 0.7673976831840529 6.2669632170845295 -0.16862991459799345 0.3804353361421964 -2.8398713733683865
Ni 6.29881509987116 0.7040878338903613 3.802201856850859 2.7430014622225145 -0.36837454832292044 1.4891407849249452
Ni 5.184585387278962 3.6982642327993216 12.919944692331015 -1.5158296070700408 0.288171042089136 -1.4364879346159196
Ni 2.3044383723456923 8.027254081899116 10.853227291536944 -0.19221721499963024 0.2847648446210644 0.07750359080411813
Ni 6.904245663647992 0.5772261581598155 12.166041455409852 -0.7004016683650583 0.4361038333490941 -0.2041527900949516
Ni 0.9226400889615174 9.270613302517082 0.9960642076810508 -1.2275456935521245 -0.8088667405476972 0.9813368548273875
Ni 1.7660767446447074 6.873501435923669 1.2145207973700263 -0.9756840274169841 -1.4400386280816555 0.942326535002461
Ni 3.260520077650664 6.02857915312897 9.162781534673252 -0.443781661609326 -0.21254024282769846 0.10761969346320821
Ni 8.760266625460561 1.9711101681594758 8.504747203343824 0.49915525328362415 -0.7365940591252153 0.4791844665886522
Ni 4.31450873634618 0.1505454230915766 11.958007702899046 -1.059107583249963 1.1468094547433216 -0.20740292160113313
Ni 2.605062146368787 8.24115062170415 13.383809248398597 -0.013074316685454902 -1.2574813047692923 -2.919897730594358
Ni 0.4692405753877722 6.330253370564243 10.308002141612453 -0.6120081701213137 1.389053652393356 -0.21875871293358454
Ni 2.1317904943867765 3.161618954602165 9.775667432988847 -0.5031708022009206 -0.7776386357713511 -0.4710826634171242
Ni 8.503817748503225 7.333576892540177 7.565872136288712 1.3499129776381527 -0.5812773166963603 -0.053136731923979455
Ni 8.525211154067344 8.821820733622468 3.003534724236394 -0.2686892792154405 0.34010861149869165 -1.4290271074625
Ni 6.258335512666103 8.0217204960671 2.714332646528943 2.3554282294839566 -1.110603951357042 -3.6332991536531942
Ni 2.8823229334299274 0.8115566360194485 0.5293221869808196 1.680693369757383 1.4257489509318606 0.09726688947397441
P 4.727267344619426 8.921922363427742 7.942844388459175 -0.8544963654613542 -1.2924058845606194 1.1446996074891704
P 6.717210462525832 2.021991020936916 10.514567149138015 -0.034136536672392824 0.19443684835876837 -0.7663962300883123
P 9.14695172761007 3.001885903237634 6.678912421192856 -0.049930309171539816 1.0218137318955112 -0.850933073590128
P 0.9231662485635109 1.278577211803088 9.945950875374455 2.5144807848061594 -0.4598176320262662 -1.3333532735072586
P 2.59673363074365 8.590451193130914 5.273179034345451 0.5367972320061143 -0.284798011851845 0.24156876884956457
P 0.495957478101471 7.508184972937891 12.6143397531632 0.30558795201400274 0.2666640212552956 -0.09245147036320207
P 3.0516319019715588 4.810449332321383 0.8871810585291363 0.20010407394687474 2.0448914181051103 -0.4821304365908536
P 6.429660957400757 5.662011918114504 12.958847676521899 0.1298237403640732 0.5913645257290331 1.1141803558543908
Ni 4.479465867894496 3.0013981973676933 4.769177223077674 -1.845304135893654 0.30033081738012146 -0.2298270549326042
Ni 5.654865151328069 8.379593436053973 13.419142600779878 0.5318144340795422 -0.6062928649040913 1.1187324940014476
Ni 0.440110466513772 8.210143783126782 4.789149716347639 2.3018904054668163 -0.4796668055417094 1.4512537800711847
Ni 3.4877159813706107 0.6524679191407806 9.652246897329091 -0.7477179369525188 0.1981636623910523 -0.47871138360697557
Ni 5.943868395103929 5.148814037510638 10.984773757306632 -0.06475683266141105 0.11896468616238222 -0.9312000860719963
Ni 4.325060065263161 1.1205980257785346 3.183138976113287 -2.8147049014050882 0.1417963393449171 -1.7915503392109662
Ni 1.7564070378772343 5.9785611645829615 3.527894503990569 -0.2198061803614924 0.9404061780512966 -0.6422448575186681
Ni 2.25863153640744 1.7559287109663313 7.547821391725494 -0.5247061051695351 0.05780611237519077 0.7101142676671318
Ni 5.983888413316158 4.786467334062967 3.0579617614258434 -0.07639673089318455 -0.7178262915994089 4.053263144017633
Ni 5.574937662412061 1.4299536106653707 8.346844924783376 0.4056871687304497 1.2342701567601517 2.9316073057218026
Ni 5.315937708596575 1.5128917454323578 0.3372420437924883 -0.3354536292251835 -0.6101904001862846 -0.08618852017262577
Ni 0.4709034648250884 8.661281091780726 9.400135788926516 -0.003184054154936452 0.03847321637453374 -1.0690122439581846
Ni 8.19480918510077 1.83571551549678 2.758767340760036 -0.0046768366503790425 0.4866951731434005 -1.0119435239696508
Ni 3.3997694824776974 4.474213650833599 11.218956985509376 -1.003780014322252 0.3928745903468137 1.5963604147362571
Ni 6.913765307070867 3.1430017209130927 7.435740017541854 0.07279847201896494 0.1867505354581042 -0.4784085076545761
Ni 1.8182800306464093 5.6668420820187215 12.923212321659616 0.130803073558207 -0.5594697339029655 -1.5993354382041813
Ni 7.90863838695418 3.0635806957850993 12.58335729987933 -2.803034664156011 2.209874479979136 0.005299557836042487
Ni 8.708494771574575 0.934575752232406 13.598006852788727 -1.8167836598564582 -0.7091488184300689 1.4663752090936553
Ni 5.17246777220275 4.896960850481587 6.527352194733442 -0.7493421028195031 -0.7042390398332775 0.40615150996137794
Ni 1.3491257416817803 0.6602336972236785 12.172013038628911 3.219544891643894 -2.448124725978429 0.2699064394519933
Ni 2.4943622928513443 1.3274791042236544 4.713321770426841 0.6747831964660056 -0.7331294976153826 0.46245661231101004
Ni 6.162332487960135 6.742458620254288 7.965329504855237 -0.6010113047901777 1.5285717372270577 0.056157006807541994
Ni 7.468952787284797 4.973042966192296 6.000452592871961 0.9867032613456233 0.7909883176053797 -0.2277498606886013
Ni 7.046214966595847 8.089455338234599 5.835837793328507 -0.9344394189449003 -0.00952028078560941 -0.5994056508659548
P 1.6982293549687624 1.3123133274603143 2.5474396978353244 0.2590347868448119 -0.33042917942739863 -0.0302629126495995
P 3.3296711426327965 2.336345590990642 12.420980319962181 0.39147925266118383 -0.860130680928996 0.2888904367536637
P 4.0494030801974015 2.741038294491797 6.865009726411284 1.230713292646829 -0.6432635285911696 0.6881999840925438
P 0.5982340885075 6.315537783834694 6.055717171103444 -0.2241243481208721 0.08090696005871229 0.8312237680866587
P 8.370383298279329 0.43043888395449154 5.074150958302275 -0.9986720036717253 1.0277208414085655 -0.5159851803567694
P 7.75375425741194 7.254718604954422 9.772715874579804 0.38607273693363187 -2.673363647319718 -0.5774083206592572
P 8.955217668010215 6.762070023601317 2.0973706526157296 2.3945897301747663 -2.198809480414226 3.040894873805737
P 3.783762823383495 6.573890589476605 11.368444462021545 -0.0025510485566278647 -0.020401703584803574 0.5467103773547681
Ni 1.0143719357218919 4.375087432768204 1.526942363966161 0.7400187685360481 0.5472058289339479 0.32148611130149796
Ni 8.63292849861092 5.5269080131819655 12.769894478276607 0.5900434929247644 -0.7771802080776938 -0.016593385582306906
Ni 8.222927304294645 6.798282184444394 4.29603312493857 -0.6182263831168837 -2.742206477125045 -1.3058144446570414
Ni 7.624277727901791 7.542624510522916 12.049334378629009 -0.43560401089454015 0.4455598365556714 -1.66376368388158
Ni 4.19317314328042 5.869558902651273 2.5277410701692493 -1.4977287837042723 2.2136378036763102 -2.4182677905179966
Ni 0.3885393223511853 0.17550189519397116 6.791418662220886 0.47875406391945285 1.0396466463118739 -0.15452304288296612
Ni 2.264446491010576 8.651254984569835 7.608164676275682 1.9316312385266734 -0.8861363609641384 0.1469593716030953
Ni 0.42478806113450857 2.3515582625491684 4.5693388049736745 -1.234112548136365 -0.6634274051335542 0.5741039388763726
Ni 7.618753521028812 0.2103447280176007 7.374159648294643 -1.3480761815397297 1.1207400113497794 0.48350032035518664
Ni 7.575854162392127 9.245909124412792 9.828763595890901 -1.0400557088248346 2.393835111396929 0.21602100228744733
Ni 7.960447756676314 7.566475203354811 0.6413153989495081 -0.9534493843885 2.947045494653744 -2.1260804281806163
Ni 8.466892786773311 3.614594539227424 10.17086862994424 -2.6123822225403397 -1.6913554774569193 -0.6612329685853967
Ni 0.9409253075006689 2.539915896895589 13.445911087768282 4.781891154218235 0.3366018838970138 -1.7533961967387477
Ni 4.648465330787896 8.153185364893162 3.985266006716618 -4.645734529657599 1.1302276391252406 0.1062842624812363
Ni 1.96235959937766 8.376751611465666 2.9128945883079633 1.4105023091854354 1.2758490086432026 1.1238513032852515
Ni 4.712411073504318 3.334857706980432 9.844604657704929 0.8920018186059798 -2.2245171695929753 -0.07193869512183093
Ni 6.924157193684214 5.591772893884043 1.3642483752335486 0.04724582036084121 3.130711220538937 -2.508041199828403
Ni 7.590269622432483 5.0772994748511024 8.861033223461583 -0.536452704182502 1.7415369834073169 -0.933883032220798
Ni 6.637855090111101 2.8732441010818053 4.843783090635909 2.4300766102274665 0.2896939064915656 -0.013893984373272845
Ni 8.262740985408051 4.319076289397352 2.5554558941245182 1.3250316410154406 -0.45675339127864567 1.468146184951149
Ni 0.9049157321727974 4.480938364463355 8.03017562763924 -0.4602868583532009 0.14231518796286458 -0.2577867733703238
Ni 6.527586668709375 3.431657943204572 0.8766756865114385 1.4115119813968724 -0.8304097568257957 1.4807116803209852
Ni 2.7440114245066263 6.162285593164948 6.760190480210238 -0.7866709211769484 0.013651272234847456 -0.030119445093199738
Ni 4.741936036553788 7.928850043679596 10.031169035083414 0.7996722185326227 0.6159486428263005 -0.48768067698512135
P 5.607407618599249 2.7758529904383145 2.735816090099819 0.18059377182808897 -1.2579973251737626 0.1100162187198428
P 8.809900076686038 3.1243657293059455 0.715918452820032 -3.356964442077354 1.083643106497482 3.640200765869034
P 2.2157415567297933 3.8182023609685203 3.9032601404779403 0.42053451815592735 0.0987910394279847 -1.9618177894123825
P 4.052882674000245 8.1849894149887 1.2690144251686404 0.04778035270807255 0.2686265442983051 1.48004525038158
P 5.181509088714723 5.0130911212816365 8.760111872636445 0.5957019767621224 0.4574691863987477 -0.9370850840978636
P 7.031611927374746 0.39354299699759354 1.3227202204081203 0.17396161122355203 -0.8399048408004244 -0.1427972698056057
P 5.9782141430985805 6.634694380915525 4.529653615599078 0.05509694097414382 -1.8719919295974856 0.60816179979203
P 0.6330103307219646 4.413831912551357 10.97984511433252 3.878880128985945 0.2783049479283336 2.6341941762091086
