# total energy = -340858.7444134737 ev
CRYSTAL
PRIMVEC
9.34808170943207 0.00000000000000 0.00000000000000

0.00000000000000 9.34808170943207 0.00000000000000

0.00000000000000 0.00000000000000 13.68186250033154

PRIMCOORD
 96 1
Ni 4.977208406261892 8.648779610906688 6.405834577562994 1.1337652199648538 0.5061077733420575 0.6826857391425339
Ni 4.474468580653006 9.031854644629753 8.616344572362337 -2.7443273801227894 -0.3172728445510988 0.5614327711666073
Ni 1.7852405253966401 1.046050325132657 7.9497095070270145 -0.7596601969160595 -0.019927077941230196 0.5464450395085234
Ni 7.563673001069792 1.2022193754603259 6.577391504925523 -0.18023458871645734 0.3768707587193897 -0.18983585925164725
Ni 5.916008191803423 1.1199001693556059 4.449204455463519 -0.25823028866564557 -2.5795402363096542 -0.13734293155925378
Ni 6.755503307068956 6.547134569381673 1.811273062889307 -0.9453198133028301 -0.6548620320620463 -0.6322589499505498
Ni 5.9319560189229605 6.194646458481073 11.247297622061557 -1.0973666267311617 1.9005630563669587 -4.067514511730323
Ni 1.4754637990852373 7.435006006654011 0.604730199713397 0.06871633152979133 -1.00821516727547 1.1230730303583303
Ni 7.350592830282716 5.975957438765673 8.857527880704787 1.0610521085708435 0.9671405087223474 1.3411665989040902
Ni 3.4121525936282056 1.301823184345835 6.192424419497303 0.3877210711703323 0.8891198690724946 -0.7940137346952647
Ni 4.31782277816643 6.351572703414066 3.028781225720093 -1.8494322991294148 -1.1448836984755186 0.07098995805531645
Ni 6.309525032614722 4.884858708657017 6.656075242116534 1.876891423781632 2.2908575446914226 -3.6033154628069104
Ni 4.5225457640503 1.9129914078207946 2.2920673322579654 -0.947237342040517 -1.0691644532653328 0.20387948182890694
Ni 1.3289045765880987 2.633700450865946 10.204001241752708 -0.3743595622617617 0.0951902094506038 0.4057049093422626
Ni 0.05809832681590226 3.2639294126156644 3.3398105949588217 0.33913133518708694 -0.4494473445355357 1.4009010386502454
Ni 7.95575023732282 1.8257364146591484 9.35926933120443 -1.372259977874785 0.1291871352213388 -0.8975641431851058
Ni 7.6942096117950145 4.928925565070559 11.929379457345489 0.9556523055770897 -0.7000242304209814 0.6168688406477247
Ni 8.132503763217443 0.24820839162517677 11.419716442542741 1.339576371598835 0.20492103571954387 -0.07482887218543242
Ni 5.066912596788907 4.132001613171014 2.913402529223669 -0.06281050756831764 -0.3870153033525593 2.7950858416225794
Ni 6.373045246728005 6.8038609329126665 4.039336885217998 0.5768794447389807 1.0401577816203376 1.275942082577641
Ni 7.521064445377614 0.4987070632294197 2.0647163801809207 -1.2825894126908297 -1.7296862547163179 1.0664779075721051
Ni 0.37608266872575447 0.8394567881311893 2.4933689202955582 2.823168973012041 0.482151519636776 0.39849733585022984
Ni 8.61427584191594 2.6844979259934783 1.2727693468971102 1.4915730485155214 0.6964473117030006 -0.4330059111500607
Ni 4.467317298269391 6.146176655658795 5.457202479850109 -0.3571822791515268 -0.7672200115411884 -0.8346932146924979
P 0.2963762514134792 0.670608934801041 9.704230366843218 1.9655852268746152 1.4597936992213956 -0.555219957487676
P 1.1154504825391345 0.8992938581148724 12.155691837562639 0.021836893369433362 0.8415462330585893 -0.9229566151162815
P 6.0648389981165325 5.857937909232162 13.175619883619776 0.28849962907314824 -0.00525687752356514 2.839664656674219
P 5.429393806863472 2.7356786724644464 0.5589274045565383 0.23363922958984282 -0.11518310763276292 -0.6013324355750225
P 2.147712387389659 5.4252806509827 0.4913800369127175 1.176563546077303 -1.5041475427464222 -0.8986851441634264
P 6.172500853295736 0.4196765122130076 12.05707238166405 -0.8681309255256532 0.11989259729329028 0.6770105431346276
P 7.803077369493808 8.098542182956434 0.9689996977879437 1.3874009472812814 0.35435149457095105 -1.0038712884844774
P 4.991697932660065 4.604360173751471 8.155156034422639 -2.865704532381406 -0.2056417159356523 2.8371457469071077
Ni 5.926861314479732 2.853716898161051 7.269994605990837 1.897037559712204 -3.187003210262447 0.9485393486813921
Ni 6.953261972200155 4.184042383144325 1.4752609457156627 0.2881221911290715 1.927909566700712 -1.482810471831543
Ni 6.342075052562103 3.882809803367071 10.22363501742631 -0.7913102197211727 -0.06722252059308421 -1.605162072188287
Ni 8.78665446564647 3.296255078605912 5.661554346896556 -1.00000460644022 0.411654184947162 -1.1172183713497663
Ni 3.0851940934330337 5.969675527965948 7.362388239578984 -0.3945985150164559 -0.23032867715937108 0.7263009047293234
Ni 5.559434969266692 1.414364738092681 10.154842485320403 1.2668465480342763 0.028459798002589694 1.5848333879332641
Ni 0.42927512234568155 7.972081335785794 7.404528456385647 -0.5593594335773463 -0.39909177490111913 0.27434262084647587
Ni 0.9562246095455283 5.03253970093982 12.42826132969984 0.8971021159470228 0.9482326160742508 -1.2033696105265532
Ni 0.2628016817285243 2.654238186025164 7.51870311997879 0.06485144925774639 1.622612920674883 2.931284118054429
Ni 6.8508256946058435 2.438306850366189 2.7221706946287294 -0.5476814830187858 0.2998795887753158 2.424050972858677
Ni 2.352631682986021 6.279835525620786 10.653081209664307 0.7515391104708218 1.8100656244063342 1.4858587717395637
Ni 5.215453612574053 6.745940219646161 8.240325470591102 -0.1583413881877918 0.21478918676287526 0.34092005165639344
Ni 1.7451279074775674 5.305475637873673 2.494737479434069 -0.656471028420379 2.752657240144724 1.7158413784134257
Ni 1.0091160549396352 5.183071858094522 6.562984241644965 -0.2786890707406297 -0.31556846026548235 -0.7649142462261471
Ni 7.955740889241274 8.492274029643319 5.325719843272308 0.08557222674486555 -1.254243771668601 0.3872991531415652
Ni 7.828915466890293 1.2067064546029862 13.630691971803135 -1.9068288347710125 -0.7277026701728564 -1.697471103436354
Ni 0.22047637290722735 9.2659586508165 0.16834960058368204 0.7697399497495646 0.10185013796928266 0.7567371097319935
Ni 5.101500498513579 7.969071253527592 12.80615472182129 1.1731203247237088 0.8234286975222721 -0.5059036277510514
Ni 6.81570495223298 2.815062580963343 12.443078973760322 -0.7541359246637206 -0.40117231157923167 -0.25010534556566605
Ni 3.079089796182706 4.447190878698251 9.542415075261033 2.2978414322084233 -1.920753929492537 0.20054398969777076
Ni 4.763305604298662 4.773653930571421 0.8502014730615509 -1.8412592764003193 1.3059378576087832 -1.4088781433184512
Ni 8.722694891700467 3.970064796528717 9.94388152462008 0.3556609574109939 0.6954795484730925 0.17979595851714197
Ni 7.887340976560347 7.307414041616159 12.605291558808261 -1.7657611460620042 1.3588753290377629 -0.5099875680124378
Ni 4.853112623722695 4.322496818940034 12.02710897588078 -0.6200282122123129 -0.7728396717208109 0.016527565341377986
P 6.089274883280937 0.7414085000151358 8.13924373001298 1.5919013505236392 1.9420712029130747 -0.8461495361585556
P 8.378377004072128 0.9519805805230954 4.148121444991021 -0.7035774949898786 0.26209054295200024 0.5942158791348993
P 3.873517810309145 2.4876740690169985 11.030235168535372 -0.6781564838136127 1.3490238901649798 0.4145268785092667
P 2.0486975076416236 2.3265879277954977 3.780968998567315 0.3158613089155528 -0.3407549868334389 -0.5771023593830642
P 5.1167098271908875 8.256524761104261 2.796641251466413 1.2735535277408065 1.8316379512604712 1.3401993498948144
P 7.6884979339696695 4.085934267306369 8.025561710317374 2.4493033196675627 -2.4077869455913308 0.44201454240657423
P 2.494591649361933 6.51891271119065 4.8085316228240575 -1.0624456464842607 -0.24157802482094523 -0.45928078568618963
P -0.14716497818139762 6.000299843114604 10.768418774601923 0.0968997359425428 0.886243575965964 -0.7032818181263307
Ni 9.098487769898258 8.098869365810586 9.856920061219016 -0.6895526414656963 -2.6272393421578304 -0.625705207992432
Ni 8.679170224016662 5.682848341852942 0.35318454297586666 0.337993879148534 -0.1558996115155186 1.2216874349991347
Ni 2.8729178576590177 0.9413144194777303 9.888908261465408 0.44122135708131754 -1.593104883913437 2.902908909345846
Ni 8.797685201872175 7.88786446912699 2.9914300310900654 0.2627880832396571 -0.8413847677800608 0.0007199088851600504
Ni 3.7893476840580784 7.882657587705196 1.251255672024364 0.8309000661986529 -1.2489681250919589 -1.2583673069186716
Ni 4.052926191363175 3.659428046714971 6.1982118167831795 0.10200800370338561 1.185821574340461 -0.9438069762027294
Ni 1.2686935833425272 8.353978511233914 5.310819936094212 0.5274111628055239 -2.023228074199064 -2.1286949829853277
Ni 7.431724830030941 4.609510966683984 4.1927379685995385 -0.02945584336727185 0.6346703876055197 -0.26882734745520154
Ni 6.2131463118629995 8.31496896693741 9.936848962872114 0.643178167966215 -0.23326102031481763 1.8856159481388237
Ni 0.723936000795248 7.662603748083902 12.136194543879625 -0.31433381652743286 -0.6916907708546217 -1.6385733006588812
Ni 0.4436019921249336 2.9882357916253843 12.949102780416743 -0.4381267773163938 -2.2920675058391233 -0.23994203187941904
Ni 4.144640219422841 1.1699030575516256 13.146559502513966 0.8326052218152177 0.014004798919524266 0.1573373724033097
Ni 7.372084069759749 8.428576201980638 7.871722201911271 0.17854794504265378 -1.3065317824390403 -0.7502772130392626
Ni 1.6146380371600806 3.37905103686954 1.5140900720383037 0.630901664591707 -2.2750079792536755 -1.0657824241669773
Ni 2.0433971454043562 7.809536893842929 2.9471827567026625 -0.05709931611615328 0.09262527693690499 0.5625573716893537
Ni 0.4479825031379556 0.9336489926090192 5.990480618257416 -0.3384654194683139 0.92020656317497 -1.0207804055349905
Ni 1.193254565256553 5.410893953481546 9.062072318231106 -2.5938913628250035 0.5007992166449504 -2.030196277986781
Ni 2.7216191578174445 8.593999853040044 12.555298018693788 0.6792234916255464 1.594714651602718 -0.6641997645232045
Ni 2.9474033714271766 3.3128011829444715 12.986194098379755 -0.6424780565753967 0.24317905075947796 -0.00699391481932989
Ni 3.4304561372976403 6.407885546654452 12.750428003293914 0.03868713215755273 -1.7899575408025494 0.3851617950835883
Ni 2.7947305035981636 4.280804375239483 4.247356004655415 0.5090971949876845 0.10668098369902274 0.5637038265889711
Ni 2.2979734501794917 8.106777842799525 8.951344292304418 -0.8924864715518823 -1.0646963901916502 -0.2905048324286352
Ni 3.7678751407441395 8.863785486492487 4.622225292396342 -0.740262509115738 -0.6158316576324621 -2.3795919712143534
Ni 4.132880332836452 2.3202686246695845 8.569032062035605 -0.8681877469055176 0.5199755324630851 -0.2690147808756593
P 5.993952495744049 3.050250964609567 5.031504868312544 0.011321852770722436 1.8203832042822583 -0.16788840844627861
P 3.862879693508422 7.928173396758555 10.486901298807734 0.4530162928337166 -0.14563525347503303 0.9833052914076679
P 6.187074512427834 6.9428388612750185 6.307119771232625 2.6332359260608973 1.9696578542820917 -0.20271502920716056
P 2.6617446955075725 0.19387079801571658 0.9845810801108312 -1.5632500053355334 1.4021048291503593 0.008043696240082922
P 8.841116388740508 5.130236501189699 2.424768023861367 -0.4512265479231455 0.2550295223401608 0.42208695024471177
P 2.673682195643358 8.77711007438677 6.864710400127912 0.2424995081939501 -0.9212270340196844 0.16141128536236718
P 8.759778731198244 6.23420753958886 5.499971822544898 -0.2963132115802961 0.4944655611174388 -0.3421559809460236
P 2.4814856390327464 3.371843665996642 7.571419756247964 -2.4586197119724815 0.06774959674114783 0.21074895525523063
