# total energy = -340895.77382681787 ev
CRYSTAL
PRIMVEC
9.03105817998235 0.00000000000000 0.00000000000000
0.00000000000000 9.03105817998235 0.00000000000000
0.00000000000000 0.00000000000000 13.21786651976110
PRIMCOORD
 96 1
Ni 6.337807105515681 2.011632125676596 11.426872612446687 0.5396300734692191 0.24201922612342192 0.2723099066871633
Ni 4.693937738415231 0.4015479479046021 6.014155648397943 -1.0365083577932084 -0.6651320465294868 0.3309305445438494
Ni 2.6271348772113607 1.5364449278964991 4.771610258954744 -0.12390583221774146 -0.5154642748562929 1.5861801317691455
Ni 3.3160511021625956 4.4227350558347664 4.856006402444011 0.3694901499846024 -0.7718906775439803 -0.34901748395254734
Ni 5.234356270736743 4.433870350793865 2.5753164705476843 -0.5685418714075627 -0.11929841535271712 0.11535871397867875
Ni 7.450532837231353 6.039466092560447 2.4423838070031243 -0.6692560960001894 0.5052317984950073 -0.2656098689591684
Ni 4.98482812822265 4.581058539961245 11.487383412782815 0.4496622887598192 0.3031924551986327 -0.47949788406401284
Ni 5.625653967401624 7.887428347560861 12.309693788360857 0.14158987976106582 0.2725636745691822 0.1162539720994385
Ni 1.9409911871769492 6.519764869372863 0.44505597466449703 -0.4783725122103181 0.5815843064138178 0.4148359251092533
Ni 2.869058868585503 1.6138501291085259 0.5931201764928925 0.32524634967487853 -0.1617370441329021 -0.7176257455528285
Ni 0.3592229897899965 -0.0955269229191849 4.700234192304512 0.9071193909737088 0.8982449713022144 0.12192608278355131
Ni 8.710202919538657 2.4474439090027857 1.2132676013427133 -0.2816702648561407 -0.41733040939633287 0.9087299299939383
Ni 6.850726065127985 0.7895086685050978 4.751572146663383 -0.033623344481400155 -0.3330887285374328 -0.3916129500255707
Ni 0.8059695785796703 7.5752969084884 2.561120549910048 0.9175403291967166 -0.7391656765071335 -0.12466405054000465
Ni 7.618528584862449 3.9501849270960783 3.6454345720220522 0.22251638020380388 -0.08083034118450595 0.4293528877785057
Ni 7.730965261456746 3.888764699183 12.443246885614816 0.17538651659553664 -0.01544641646205727 0.0017514354734679514
Ni 7.920771015029628 8.868562527898579 6.716302373848024 0.14394783847028111 0.2712207873880426 0.9843920967139433
Ni 7.09606379656258 0.6319645647151735 0.4568785331648662 -1.4215426261599968 -0.003952299779528677 -0.2107672100876757
Ni 1.8586369659831008 6.460358567474286 9.35852724647476 -0.1941483705840721 -0.6405407303433678 -2.2955148409577752
Ni 9.22594860041795 4.800540351308332 1.2345700618046116 -0.17354920627648174 0.6290550983012715 -0.001866106674461302
Ni 6.243396421409914 1.909048333754135 6.877229512099976 0.9086854499092478 -0.12681220723125902 1.4651917303085153
Ni 3.5753327877065564 4.317983809905669 0.4608413615736676 -0.862685843250682 0.5975272028963193 -0.026973957485682577
Ni 5.881503850768409 5.587326155717592 4.7212241781471205 1.4396874153898238 -0.5006979151803957 1.1113742538641633
Ni 5.359246776810844 2.741242299602442 9.245818735023796 -0.2701501800316831 -0.23346105214076565 -0.10940095373334707
P 0.2503201663323525 5.710735568220491 12.321615688503197 0.25976035215692683 -0.1654234918455538 0.6895009622921544
P 4.053653762737916 6.355128675452056 12.634549085558113 -0.9746213904804247 -0.9196802583578549 -0.6183557096058964
P 2.5131087343455283 8.60198374719894 1.5490279015108632 0.013219584014067557 -1.2783334656279532 0.2296563336826948
P 6.33286711659222 7.7633054814474445 5.778401676096028 -1.0737546437391767 -0.6096137017472082 0.7426667476818565
P 4.889279530763398 1.0016708070506046 12.736604560566457 -0.047078184434725376 -0.22061864896045874 0.09989275713259571
P 3.956398295248438 6.072826822145936 8.049773361975486 -0.059400196335188025 0.08232055257678726 -0.4703275304186545
P 4.787914931719671 0.9442242448163609 3.9053908776255786 -0.23552050577295566 0.04249904970447519 -1.3991912550479901
P 0.2988657174460065 5.66867792943337 3.5405505695350477 0.482609175999485 -0.7803403509732303 0.46503285767861846
Ni 1.5020095023660525 1.0816859841289568 2.6765121888000616 -0.7944906743316834 0.514066880288134 0.02233131650734864
Ni 1.9806736576151298 6.645197238948624 4.886380561029521 -1.5760641263810664 -0.593161983949088 -0.5917864437578001
Ni 5.949372254351233 5.452221522637214 9.027181327633462 -0.6030363056400065 0.5803908003263488 0.8902701806268538
Ni 8.473011202745674 2.263047759388136 10.159993036249807 0.3639864465575538 0.6278736763986605 0.6860351152307411
Ni 2.267256232584357 5.141959512645476 6.86085259086816 0.4849216261827455 0.9433536907153947 1.4937962814190855
Ni 0.45268541276785956 0.08122804821623288 9.264825500450332 0.13163971052688941 0.15948270088108663 -0.292320031260503
Ni 1.4688113318310612 0.9472857736007358 11.58513016984713 0.36814006371461117 0.6826921669004372 -1.2738047245196642
Ni 4.190853601358043 6.7296376346238596 1.6044379600847043 -0.5046157621775632 0.9102317113504452 0.7850400704417448
Ni 5.563881528212468 7.646271996147402 8.046085980846696 -0.4115752520801106 0.646641443924467 -0.9250299527055423
Ni 5.160482213343863 2.822910160360855 4.835650396898345 -0.23679037362431476 0.6046121347675587 -0.05029103494506823
Ni 0.8250025340754522 7.6131731672543825 7.273619822574617 -0.3072730530259095 -0.44626303327028305 -0.24491660227587497
Ni 5.020338249698053 4.30565641524292 6.930206603551366 -0.09451632331203076 0.6892194264959937 0.1344483836202781
Ni 7.959496193281543 7.145147598754549 9.064442571325062 1.1248468344293014 0.0326506961554857 -0.09978091414507977
Ni 4.606571279831035 0.4288659963407541 10.605249500409917 -0.45907715431581586 -0.9148591828201277 -1.1113552277007699
Ni 7.9912764876538604 7.078706102392761 4.706128764096729 0.6653379918927057 -0.4735275254131909 -0.2888901796433476
Ni 7.328568394066212 5.910638045040956 7.093182888945425 -1.441509813310543 1.1182290720024677 -0.8527870960797312
Ni 2.2980431105369643 5.135971920952142 2.5575117389889974 0.2083007508250542 0.270355868284586 0.40328498704686033
Ni 2.40460056813826 5.475160410874123 11.571105839318353 -1.1700190600905656 -1.6601116889512895 -0.6748382180736572
Ni 1.0045336525510375 3.320873687327363 3.7553281025818968 0.5130361250307746 0.43996845851082295 -0.5741779866474176
Ni 3.5538930551575714 2.5554553670002003 2.92434700787147 0.45100569016159103 1.0111367117976393 -1.316960433971532
Ni 1.1240326167836288 3.249383829341783 8.285262724267424 -0.641542689245321 0.8945495247284981 0.13989218034366876
Ni 3.4155733653006815 2.590297190156891 7.243787527490767 0.1616516835079474 0.18191429041172544 -0.7161746149285989
Ni 4.146926533490198 7.049039075676917 5.83841125269312 0.3592713004700716 -0.693904747786805 0.9963415557663355
Ni 0.6680066155280397 7.499643732598405 11.035028536750966 -0.1356809704757986 -0.03797416525092815 1.64124184862998
P 0.34410770741121116 5.614392237625473 7.92775924798936 -0.5610949282112144 -0.6626581310676974 1.3718185194619923
P 8.41153678848243 1.6146809864777367 8.044526317067753 0.07226008301699167 0.32572251798034874 -0.739756516013597
P 1.9727624504909043 3.3448330851590637 10.524237294488513 -0.5650739674636205 0.7208049146117587 -0.04978401340166265
P 4.129659149903989 6.021259478904696 3.7161766583753417 -1.4127221996548895 1.2882952048263554 -0.4837582020022636
P 6.83322387402439 4.011433564900298 10.341817140443245 0.7455561534145095 -0.3398594716023631 0.6493634708413203
P 6.227763659387044 7.611068930656272 10.15577643510106 -1.0626528773990602 0.3424796828340295 0.08630730513867717
P 2.2777322602831025 8.565010594269056 5.971250896336562 0.41296364778720496 -0.03715012668773602 -2.0703569093660668
P 6.986751866161184 3.9574639601350343 1.4013719035203844 0.6325695392124332 0.5605632240774604 0.0714499284108705
Ni 5.30508751982 2.8299995411742302 0.5917140407060868 0.28602648494230737 -0.4130754907747209 -0.42517561647236457
Ni 1.3215328320800714 1.183393763390402 6.993797897894426 -0.4812968849459646 0.2296851300381012 -0.04979069826988199
Ni 6.7899560734168976 0.5703194634489065 9.075373764365201 -0.7105433847847504 0.061450136885681274 0.11838618795109287
Ni 2.6665373848403506 1.6974506363561903 9.384474380251715 0.3328097638444332 -1.3822903655275935 -0.10382525941778248
Ni 6.397646898215585 2.0276170989755444 2.6272224784774623 -0.1974519810360083 -0.2204913793539751 -0.425220610777687
Ni 3.9078382944414063 6.715856239564992 10.288100405312091 2.53152025678695 1.56832947674097 0.2660145605967548
Ni 8.17412832628878 7.410145944241014 0.13385473460321728 0.2985094479006665 -0.6454345681005594 0.31856585233090945
Ni 7.508196144866259 3.735028992703904 8.137354759748675 0.8275157231074521 -0.5939932216011318 0.1226462487790275
Ni 3.188216471062813 8.472857674753536 12.680375384999273 0.215550490408932 -0.40971763004608147 -0.792602456170035
Ni 0.09096081981186944 4.86533819504842 10.201800514720327 0.04062934348558809 -0.5747102050018038 -0.18505489292323613
Ni 8.565489240362188 2.391767434207296 5.44921056777966 0.50216601508549 -0.33399144285736027 1.2714660490841587
Ni 3.7991133828334736 2.5834426168609013 11.630929376113206 -0.854986160613579 0.0753142964622832 -0.231434251518724
Ni 1.2037046136442633 3.3226076505326727 12.62278522893709 0.08209840926365215 0.23276813983879913 -0.908441709329558
Ni 3.08561461702363 8.36070999202679 7.977300021734394 0.48285317368949104 -0.3580114599210415 0.3673142253792061
Ni 5.818132914249358 7.907007682087482 3.501452408572823 -0.9403089903517998 -0.5903273427137705 0.2064279592823735
Ni 3.3489060924798695 8.278545423058523 3.7964221274418994 -0.369211442401919 0.3185679092134384 -0.9288783799173551
Ni 3.5725331596146503 4.294340499116602 9.242381514211605 -0.718902298272407 0.02495358462154412 0.35676833154255977
Ni 7.275565112545574 6.147016966581451 11.411473754835368 -0.23026080003591315 -0.6470070547940018 -0.6264428574894051
Ni 0.6627911793245693 0.18600638732041372 0.4329561626724455 -0.06679417480641399 -0.5938569531335837 0.6919586798040276
Ni 4.640482903976544 0.3093941252832461 1.6724038990978265 0.48199185413046025 -0.349894744351178 0.11806480005593215
Ni 5.912399101421348 5.666835593527729 0.2805055757981182 1.2059455987838457 -0.6436630780224334 0.35205935610266464
Ni 7.719784811205844 8.840837178730347 11.2598377694252 0.47189410357482603 0.5034592799756168 0.2771687774413614
Ni -0.01970035070865886 4.959550195870245 5.91306559352839 0.6221591425123866 -1.3341829684974054 -2.0075633710786134
Ni 7.8484773928499205 8.679705035453601 2.6047396586877833 0.05565512747045898 0.7137454366618159 -0.2445777308792175
P 8.430240110348034 1.68282032181139 3.3367710593602102 0.31620018031221026 -0.6800860967361578 0.9031205542269607
P 1.8248337145379234 3.1752207780813513 1.5089652235156852 0.33131132492203585 1.090065465084058 1.1920693550223858
P 4.544022169622833 0.9491461716230992 8.236343287337625 1.3429306327830484 0.394138801771218 0.023548990964533636
P 8.53441336854203 1.6221496717422736 12.397605722870056 -0.10000305745821488 0.18869634633056534 -1.1334883121543833
P 6.285219252679648 7.605578047172791 1.266428023278832 0.8125141074922975 0.5619891578907095 0.8700973052234047
P 1.6972971083640533 3.2976187120478198 5.934055579370997 -0.34500399191778 -1.2633025394367599 -0.11338693496428862
P 6.8520355685903285 3.7035015679656955 5.889537880286344 0.6555572583568581 2.009712299100816 -0.382170059445116
P 2.453819836205643 8.521128681693016 10.086554275869924 -0.39058913674674667 0.2487953685049909 1.4626105998449004
