# total energy = -381163.8062099286 ev
CRYSTAL
PRIMVEC
9.25856250797707 0.00000000000000 0.00000000000000
0.00000000000000 9.25856250797707 0.00000000000000
0.00000000000000 0.00000000000000 13.55084210027011
PRIMCOORD
 96 1
Ni 8.487648042621725 0.9802595342826639 12.456801075930553 0.25733194522109226 3.4328027293639076 -0.3265221310635086
Ni 6.245742750871553 2.228026706972795 1.6909958411611725 0.9928258293035934 -0.9285212536882523 -1.2389148546210147
Ni 4.974616225684206 1.9092266338310542 13.180890081251981 0.02740204616203668 1.5472338324129353 0.3090028912328227
Ni 4.253439038182982 3.921528840928655 9.453203128376416 0.7835737703088633 0.9649062200751898 0.2137697443594254
Ni 7.555227499362887 6.502436388598581 4.9528326804779255 2.3701367393387245 0.09237382304773123 -0.17409505147762275
Ni 2.960591926012494 1.4975539229962627 1.9532186922498087 0.4316643095205017 -0.19921112981896014 2.0896160147059946
Ni 7.104872515546183 1.8975238111768804 6.98818222652571 -1.4839080757710963 -0.7536921522580826 -1.654554763688802
Ni 3.0543441271170533 6.292841056917266 3.523868964023525 -0.8709475690388419 -0.6198716320297906 1.2341644844202229
Ni 1.0669474524084768 1.351722309368186 3.4358968833169095 -0.656394923766805 -0.19157881008468294 0.4461995270221993
Ni 0.16357472227875566 1.7081954722091617 6.689413978617016 0.41796650031843496 -0.10108909143354204 -2.6744748781060266
Ni 1.211436574513725 0.1664920952362953 0.42935193540610816 -0.5060995458119413 0.6021389906367178 -0.44792319458152535
Ni 4.707988150688247 3.214637614942771 2.970737458500187 0.5609851421062274 0.53489744388024 -0.44983583822320594
Ni 3.2349601590297263 2.3093631761317472 4.312405895146722 -1.0807475301172418 -0.5749955974527066 1.3500513029882297
Ni 2.064066828505421 5.95464429591121 10.805671677860051 -0.9785898882098694 -1.6730183697106282 -0.8738624286927917
Ni 3.680185899373003 8.49661958941911 7.822684215678109 1.003334185034085 -0.39906786364171914 0.9559148152098568
Ni 8.111259712431757 2.5663345707255676 10.605092334074806 1.8931001723310106 0.061070899169391596 1.3238404489208169
Ni 1.0263486570456988 1.3612586284613812 8.731810216375317 1.4685575614569548 -0.5738159753223085 0.6587513398141236
Ni 6.31589487686101 1.3093366114957123 11.273134632958703 -0.3136434753286276 -0.7331528946541502 0.32605599006036745
Ni 6.50820447286563 2.5126626854991083 9.198000119167839 -2.18742077896131 -0.3003349311451795 -0.6088619111828483
Ni 2.930575667274495 3.0854991890089 11.802295720877883 0.7135598030135711 0.6040297799015274 -0.2975594252825714
Ni 5.720532291454378 5.580681709024559 10.692819988738645 -2.287024286988261 0.013256350789273945 2.3603848021582836
Ni 3.1414486805430544 3.7763545852186526 1.1089415130987739 -0.412367923184735 -0.1350711048059416 -0.42295186934816836
Ni 0.6392453927911137 6.85279890037013 4.158861899184052 0.08553083198396884 0.5321306797683804 -0.9748317067190179
Ni 2.52267119126585 0.9256654962584547 6.651024276201458 -1.3947437607995978 2.3290250569000794 0.32049366548124164
P 3.808472537582045 7.148480343632542 5.9584680821107145 -0.4192227413230393 0.2003210750536873 -0.5093625328339293
Ni 0.4213840167540656 5.058878400506702 8.739317058628485 0.35138829817756906 -0.08722261786409495 0.6758448049613005
P 5.212190932413712 3.370783266891061 11.377381414346889 -1.2830164729259192 -0.3387991486586488 -0.5914609420975814
Ni 9.054957184482355 8.926790907582255 5.1313516480463175 -0.27573435898768 -0.15871316970491375 0.5707003125114622
P -0.05533009372120808 9.13420121857814 7.6286765993611665 -0.834765205581014 -0.868680113160904 -0.24091982241165602
P 6.240687575895937 8.477167350181437 12.14420979461784 -2.808262488213854 -0.00994142748342804 -0.6003962969139982
P 5.248188222349968 5.7993226560010696 8.666210525432582 -0.4573537438668059 -0.4705378466572477 -1.1056671761770571
Ni 5.509909259365933 1.1327665712759771 3.705450663976412 -0.1380687539816848 -0.37977379129879757 -0.05895076750259525
Ni 6.207245649134167 8.38490577759533 5.356851337920149 -0.034099255676554176 1.0382402528826506 -1.6607223259520947
Ni 7.29814500202235 6.470327694797414 8.1648695652913 0.26548748444869114 0.5409984145716553 3.6017620022768617
Ni 4.280881416622042 0.31409950109939605 5.514758894260123 0.4400941854554098 -0.423452977354303 -0.32482905963180186
Ni 6.872408535165652 4.149539452878287 5.330657013669209 -0.3534274400947849 -0.7663306669576996 -1.4348398574895351
Ni 7.004065290025105 3.7552820975913592 12.39248832513729 0.3075286206801413 -0.35622145790015425 -0.5622976902700638
Ni 0.004325600272175569 7.493148839634854 9.346001939781784 1.1565017423304211 0.2826868790461131 -0.34392772813446576
Ni 1.8875430810968177 5.125799288279143 13.028090473692314 -0.3858076561977033 -0.3338659730230895 -1.1702571442433007
Ni 5.688210650722005 6.238706243579486 3.8180171893812442 -0.11803908902431928 -0.15592969342250565 -0.7181641345548019
Ni 5.145575577194741 7.627416509042153 9.69553210680918 0.18467796919979163 1.19002224268537 0.4386587385604639
Ni 6.881648580267602 6.0626731999688825 12.822253192418694 -2.342782772805804 2.4327343595652877 -0.7548110963538742
Ni 3.0062458963508885 6.521953437771839 0.80879559113079 0.41184007570572295 -1.1082395648899237 1.8355138892761096
Ni 1.079168754547329 5.1268269886862745 1.773249833836761 4.450109060307368 -0.18307668615094275 -1.4125849027460768
Ni 8.627331970931472 5.577839330421053 2.700560576602848 -4.201061980802887 1.5750665383544875 1.5910505724875696
Ni 2.562001563603611 7.728371871558854 12.109452226163699 -0.2960198487095934 1.0876134039991396 0.35085453716128606
Ni 6.6461107572279055 8.796430351434498 7.476405655704626 0.19586895281960462 0.3742315213243297 1.5286871797589996
Ni 1.7430817346782488 8.105028700053388 6.590952872764109 1.2970996904918628 -0.39934579989345415 -0.5920772355253416
Ni 7.358547861987405 3.7115909424449627 3.097885293555382 -0.5791404728590155 -0.19733422451122143 0.2999721484891221
Ni 6.040461909187741 4.542065457028876 0.8952066782460336 0.10114025638645162 -0.2384047692992862 1.3932849168658843
Ni 0.10828444037512112 3.51079124487873 5.200853822967481 -1.3672458124896454 0.2203985625298527 -1.16906775192089
Ni 1.8187612223168685 1.0239321723046078 11.405512629815592 -1.3273806008635913 -0.6819704582430642 0.7281029909350686
Ni 4.4611641402945645 7.616241424434884 13.265650366722257 4.038917673929237 -0.7610257098050184 -1.417291821303443
Ni 8.473232461235217 0.922179647580214 1.571721487423311 -1.0670998574268202 -1.1496659503555102 0.42837946812164285
Ni 4.446498577727942 8.127036302465548 3.257283478413807 0.23701585937155953 1.368912658669107 0.15081885455850155
Ni 0.549055886431275 3.3125283933625322 12.594951786335605 -0.17731715795934624 -1.0129110300892428 -0.04884633207874168
P 4.289038209943503 5.1345393710208675 2.2266610690444004 1.5743826249135855 1.9625970907805683 -0.09881829312149433
Ni 4.494985668107615 4.65083504606466 4.900567170853655 -0.8219402859022038 -0.8481033174508169 0.6554564711129357
P 2.0825932115204537 7.974501489785556 9.931764322015857 0.5025370252716636 0.38736703026502317 0.21401862714543785
Ni 8.358268894069967 5.088135457142136 6.792793232724589 0.8109968995168227 -1.7664694849829385 -1.0896121795967235
P 8.11784255017473 2.833157075528281 0.39555077642995545 -1.2753725832274165 -1.0694133360513454 -0.2968819395995726
P 2.437612780091884 3.2927428458847086 8.49700104218284 -1.3148361885396775 0.8039477059795251 -1.2476146963878578
P -0.0726241621039066 8.057856325509864 1.9674333628360055 -0.4236393823334962 -0.03866784888384309 0.30815442718959835
Ni 7.869805668129388 8.385720531071254 -0.2849091061119921 0.8581277915663544 -2.261752142685034 3.195192945162091
Ni 2.130497012479864 8.092835173601214 2.243003357230225 -0.5661242631050056 0.9768039999540402 -0.2044510380616608
Ni 7.233473944870924 8.641349434142246 3.3432908922159794 1.087525472271024 -0.7958230199898617 -1.1859827825086737
Ni 4.619476295803833 1.553633034401587 7.728939421423332 -0.1327689390353262 0.2579073581085881 -0.8148689808777192
Ni 2.116840633195919 3.358497154816624 6.2980249259078285 0.652871998215211 0.06818128496192774 0.6855766875370838
Ni 5.789203047487611 -0.1592833786868178 1.460292839316103 -0.22555028193412124 1.9050750853046996 -0.7723406205972053
Ni 1.2715894532986665 5.802516859969179 6.082715209620377 2.459318023591087 -2.5575992132621885 -0.8306984917108081
Ni 3.785677957380641 5.11244844154867 7.192068728738226 0.11991805121458703 -0.49790981091229725 0.04001587827130528
Ni 7.486177142278372 4.708173321932775 9.972796418090832 2.739023451411373 -0.33716032750364516 -1.010836149838085
Ni 0.9676308554058498 3.0136620046942375 10.219638019752743 1.4003639351998527 1.780758905022417 0.015700698564708446
Ni 0.7734871382241789 7.089716249181561 13.691906238919856 -0.5953674762408392 0.12152987578639717 0.5156720199917249
Ni 4.0363072368493755 0.38838927854783256 11.501452629174251 1.6705750503764585 -0.869973892271663 -1.1399782907541012
Ni 4.289714084986031 4.794944567118626 12.817023030617 0.7405872394450085 1.1712791577499118 -0.4256726107134411
Ni 5.901750129911769 6.558191450325981 6.5449748527477905 -2.617945061340098 -1.1723839607783164 -0.9903465145251653
Ni 2.112748348691849 8.791865880256882 4.459568890022955 1.2670347527856824 0.4597770085963178 -0.23958130610589065
Ni 0.05904092546155048 3.008810518087602 2.014115959437753 1.6926569698771623 0.9764869829342538 1.4071097385641187
Ni 9.14581145561005 7.120167660344202 7.000609068745989 -2.549197876572371 1.1218934082279324 0.42437446072730783
Ni 6.337782117964227 4.207535086664476 7.510012384874025 -1.3599865598240708 0.011771024492999082 1.3859418462372517
Ni 2.215185081164774 6.391102177826083 8.300771370931558 0.003899077944090059 1.2453045601974424 0.5238910654674075
Ni 8.542764263555503 3.146596441140934 8.172079207697 0.3881512167292154 0.4226024564285496 1.192607229803727
Ni 3.288224667518224 1.8020495174982107 9.727201018904593 0.17877780166527274 -1.1802394522669932 -0.13700920236891886
Ni 0.37100077283042476 8.456141155365277 11.6732100687487 0.12054977126131496 -1.113476902029463 -1.217239169419794
Ni 8.109185794493044 0.521399635204786 9.342167043307608 -0.9831790502424487 -0.29031945589070646 0.7052276289987919
Ni 7.693013422416219 1.4457152330906313 4.521820684864622 0.3305842169480242 1.0423550463819726 -0.04981820907370775
Ni 5.97163375759666 6.939144251693567 1.5285080740877965 0.12864617511620424 -1.80684223237303 -0.010612485408523659
P 5.081950737574899 2.8318145840054525 6.06980136702699 0.3834178158092881 0.38799797898080274 -1.2360578447881938
Ni 3.557491432748708 0.24213917790712255 0.17274995744512123 -0.6051638935059707 -0.5513787293647149 0.8568985471449435
P 5.40999085581859 0.5103884271489247 9.392453998184095 0.1948932191698966 -0.20325444665039835 0.19084321747023908
Ni 8.604444805107802 5.162740951562492 0.16887710086581675 1.2006840932745901 -1.3443650512367298 1.324052564931623
P 8.81138292943014 5.560229545066434 11.596634352286564 0.3496443189032688 0.2582817107288713 -0.7005245670961677
P 1.387515910935461 4.432082996341432 3.7880564820166036 0.32533993782994935 0.4885214277188619 0.5713065786368935
P 2.342545863151176 2.069168296292169 13.593797884287774 -1.0908010576985019 -0.3170370743912088 -1.1661418365233465
Ni 7.522378120583609 7.429357345894936 10.778474651319991 -0.42453978266057857 -0.5884967172629348 0.33203457624130556
