# total energy = -340857.46803303674 ev
CRYSTAL
PRIMVEC
9.41481381338887 0.00000000000000 0.00000000000000

0.00000000000000 9.41481381338887 0.00000000000000

0.00000000000000 0.00000000000000 13.77953167985500

PRIMCOORD
 96 1
Ni 6.841961851445174 7.638229157623494 6.544354874501955 0.2547610991701226 0.5725137115711172 1.6168749897498411
Ni 2.3010652671648804 4.2825635038056085 1.5566877081725452 0.3283602127135119 -1.0447490005354458 -0.12258299964125985
Ni 4.678880097798897 5.833409319910858 5.625617785261905 1.3811035443083441 0.9157948072605194 0.8599013385270095
Ni 1.5269698478817788 2.9464695943160364 4.188564118183853 -0.7847603344177968 -1.1222718746132736 -1.2920245899618006
Ni 5.293686279553256 0.006529173486978158 10.343633381764004 1.1665143893714167 2.340775512567788 2.489096026184468
Ni 7.467161987820475 6.703356960204665 1.6807307066483683 -1.1641998823056274 -0.33341037354290964 0.15787678984654746
Ni 3.0691352055083057 6.650436290889159 11.153800719285043 0.3884687479696342 -0.9866508108411332 -0.6539102096717383
Ni 6.47604569175535 3.980460953192552 9.33221592233915 0.5617369326705874 -1.73340124167406 -0.72039173833374
Ni 8.185888886156327 1.9814605773848555 9.195935548667403 3.1859449442012617 0.01694074161939663 1.0707073722724205
Ni 3.046351355705152 9.187935781238586 4.297946368348325 1.3578342893677582 1.1881219403388636 -3.2812662799130914
Ni 4.804087708762593 8.143004408530969 8.758614615398216 0.08936563234902674 -2.451185881402256 -1.8025392341223019
Ni 1.9524441207347232 4.2738171416291095 12.868911502101252 0.17631622749865763 0.06202426422159641 -1.0383549240836438
Ni 0.6828479837842647 4.584458928511364 5.762544956653272 1.557998012907975 -1.2230071822518227 1.5402064932525086
Ni 5.139481041567365 2.437843684495549 0.5653125047232928 -0.6740098086350909 -0.6397809693592078 1.7797096378222963
Ni 4.1627976553155595 2.9882807831490146 8.092388485674888 1.0611531529250822 -0.8171696039864378 0.8569371136923629
Ni 8.219151423906137 3.4084827601797416 5.257028759886496 -1.2332558565630243 -0.6979148973874625 -0.6574063957504549
Ni 4.842980305265414 6.8944023652483 12.762560822034555 0.7470515070131134 -0.4889104356271644 0.10685993247904821
Ni 0.5950651998257418 7.875972039949626 3.923873213836413 0.8337246801316416 0.4550538920890357 0.3861516698006834
Ni 1.6911171294181366 8.978051333444492 5.812137489231004 -1.0037512179668455 0.5520209909344042 2.5701695937280316
Ni 7.30101876572285 4.453687162492437 1.9809728900213002 1.0991121486673587 -0.8382822175953369 -0.5180423199961142
Ni 1.8512442853900537 6.395756158234153 2.7546107493455456 1.5890091165775087 -0.7656344122216233 0.5616315174409747
Ni 4.343910431622696 4.667629395106845 9.62899910306015 0.01252050106451392 1.0837608630222693 1.218361198839379
Ni 3.112867016390805 4.539719732534262 4.796103946517521 -0.9817394895824447 -0.46660277326889965 -0.32112975640334374
Ni 5.2982618791418234 3.2424148565938613 5.886780958815444 -1.0080997247435284 0.917469109639149 -0.6452754168148758
P 0.40882417435010243 4.554388012696789 2.549047701162876 0.10650871978721657 -1.8465158968135684 -2.650301880404249
P 1.4339044118056732 4.993965676874166 10.220127027684372 -0.5423060776394855 1.1770409999343536 0.31851751559147723
P 6.5108522589959525 2.217923045011306 10.657530811316478 0.8316935086342258 -0.11151337209065958 0.3297835754235998
P 5.757064593442356 5.900508699062542 8.402827854056827 0.5572182188646274 1.182212516832964 0.08600288652438091
P 3.997784210894123 1.476327563546587 5.296011738603412 0.6495177370309976 0.11524121456420798 -0.2708153244195078
P 3.4569408076743 8.060003408586917 7.25026632806423 -1.8581668507889353 0.3228462248738182 -1.386674096417586
P 3.552821273126911 6.076716357292223 1.4127323781538832 0.08907766879496272 0.7398272213505324 -1.660377026797534
P 3.7546372253502187 8.564166696586456 11.654865592007631 -0.6098409872666658 0.23527522253136898 1.184681804309063
Ni 0.09548786771013493 2.9073510422779774 1.1275435408347787 -0.1260051379489314 -0.1934372034496604 0.6933331915540512
Ni 5.608856591954238 -0.10770641327812376 12.898951349029732 -1.4998368311862107 2.5817305590927537 -1.238259737535519
Ni 2.9083490125586113 6.1945615837327495 8.781337268910576 -1.2039205979340168 0.782153235812253 -1.3447638293370454
Ni 7.630188906494612 0.24987857753120013 10.876102307959073 0.6876230285431512 0.7715086116142132 2.744152545107822
Ni 4.723412167868698 0.8735309184901222 2.1362542412437615 0.08998629665216115 -2.4131132429002506 1.806527529346089
Ni 2.524770661864359 3.256913670104959 9.9623531871594 -0.3608684697538624 -1.4589136106092875 0.2597215284991914
Ni 7.951949588673365 6.186314206696567 11.248093847102606 0.40597076140913957 -0.4546741401521137 0.812431060860188
Ni 5.032020354933813 8.202364810600756 4.96960202128714 -0.09339532233371012 -0.12821268712321146 -0.24054984066674703
Ni 8.064437785965962 2.287404372096957 2.9011560946868715 -0.6765045500324864 -0.3705653853266522 -0.11026150196142945
Ni 2.2209169558532076 8.619506973091802 9.589107594795298 1.9111953392698247 -0.49325354308720853 0.4687113349714702
Ni 8.697348654981257 3.863585452590754 10.636323942853007 0.6673329108355476 0.7218176721469891 0.04723167929345414
Ni 5.727549151651907 4.41106629965819 11.627072119691974 1.0167687132724361 1.3300969713534898 -0.2617547568791363
Ni 8.326894554958736 8.86962092097221 1.6566165436315015 -0.41485366572106613 0.6044126171622429 -1.5801773772184915
Ni 2.634236703873148 2.531803527898638 6.57619859978675 -1.7087093953543346 -0.02354333453757881 -0.9975628297679464
Ni 4.241175981601202 4.583573935998349 13.454073259113796 0.8244257713282188 1.5015191039846398 0.8858625384774613
Ni 8.0716307038377 5.521967273841302 8.851144348559528 0.5613836630962267 1.15474387909905 -0.5948452851887821
Ni 8.385398208957414 9.369255683453023 3.8145192081138464 -3.5644555525169195 -2.34630955501214 0.25409106968629147
Ni 1.575747999051258 8.789792713335457 1.3863445375636851 -0.8807234174786831 0.5129528212883488 0.965997910477472
Ni 1.4700102233738943 6.688886391135473 6.471088792201068 0.18872334291375883 0.3355829557141963 0.19469858666058726
Ni 6.931656784120647 4.991885002987183 6.517525479136645 -0.4016777904607404 0.9531555072971651 0.3325104874364596
Ni 4.455570125286085 2.479739606654241 11.317859501570098 0.7197088533341024 -0.6351709813910222 -2.3600760126686127
Ni 6.499723948885487 1.5491323199630282 5.037976166250125 1.0359637981436483 -1.6861939878606378 -0.2458437420758347
Ni 6.344991481317375 1.5466750535173164 8.280230971006526 -2.74344009242183 -0.2766512143749945 -0.8344636151801951
Ni 0.481295646352068 7.057918854248786 9.689408315405998 -0.6577570942216543 -1.0936765794740841 -0.470040595305855
P 8.639946534216863 7.040369641011977 5.468200212750049 0.610155433183291 1.4982648587134002 1.7542811704468628
P 0.057900164423312146 9.170546619839236 9.69808971536612 -0.1363581990484813 1.1372171830691962 0.08436072293526761
P 2.3552004474822916 1.627896653621369 2.042154117112546 -0.7103778057411637 0.14035086514764217 1.2655597109020527
P 9.232110088377592 2.843885781318035 12.454781138598646 -0.2410715174981719 -0.2448700653086557 0.2958069613678389
P 8.104563723098623 3.551258414008182 7.700540162390929 0.8298009195972033 0.7310062806247927 -0.5919813333774255
P -0.1921252842057926 1.5069727830132258 4.524785013136435 2.1767183049421415 3.1036272198379518 2.2583464594375946
P 7.628014084467948 0.41001703127987915 6.75835077155598 -0.37919606441845666 -0.3111178806932965 0.5999173003950508
P 6.175101163260387 8.688018574338725 2.961070087817992 0.2978399326374677 -0.2900507756103521 0.4989534216854632
Ni 7.370255307645325 7.995521347718405 12.889594906908089 1.478421341624912 -1.5248282110242255 -0.19402778584580777
Ni 5.72603336660302 7.964405387553355 0.874508176180026 -0.5356862583301226 0.10854606193221951 1.9012194590040357
Ni 1.5619835410296832 1.1821240418528878 8.693575197542783 0.05027792231894567 1.2006529829263386 -1.1058898337108245
Ni 8.799744171699892 0.7572692637590538 13.313136318453354 0.4960349624870877 1.0645025290132892 -1.1026034496500687
Ni 0.9496440405350048 6.263638073817766 11.93077330571684 -1.2760966058776344 0.41923585394916185 0.5637675899473711
Ni 0.8260576605366418 1.5937773678004477 10.912107381017833 -1.0394982936594679 0.9156269142240876 -0.4101022670790098
Ni 3.248459167161475 0.7021398790865963 0.4472507375614959 1.6477883914992462 -1.5207157315177489 -2.0299011153438653
Ni 4.952342784320552 4.606254222847853 2.095880694503735 -1.1917235416471927 1.2351433033937245 -1.1678408214923244
Ni 9.1874273812843 4.731960818951865 13.436504274767653 -1.9350986282499836 0.98266560094114 0.05427444507284846
Ni 6.030988605848455 7.1332373659947494 10.524517378091712 -0.5914912811148846 -0.932315173513046 0.249627377487983
Ni 0.3072684590374334 8.56646391119471 7.562248784455563 -1.7396891315653007 0.2196621985844604 0.7062645549037384
Ni 4.128330021377813 7.652756215576496 2.759103498571192 -0.1745686486799316 -0.31445980058233586 -0.328124442553622
Ni 1.5763411323312573 1.9565019055550368 13.364010207212164 -0.5901553359122804 -0.18853642371393337 -0.17355383426217208
Ni 9.652067280245143 6.623961834010452 1.2447137251137828 0.17983246818203222 0.07053204458229144 -0.7358656655996231
Ni 9.249866427521702 5.595619363514885 4.095979779101525 -2.1093073224873353 0.8401095006120628 -0.5653444475161876
Ni 0.02946366031362386 1.9442438177683814 6.887864718428751 0.0437653180114085 -0.3182956293886583 -0.40096430933348365
Ni 6.814338787262343 3.1295783111844404 13.304620619219076 3.8266437973890484 0.9175889230464649 -1.1500343894385225
Ni 6.766709243396988 6.700975012270701 4.4200875744025625 0.15153902055397772 -1.023949033070959 -1.815443086668164
Ni 2.4129509163635086 7.207529663018173 13.584827136986185 0.6502271043931963 -0.44543925181740707 0.07481833066247115
Ni 1.5165194043770265 9.27831799533374 12.158259689705964 1.1449628884528862 -1.8454602018555444 0.41521079195016886
Ni 5.200969191593976 0.25693686356319373 6.693407384803025 -0.49618202958791313 -0.07534360703832187 0.7335051357872465
Ni 5.589462075179652 2.74400401992892 3.058890946429458 0.3019063893973575 -1.5993580639120004 0.9005615352505328
Ni 1.0534141200930054 4.313425263993517 8.068783664093703 -1.1454097461823178 -0.6462028137251515 1.5567232599606093
Ni 7.294974455155236 8.632857179298774 9.02458781740813 0.34727324756793093 -1.0487627496805292 -2.749594284948684
P 3.550712354798024 2.6385486886706038 13.069279455936243 -2.409491072766631 -0.17753133085268133 0.8383017579793628
P 6.146922625053429 4.556412197699962 3.871400689665794 0.7214872853907639 1.181133167725856 2.5934707303478173
P 0.09575713138962676 8.195087159403302 13.468100390445084 1.1207145574284827 -1.4950175554206964 0.11036306053630025
P 2.789242201046339 4.819367951833055 6.984637708245551 1.239794943233123 -0.5095407102830063 -0.7096226727426941
P 2.7904190527923696 6.795688040791248 4.713729973183755 0.7452962148849036 0.7359908783235777 -0.7658964076337583
P 6.657224371760264 5.478790936982929 13.529337164938743 0.23685285143113402 0.21246670927728567 -0.2068953858370953
P 3.7175051990594588 1.1226130027596086 9.586558063172697 -1.7836537100717087 1.531801299907949 -1.5032931651659271
P 7.030813604834207 1.0089479537209824 0.5487132462158794 -1.7540739395320628 0.27979387376903425 0.9525970636905335
