# total energy = -381165.3174138598 ev
CRYSTAL
PRIMVEC
9.36528527459863 0.00000000000000 0.00000000000000
0.00000000000000 9.36528527459863 0.00000000000000
0.00000000000000 0.00000000000000 13.70704165691492
PRIMCOORD
 96 1
Ni 3.3875360034590374 6.80634269386114 12.294983218698611 2.074331577743098 -0.9161290506714866 0.5653043383068717
Ni 3.478585305184246 0.6801425919184557 6.296712911198053 -1.159416859094687 -1.1897314509178283 -1.8107796197542234
Ni 5.8676882643186055 5.2707824532963965 7.933553090929336 -0.5370294026215783 1.0125389914618046 -0.32979128873308367
Ni 3.0981955203485327 5.560394529674752 5.647300629272493 -0.09462868052017896 0.9151360906305981 2.2607237014205195
Ni 4.536113298478897 5.362384306842403 10.665860033888288 -1.2621810242378069 -0.07372664026018916 0.040249334438350035
Ni 6.433407675963635 5.1855583589023 12.396195727812444 -0.54637022040653 0.35419954237411905 1.1895892689130094
Ni 7.461238350211727 1.7406318883611733 6.013868189831697 0.5450756699648226 -0.12986539223528604 0.4720509408676644
Ni 8.849847902299793 8.91968483327746 13.077079113782169 0.0033545182945297065 -0.06409400226643155 -0.2755677515028287
Ni 7.741335296930256 0.7869723990342198 1.0972461673963383 -0.6471569501083049 0.948127200844638 -0.16815168940999428
Ni 5.349713076104467 8.758161761187901 11.331309430016097 2.3031577022150143 -0.696697994261226 0.0783217158300393
Ni 0.40095033174041694 4.763905127923688 6.212716605680338 -0.37540085904208254 0.17815688025182222 -0.420825824144101
Ni 1.0455778895092802 0.855631177146527 5.9393842043882765 0.5518204448878239 0.1271485075247552 0.2730131034017749
Ni 7.832974611616655 3.084550299960379 10.633236999777035 0.08307157181019888 -2.6853699277519754 -0.4923058344619585
Ni 5.375729838107413 6.647647937871254 0.6945894807110197 0.42273949622704615 0.6510411156540594 -0.09257565464589218
Ni 1.8001857363009597 5.537074969780103 10.989044784286857 0.9835973687267898 0.22437065980372328 -1.4781652597500476
Ni 0.2175518267183617 1.645677262749993 8.647991356877592 -0.5378151317476674 0.06241250079895058 2.5627697017195348
Ni 7.004933564369579 3.3323276478048403 8.185022234159527 0.2983094160747185 -0.9118088260295779 0.18799134984374075
Ni 5.107152192059733 7.752180297074032 6.754528317526549 -0.10709158887388008 0.25233732021997834 0.688914236550749
Ni 7.2331936580692835 8.259675731263227 5.611155311435788 0.3575769434867842 -1.1584781493305016 0.33629617973113696
Ni 0.23539737747308148 2.4562707838590248 4.414942430292179 -0.12542021197973885 0.9923943981931297 0.49539758601340494
Ni 8.382716846884065 3.532829036473324 13.006337496264013 -0.1803888549061345 0.5424942823908915 -1.2909766083132606
Ni 4.297176779767185 4.739733327085098 13.440165597870353 0.2932867660491465 -1.0288996922080151 -1.4614137513233219
Ni 5.7213556846584135 3.366819992821703 11.360135777548516 -0.7600121809388394 -0.3801987946513581 -0.04352440564519601
Ni 6.6153564348524805 6.001461996662041 10.275839926386041 0.9443903595100251 -1.0909864342364306 -0.5070583101807848
P 2.7361335984500985 8.373033142092472 13.623593135276213 0.014189404126504596 1.0853510903275243 0.8086708224868073
Ni 5.222354564053335 3.0774795097111984 4.364733263823428 0.913478243312201 0.19273786338979063 0.8020466323020703
P 3.9734563350609964 3.83239641091112 6.78453281792433 0.5773414719770638 0.49655689642882866 0.7483997935108918
Ni 0.12345974386473066 1.4224463271480512 11.245681691834264 0.26837046242344104 0.06208777046968017 0.22282671235537108
P 6.723075944052578 8.233387375992432 12.96288631952216 1.0580061226556683 -0.4018806505001659 0.6524693634601537
P 2.3620091893451156 1.4890147736264285 10.204055952636446 -0.4948190878021156 -0.12065287249808251 0.36871521949179076
P 6.439232883294747 0.34441023254524816 8.228981009353705 0.5857898598547331 -0.008183821362373 -2.1067511317243848
Ni 0.6557432146519789 5.353749513981814 3.9570305615271715 -0.17956738744610365 1.135010919446497 1.1495965305701557
Ni 3.1277429948335183 5.206648980943565 3.4251432422995793 0.11168177934772378 0.2667414114604503 -0.06651006790709191
Ni 6.990070856918653 1.0592043793272374 12.108909988252496 0.9017180174524793 0.10487272684569035 0.5992770957078905
Ni 6.1686417009509436 7.8666521768299695 9.190228252667263 -1.1633825286106545 0.56547711643931 -0.5304008415614673
Ni 3.368028114599378 3.158798280219323 11.403723687452803 -1.3517330615660268 0.9104322573970255 -0.32775780324282267
Ni 1.038216775422054 3.5127873263630636 10.097004188263854 1.8122775444559887 -1.9135535550893559 0.6363598594928007
Ni 0.30818624631371805 8.671495412888676 1.6853354990270524 0.9648337149660414 0.8467156930746709 0.3656077842110607
Ni 3.829324597398893 0.809230872127236 8.536128645550027 3.3635858040486135 -2.8809303481922255 2.518435141468218
Ni 7.171204836003951 5.774700348578059 2.8517227567182575 1.5647749266204922 -0.011268888045599947 0.3740384314769171
Ni 6.0873603915832115 7.881027889455788 3.434531940610577 1.0038239801863098 0.3179068785906718 1.0618157262097454
Ni 7.761208431908748 4.002179664457336 4.843012754620115 -0.8046172212427238 1.0309288068229019 0.06150772959649407
Ni 4.625055411056999 3.321314072529295 9.117704421394906 -0.38054280825433817 0.3388989074613067 -0.46474026613886416
Ni 1.0167702725470562 6.635622911805098 7.542751918649895 0.15249444248871158 1.1302114411753246 0.5669501014404107
Ni 0.15846343344795846 5.034121698863561 1.7659462539817492 -0.38608739222165117 0.5849923036541023 -1.720883054602391
Ni 8.640421396932673 0.06726241410415788 7.24735115955231 -0.9718415137424422 -1.233915087413578 0.17215361148053576
Ni 2.1160206109544206 4.601529814890189 8.118200924983498 1.3595157908352393 0.7544711965159523 -0.08037294193211318
Ni 5.1798829961327595 1.4756130506508296 1.8821001389413332 1.6797844847898684 1.1499816818237163 0.8853976830259009
Ni 1.6070735575749973 9.082678255127442 8.669950140847464 -0.27399346503717326 -0.6410582934097346 0.26059056136770603
Ni 3.5522339071969027 3.1195015439470564 2.809957331294092 -0.008016699656889418 -2.373340590988003 -0.405617748945095
Ni 2.471021107888772 0.7866717733825658 1.3931976052576995 0.2691119685751559 -0.3443871842693875 -1.1933381944324803
Ni 8.464335306515334 0.27348037279661463 3.9340031985275887 0.7259846590404853 -1.6721894460514297 -0.02957822787774906
Ni 2.761878767185194 5.964937384778858 0.8104108980496157 1.5586294758443868 -0.02896013467777593 1.4190939075091882
Ni 0.9639687951631096 7.014767113722744 0.3023338796558202 -1.0414435903112969 1.1819793177762354 -0.2514574887181863
Ni 4.948888239184368 9.312155835889918 0.022952440718796745 -0.23989986578757394 -1.3327691188690145 1.3821299286903292
Ni 8.047926635191741 6.697106008475124 8.288031004955204 0.043793600146182644 -0.2059026829065228 -0.10368539140580853
P 7.5410774056743275 4.835633846491202 0.7719916889910553 -1.1680084574184402 0.5935281090392551 -0.11008692405677815
Ni 2.2663615326366644 3.452915058729937 5.43147014195519 -0.003557378333955164 -1.561395468625298 -0.3572074759625074
P 7.22110307500744 1.8906731209202734 3.871018846656313 -1.0632748272537753 1.8114702180633449 -0.26916030531458807
Ni 7.724824299302037 3.259269058753374 2.295586841314271 0.4387641537900766 -0.6288676648808138 0.10414896130578837
P 8.921848214135156 7.3998208105373875 3.303108894826803 0.2179956095153149 -0.6302298353356629 0.28991784957691363
P 0.9602601422642018 7.194205976205259 9.849770026955092 -0.7202325870480564 -0.0175295242433311 -1.3137758655959633
P 0.5977599250231694 2.7712253217132496 7.09136484401284 0.04937546510933432 1.5474896571774832 -3.2461558093632035
Ni 4.289600264122699 8.981823499904364 2.597758701537891 -1.5539364412440917 -1.369046870254126 0.054217623692984045
Ni 1.0810254936061652 4.920146179217831 12.97054805926104 -0.04208561631614042 -0.7045516859776898 -0.041308114720167564
Ni 9.162433023024159 4.380846236834971 8.455983345264713 -1.5306841555843704 0.21751224212099313 -0.6873443209604678
Ni 5.219338942251697 2.012356270201866 6.810659153762924 0.9481110028947219 0.7618026971803589 0.8732713320760122
Ni 3.881386217260078 2.568410707625498 0.4330283062589507 1.0606044795104637 -0.9145773899136508 -1.3923413220056924
Ni 5.604327082070653 4.3884040219092615 1.8914345185987613 -1.5856939361613465 -0.18587533194200248 -0.1436192514862688
Ni 0.4992155856338293 7.954695222038641 5.23990042568491 0.01139050122512877 -0.8894098895090876 0.19757822220122745
Ni 3.4509015224338127 7.215980264058696 8.806431377112803 0.24033283955993448 -0.7031887441918921 -0.05740861982645596
Ni 5.431865356986336 5.815027266211134 4.7026121465411554 0.39198601709427333 -0.4086102559145156 0.36613100370438234
Ni 2.101270286924673 3.6408107736561726 0.8791970440392592 -0.21426596726955358 1.2509175355088455 0.20110808973135688
Ni 6.280107324190342 2.8357615013253064 13.751726156404972 -0.42772100860203754 -0.23603884017027088 0.24063108752664367
Ni 2.0977770355830248 7.178200703972345 2.834520601049788 -0.6278798470462477 -0.0534393507660628 -0.30718769240095484
Ni 8.425684774914847 6.164080807108094 12.866772271615817 0.34480293165056747 0.1992782356114697 1.452280421563486
Ni 1.510339527795149 7.884521140797435 11.809520554231566 -2.4842523249389217 0.9800129938096411 0.2921976467500258
Ni 4.602503804540407 1.427447389390518 12.159817804989574 -0.07116119352585809 0.6639593663776242 -0.911954864689139
Ni 8.376835447842364 7.4917129879214395 11.074727777650766 0.049110127263089616 0.04150917498738012 -0.9395173476884401
Ni 2.1590915571212825 1.17445357774633 12.592302924712827 0.8954985189053288 -0.9304323546680364 -0.5600911695370483
Ni 0.34100314182650393 1.6121308115280533 2.302577090111606 0.11538596767218838 0.6210216864738337 -0.29953480384138736
Ni 6.298547570548801 1.6115127027115688 9.860996194202368 -0.9618720612345563 -0.6142591709390195 -0.030270625959083353
Ni 3.7233844923674635 7.708865853494616 4.803166276112581 -0.4563641262600269 0.9717918914514296 -0.2130302950902396
Ni 5.642312678429164 0.6149883034899144 4.690248097154442 -0.24290625671406557 -0.5378231021674673 0.06947557829331905
Ni 8.733137719405372 4.88563510363077 10.640200089247585 0.5941220338695122 4.4622798913419475 1.5577858968971687
Ni 0.5898359573015381 2.277281455061227 0.12382498998356248 -0.6074382913624441 -1.6721128271772234 -0.5310292191740854
Ni 2.5391910181189505 2.334306676024485 8.009668509036873 -1.469495757000508 1.4523930358819503 -0.9171592917082141
Ni 7.544261602607733 7.838930932939143 1.622420450265503 -0.7608264493100186 -0.2505159507405234 -1.4550705827141135
P 2.6327595815355895 8.024457230735521 6.966001137687635 0.855609910240507 -0.021360725063963214 -1.4621472870552368
Ni 1.7566277953089884 -0.04953767552720556 3.466962986377315 0.15580653758108007 1.4309286953605873 1.8166720739792586
P 4.578069775719067 6.578138791872026 2.7567194316245667 -0.06629383813122776 0.09054396892784407 -0.42259140068495604
Ni 8.367226665331556 9.336524307715571 9.69995262470984 -1.0708390127542784 -0.12188648779486752 -0.3015829446196677
P 3.5885337522377285 1.108259742671883 4.0839854297905696 -0.04256512705572024 0.37080835457539363 -0.4039971826225365
P 7.885364016456278 6.019003175651068 6.137683814530161 -0.6324165585743367 0.0793576132937214 0.22023426903784651
P 1.4972562245128904 3.7121836113899533 2.8846061457552414 -1.2164549829556017 -1.4527694453847626 1.2891009885571025
Ni 3.3490259511350238 8.568767600645947 10.677935632493973 -1.5097106386564967 1.436582551212255 -1.205654035685356
