# total energy = -340865.890025188 ev
CRYSTAL
PRIMVEC
9.30876955285152 0.00000000000000 0.00000000000000
0.00000000000000 9.30876955285152 0.00000000000000
0.00000000000000 0.00000000000000 13.62432518544404
PRIMCOORD
 96 1
Ni 6.791026614485727 3.534158120199357 1.653420846239319 -0.49170342499126934 -0.9831114302293068 0.8254567836958946
Ni 5.446021126741818 6.78137342051259 9.493307479053572 1.2581004264105302 -2.2187830953226753 1.45953838867748
Ni 8.467359135099278 1.850322731367534 5.185704180261058 0.19905377830548943 -0.08187292351640738 0.3904752368767017
Ni 7.0476973159527185 1.2296139810023556 8.135439133612385 0.6825949792009406 1.0166100762073846 -0.4868119012269229
Ni 5.6763014666718385 5.415367348773124 0.6484907729426356 -0.03601729863487345 -0.14716557407663042 -1.8972249931326615
Ni 6.963648436122978 5.935829960375815 7.2093115176543545 -0.1515948134925776 1.1040610080322018 0.08167957655867868
Ni 7.113379993555849 1.923899245508001 10.45529340600863 1.6438959984233752 -0.6452713030498178 1.440929515327041
Ni 4.281596458559009 8.667581458308705 11.646222933593279 -0.3477861826486075 -1.9882021929431821 -1.726989167500129
Ni 4.453836620646694 3.5300622616186623 0.9946234037045371 -0.3209379521075118 -1.808847178618201 1.1099390640795337
Ni 5.344099409469047 1.0465477199843356 12.465535212151561 1.9232581839716294 0.9117779727916425 -0.0013989372300556554
Ni 2.282184474854212 7.532861073605429 0.16714454166252232 -0.6978472773743207 -0.125144589720849 -1.0216386397702275
Ni 2.209324735965366 0.6501756602224211 11.757029871355307 -0.7355769307146106 0.2114822338768293 0.5096350697690255
Ni 0.11060586834079196 5.780243186926452 13.271563876631092 0.9732584486946272 1.155113860843959 0.2305780741660158
Ni 3.5764478600450222 3.4841141753588767 5.284317560852967 -0.1522548156740797 -1.085954014018846 0.41353134736521685
Ni 6.9006280665972985 3.728478683544784 6.650156074741407 0.4606792086956131 -1.8498493320621752 0.1265952061244465
Ni 5.5516849693542225 7.275752859971863 5.100647160694295 -1.1803335546426963 -0.9272274745774933 1.5967913316260887
Ni 7.776248160993671 0.2692198536320688 1.4904605964677557 -0.8163869601841424 -0.9829191117128426 -1.4567600546013943
Ni 3.2716694377938786 7.99088045939154 8.998104213493413 -0.254202141342859 0.8966609146445461 -0.9116131650790043
Ni 7.890513306625533 5.927489302902402 9.63149895493534 -1.8822038371334813 -0.42192599918681534 1.4711944848591696
Ni 0.1840101702454802 4.102235087802616 1.3523808258200085 -0.5873348357443497 -1.9376974993254115 0.1858560486682928
Ni 7.294854454989099 1.7293366541555328 3.141087880979651 -0.9826360332547852 -0.4710726361147952 0.6085670056502487
Ni 7.669997865902666 2.4314226675035 13.341388956662424 0.16860574622827737 -1.1412509868189376 -0.7750119967817813
Ni 2.1352920921193213 2.498120000982302 1.478021287782798 0.23363074494941058 -0.23361557544075895 0.42496375757187455
Ni 7.497003693485354 3.742106722095093 8.927788561309347 0.25642768823926804 -0.3575939127676487 -1.1011214657879036
P 0.10102528276976855 2.3064896720228303 10.91685850209789 -0.3042316950964244 -1.3600978885909543 -1.3503714053318099
P 4.829566484038861 2.900705664386519 7.135113177711181 -0.3276423607108809 0.26206611747196806 -1.3460714924048753
P 2.6061855061261134 0.38593227476589553 0.2889870256686683 0.016087392480165844 1.2525491575749979 0.7344731561274706
P 0.6366947002302367 5.004403792817487 5.041844594629781 3.209262021660647 -0.2941213461352999 1.654064197205629
P 6.909071120535229 9.287191773872697 5.1566570959083355 0.7460935139752183 -0.059582487549323195 -1.4136871346713202
P 2.1439120126777818 9.259097907516937 7.4744950888305395 -1.2382173143333577 -0.7820419070453694 -0.08985774149409687
P 7.638990354692913 4.538648819575565 0.09453241604241834 0.6415717427110434 1.1459635618032589 -1.657075730338443
P 9.040146340070336 2.6268695919586182 7.113273873583531 0.02469493164351876 0.1058515458191919 1.012535906138011
Ni 8.290231869023264 5.932543964741758 4.639368774705683 -2.152869266238686 4.016093219835554 0.35139215483231095
Ni 2.092946499656646 7.42043906433488 2.468454814334675 -0.3917127088282287 0.2898312034003783 1.0985745309963337
Ni 2.9197886418647525 7.839194060363337 5.519813604334722 0.6923960244517623 -1.1821045305001898 0.38908247029423315
Ni 1.4348537309731333 7.193044442950348 7.474631927742212 -0.5618647164977034 0.7466450156033141 0.6822162557052831
Ni 5.4661839214822345 8.885443899723622 9.140341280600564 -0.4083606017975548 2.9675176464651667 0.7842211740848751
Ni 1.028656265002304 8.920444873049552 10.063498468210641 -0.561844147672413 -0.4479378498695447 -0.7824504553376976
Ni 3.4747309357012868 6.592321620705057 10.748339055179986 -1.82390561561322 -0.7440106633042606 1.4058876932315594
Ni 0.5445825642582285 0.9284762185032785 0.6320570712645509 -0.37400834956993007 -0.4028016196525386 -0.27389010669008956
Ni 4.620910415661005 8.816074949397867 0.39894314189825014 -0.32345789031588806 -0.4836797833558444 1.2669311373282826
Ni 3.245995851508528 2.5371795978109204 12.81494452977802 0.03662973540789175 -0.9486553054339661 -0.5041961581416413
Ni 9.057674753041805 9.278795263782275 3.446817659473857 -0.49468590465836093 -0.5860631681207777 0.25891317366528316
Ni 5.494724608774071 2.701581775978278 9.180874455641282 -2.839252251727149 -0.8278131997432131 0.24415632707108276
Ni 2.725803194221382 5.479923665266563 3.9487111376748016 0.575924279914563 -0.11712763295364345 1.0296707660460847
Ni 0.6555449584709309 4.948997996744099 7.346590734124966 -2.2688797548687507 2.043020940555275 -3.073452238916468
Ni 1.5522186968490206 1.6104264325423836 6.035943914611379 -0.5634184341380685 -0.7978896727109033 0.4435227515209846
Ni 3.823930806013958 1.1053698344648029 7.832256234453811 0.3340130401239151 0.8657585686387347 0.6317917805061443
Ni 6.779558210459784 7.820483433665166 3.3374014518753667 1.5392685548192717 2.5701248565330252 -0.7050322251585343
Ni 0.955666203340436 1.5336849367713798 8.736325790200905 -0.2302410025415712 0.21107471402576553 -0.8373293667637645
Ni 0.5805302394424697 7.723523290536737 5.371539800205798 -0.5373189088375391 -0.4269589336250324 -0.8000931081201252
Ni 8.357394640977144 9.057535121499281 6.779273362113035 0.6209689788590272 -0.4080176166358392 0.3079309983248826
Ni 1.2501677440618386 4.649693130959882 11.373613756985687 3.0188546061762462 1.4181148314253706 -0.1660158740139141
Ni 3.7707684233904497 4.768594043803529 12.6366164324363 -0.36061855852658536 1.288518633691071 0.6196633726737263
Ni 4.76204067007442 4.881937621254735 8.231585690286376 -0.2478000944712571 -0.11260069161756736 -1.75623983683513
Ni 6.575314498825675 7.399987697739914 0.7158546143177502 1.0887871125922668 1.483850225949967 0.419298074645665
P 4.9065406990474045 7.090163922418915 7.421019931551778 -0.4797922753759801 -0.41528998192753636 -0.681268032859401
P 8.42193233993158 7.115427922846196 2.004601622701926 0.4546124336762428 0.6652238349123447 -0.3860447119091739
P 2.4385718024807117 5.112944045205879 8.873509126345649 0.26344628564894634 0.3231984660069143 0.6920846638589307
P 4.0679974335758144 1.327002327527858 10.67961799521154 -0.09502488751733311 1.0325257189963766 -0.8888774140443853
P 3.261346012416629 3.506753102786713 3.0197229368489364 0.35550257745625874 0.33499571575215853 0.12104959371586896
P 1.7273631950211985 9.091595909105555 4.05593419917872 1.872212530248724 -0.2210994452516192 0.42490513641979727
P 1.8525661448174138 4.630060936081056 13.583438373873289 0.7767793730948493 -0.5624635264239668 0.48603568518253065
P 4.707016533550596 7.2509729155586635 2.9282894101735932 -0.8555862560914232 0.27679622459329106 -0.10614002359388817
Ni 0.823342975752464 2.829149153227894 12.84103514893704 -0.08856859036902812 -0.7438972776548478 0.6251850738229039
Ni 7.797518699304775 3.961607506942287 3.754455735715885 1.832974667794024 -2.7811946854627845 0.8154788465475762
Ni 0.37466866366898693 3.8974793938459205 9.123992288724944 0.9562531723858821 -1.267449728835914 2.86437604337797
Ni 3.54527279098424 0.6653843278340981 5.120171373846904 0.5159175603436276 1.1751664086194602 -0.46148782063983745
Ni 0.697428835966328 5.64697884274187 2.919706724693139 -1.6355291145159185 0.9541844627823114 -0.325389303010646
Ni 5.961084652033595 1.9812226480987145 5.227844048917748 -1.0269289416348895 -0.4727909043574826 0.35483794728906637
Ni 7.403292310912974 6.245355855072765 12.307942398874609 -1.5683433606980408 0.9643380062765458 -0.9993818852545562
Ni 2.834511004460803 5.448590347124253 6.482767643317943 0.6540665327439446 1.1747056669329576 -0.0440360551742919
Ni 8.172662110218342 0.40482162983849623 11.982171770520457 0.33921798136362225 0.921678005514174 -0.6160939101549131
Ni 4.952488785307191 1.5835799412998346 2.925755563115264 -0.10507147312005775 0.6613784930243255 -0.7064005662609705
Ni 2.257851351377089 3.4179753680501697 7.4605170405469705 1.7610696541236057 -1.7443708533116862 0.5169174623630517
Ni 7.7699647415801065 8.722801078992063 9.709021456467525 1.0462165862199078 0.5090450015935104 -0.46305130847221543
Ni 0.7192392829085238 6.514565469058381 9.77614792422035 2.1223849816068996 -0.5083415477685826 -0.6145869865920834
Ni 8.882381314557604 8.140165195888336 13.31799601890496 0.4680379630535294 -1.2541483837413174 1.1537167233861163
Ni 2.4086720348416453 2.8557070726158944 10.30398215039134 -0.3137488905582403 -1.4059404008463658 -0.06197104238615779
Ni 6.727233617091417 5.61971345687175 2.7800295691989207 -0.8378641562213119 1.1677060956866727 -0.9276727896450281
Ni 5.631740387067788 9.097609374203573 6.831563513034245 -0.47460944562345997 -0.04552266702214741 -0.504803452708337
Ni 5.56765881781893 3.2511436010429002 12.096424814751966 0.7016576522593465 1.426335162452634 -0.08856704770713135
Ni 5.31938462644236 3.796023115048229 3.616658951660986 0.3190420206363796 0.7723758447105149 0.29987881744436745
Ni 1.2298839353179014 3.1777718798314676 4.20547492683681 0.28867446408811576 -0.3364866984753882 -1.3130251034728675
Ni 8.471073334130407 4.221843467128384 11.42708891426445 -3.1093656649836254 -0.9493685294509069 0.06881814721497825
Ni 3.6644064230654267 5.672671046566223 1.7441180492470876 -0.6664116845728588 0.28505949304334777 -0.028217857195112692
Ni 4.12521843970201 4.3608792484039425 10.412662965199207 -0.2502202738769755 0.24218531938764096 -0.3197747850373461
Ni 3.477356008700731 -0.01609393159127709 2.4825836646841695 -0.5436116838247863 -0.34911235765919874 0.3352551400611323
P 0.9765271557934707 7.512595882400496 11.666359663779092 -0.005578008308409748 -0.20010407394687474 1.5551816265051024
P 6.381273198565295 5.0679640709742575 5.129217636048536 -0.9276234244643315 0.5598890808285711 -0.6467250047772088
P 6.280757105487263 4.520142985806429 10.438195058188132 -0.21236875024684068 0.7363189510869577 0.4363061791678873
P 8.40038253853543 7.292657585386727 8.22394225964863 1.4251578543150811 1.1979947193678853 -2.0288796160578864
P 5.939330057708409 1.4652654809347865 0.8577695980001475 0.1683604629866907 0.1321475034012434 1.2004568077551325
P 0.026695689176623537 2.074608223738539 2.5904750958383014 0.47646423944401173 0.22723409739444736 -0.5298763365165648
P 6.480737400689648 8.320764632988437 11.35426734133056 -0.01655507614520375 -0.37435493427607136 0.6569050306340041
P 4.211361792669607 6.872152540691974 12.982441873804651 0.7178422324390088 -0.6822226834631864 0.05915696997613039
