# total energy = -381165.18548953335 ev
CRYSTAL
PRIMVEC
9.27622199797103 0.00000000000000 0.00000000000000

0.00000000000000 9.27622199797103 0.00000000000000

0.00000000000000 0.00000000000000 13.57668854892758

PRIMCOORD
 96 1
Ni 7.826339164600717 6.678035652108795 8.81842553408859 -2.3266856101336253 1.7100322279308164 0.798292821686593
Ni 4.375816512858387 7.075289856183975 12.277752248062974 -0.3576322222047518 1.5180196727428243 -0.5622413831108317
Ni 3.0877203359084855 4.228834776406053 9.73570752232526 -1.4662052591746941 -1.507380190751107 -0.27428837056977273
Ni 1.5634701011104584 6.215912828089709 11.334267715745716 -0.664238845291256 -1.223115682805229 2.2560072697814566
Ni 4.833662998568573 3.68654684248346 6.741232696861238 2.4763227856791996 -1.207043716944031 -0.13357163744227962
Ni 5.891681043033322 6.54574745119073 10.45839478219653 1.219015030373294 -1.743496678236849 0.045490271122315205
Ni 2.9146631396159792 6.0686435287576 0.20947378833823493 -0.6725067417270031 0.9213594458324906 0.25965827936142377
Ni 1.9409752287005004 6.7225800698080125 7.241751658685531 0.6399565757051237 3.2644813471452676 1.044827419181865
Ni 3.768539368106823 7.0618115057223 2.182099486257755 -0.3337890970385671 0.21730372565461287 -0.07243157559784946
Ni 5.227679801190812 5.6255740645790375 0.3289227704854782 0.24286769016664622 0.449664088532032 0.05538876118294977
Ni 5.678105309358437 7.411348824198818 7.864364253528796 -0.763046339779473 -1.5707270304388692 1.4612360880948772
Ni 5.913072010799752 8.478884272361901 0.45913402531381947 -1.3433250400079897 -1.376125117257146 0.42131947595106795
Ni 2.0810276273724693 3.9924673654535794 0.28331715299767396 -1.6275579233849844 0.1898001209177054 -1.4801264972414767
Ni 7.537700243082836 4.089450265712914 2.876411710872852 -1.0855714338684466 -0.12627741777371154 -1.1505833199634572
Ni 0.9407758755142243 6.8824464785186175 9.289740166416328 -1.198338732970865 0.7223925708138527 0.029402878642149365
Ni 0.8270939205397433 2.8246188533589387 6.453094691327479 -0.6650952797542804 1.5173373019638192 1.0807210477546807
Ni 6.437679465727195 8.046742197614758 5.887856456732324 0.8763995932923487 -0.28497284686681246 -1.5467162693465684
Ni 6.528586440623559 5.4915233814946145 4.565949378476325 0.9807539857407238 1.029235478280879 1.8271614035463564
Ni 8.977935735877152 1.3295330603031734 3.023175456109875 -0.025410469653304624 0.4701673506917064 -0.19660146011025495
Ni 6.849515890673507 2.0160569689873538 10.20157794000334 -0.6074840569987151 -0.7581211345637138 0.6310965542113325
Ni 4.765612634503295 3.9320884369229234 4.065688295621636 -1.8057597979421287 -0.7955754227554298 2.251109318259207
Ni 6.928215357512358 0.684099104272149 2.060506769222904 0.42975809363672435 0.12432440781239877 -0.9648018332868415
Ni 6.618714212877953 1.2748590082583604 7.893826461994953 -0.30219409584110535 0.034059917798186505 -1.1722093828736648
Ni 3.203710214898703 6.435935536004694 9.77001562912671 1.3921675154319895 2.3840651764943583 -0.12305505418167195
P 9.051486899545852 3.1316525229604424 4.262564046959183 -0.012374719515269009 -0.11244616831757409 0.7458916823770573
Ni 5.07805434148894 2.187351683113502 2.561419042856953 0.23691995722364356 0.5622678654733929 -1.0977936869662515
P 7.4579989442757375 5.6929101595558445 6.653622491238156 0.1616884502831538 -0.08423011089467429 0.5936646346171196
Ni 1.3344401817031915 8.862956965077109 1.1048314260476046 0.5393315683921938 0.42480126385208133 -1.0949009387994886
P 0.16442010605515858 7.295961899633934 13.035847774656379 0.07907762015945737 0.24079332413612076 -0.7120289681913414
P 4.28498374773745 6.207703371683252 4.222987973724709 -0.12396985268645748 -0.758935402934893 -1.2898432660397656
P 1.589350760290137 0.39315875209388 3.2684517506021913 1.4660864742086428 -0.41914123735282655 -1.4892410579482354
Ni 2.8243034618133795 2.275837564086605 8.09936342174686 -0.8750456503676155 0.3684606802788235 -0.8221097216005325
Ni 6.737459129780847 2.6327123741083294 4.109527720454311 -0.29212359897898077 -2.997222372618451 0.7250233235684803
Ni 8.322784009754145 3.6665380317843317 10.815570141808728 0.5064312181197471 -0.5938965481222674 0.7941893410411807
Ni 8.868105268247259 1.1894435567434916 11.734548751036067 0.9485624886098438 0.7015635498836433 -1.2091239965118272
Ni 1.933841814037714 8.492204927050796 11.746062397693349 -0.5207689748986579 0.6115975649464563 0.48340827486201265
Ni 8.358144967744444 8.195551349786948 11.179981882147116 0.3778770884967169 -1.0760143863076306 1.9008376501845843
Ni 5.3307942841446865 5.369503958251067 2.582829490689432 0.10839205285285847 -1.5409505705073847 -2.1716874273864533
Ni 6.2077683052367485 7.375496226446324 2.7863980361481744 0.19484359687888378 2.232417655386975 0.7384136288324573
Ni 1.3030401704762333 0.9339021950654279 5.3093949677785215 0.1845031341848242 -0.25483797515464496 -0.3608874959172559
Ni 3.538136567854182 1.7802925124602136 4.243244459549319 -0.015662903348237542 -1.2842657719519883 0.15629761828488567
Ni 8.144142527860863 9.125130825433835 0.04044711047353204 0.8682268276735692 -0.6798528976794292 -0.8625192357658307
Ni 2.1709884276321563 5.042062600407522 2.587200446462 1.0045945398037472 -0.45012611577011513 -2.264546931821352
Ni 0.6826408821850359 6.0200917831854 1.1237085376714924 -0.774963402932033 0.14562239795922663 -0.8954509534968449
Ni 6.530191227017138 3.8795942970312374 8.411695669313753 0.5447360272372166 0.8626022823979402 -2.194784675525549
Ni 2.1528997948721655 9.243439759906101 8.498043381132405 0.4900401783562335 -0.45484614695360376 -0.10682753657921604
Ni 3.8082508741814483 0.22842696498193393 2.162888430644452 -0.7170652450636683 0.14439263931718357 -0.7429724518477334
Ni 8.406455531546511 8.006390632227086 1.9934109283940384 0.17480853260487958 0.16279171064966158 0.5506719331056774
Ni 5.641816729175317 0.3085299241985225 3.8036990320812802 -0.4641676814648457 -0.7345186646534254 1.847125505373109
Ni 0.4890247952330595 5.596567318609555 6.152018211448265 -2.4477622004326878 -1.6858083223864448 -0.054758840908434726
Ni 6.97980042765508 6.6154211540934424 12.734648848647712 0.46929960337477244 1.69757497600407 1.0612225727104367
Ni 2.061389865550469 6.055591884504623 4.5214578352420975 2.5352442426057564 -0.23771725631395835 2.410736258027642
Ni 8.822596123467509 8.145867905139507 7.486226487603251 0.6985147357549905 0.4144440889874733 -0.09200229864092542
Ni 8.810036118976726 5.004076471611542 8.346174003346102 2.231416724926286 -3.149535552334292 -0.8332248576770875
Ni 1.2483290135437073 7.418074085096763 2.9163272938298985 -0.157496009468361 0.33886728289242285 0.023740795260365564
Ni 4.1201267316294725 0.253281674016354 11.273484343938991 -0.7010961233289216 0.04701082153189968 0.9310363068006224
P 4.442187880754662 5.432350361814624 8.274272151936236 2.1931376268404295 0.5035230433340167 0.25154079246061195
Ni 7.59004596342367 3.165900334319358 6.132725525081994 0.20043703180626124 0.8240768726292325 1.3840376872360036
P 8.990755474581924 1.1446765097179965 7.5118863727010385 0.6314827339061576 -1.155104090651946 0.07034281138962079
Ni 7.0197994966094805 8.671319496262416 9.41345157253958 -1.0536036227125984 1.815805612213905 0.3180953404523941
P 3.5425613257139337 9.131485037454652 13.58999350306979 0.3735005566955761 -1.1689759635380321 -0.7220796675591241
P 8.173798609365319 7.373158618520417 4.104666980163934 -0.8356594352605092 0.02614837626059368 -0.009619525367635046
P 5.858843217407492 1.4421742231773103 5.6855643194109025 0.07260409661997175 -0.7947511270819216 1.2331596973047925
Ni 4.5405436618593695 1.7771014921169126 9.431304589262593 1.144380790697171 0.1843380693618696 0.48277681192560085
Ni 7.5446017521974165 5.844056919653942 1.62345942832013 0.01183710184424413 0.5179353621046048 -2.1471020247376056
Ni 5.436357689687608 1.4693442772050094 0.23317824585355815 -1.0874956474743527 -0.5590704415820178 0.3044191285168822
Ni 0.2053004160927376 9.354884290151501 9.671299930611186 -0.01316199130325475 1.1506295998203602 -1.042613699359998
Ni 2.079061068323691 3.582430527561339 4.318405047722563 -1.8823269929749067 0.48293673454223285 -0.6355450769009893
Ni 2.854729469737877 1.8531757881500839 12.974276851607948 0.5953777606534844 -0.2659808791453419 0.07453319532188453
Ni 0.7319653370438557 7.811450828405956 5.279213852112929 -0.7955162873827202 0.5687136210987367 0.23495769129095018
Ni 8.342254799581438 2.7444259147896464 8.661098954941925 1.477111878784869 -0.9508466566583303 -0.7260327386696013
Ni 3.131133054532463 8.339314237230198 4.206315820053153 -0.4769123827250238 1.0882260978824743 -0.2359758481428194
Ni 2.401483990104079 1.6563992923871695 10.53779089330219 -0.6368905351852903 -0.09314181156200732 0.0020527687639706584
Ni 6.168706134697097 4.572834190391435 11.945313789466708 0.9956936377696918 -0.3552449529194979 1.1861851283274667
Ni 1.0409034150072192 3.3030028944181593 9.586513406943052 0.09314926776117506 0.42029746244445676 -0.03740158057690978
Ni 0.6364814742481182 1.8696781869603523 0.34194473082828586 -0.09740804303752901 -0.0906720098652761 -0.6672382942392122
Ni 5.028732669496698 2.5520370719987713 11.726823513414262 -0.6701850355723619 -0.3940670679930181 0.07450542740774266
Ni 4.207898343514105 7.337908975193256 5.89130535604523 0.01013117489673094 -0.11857773513660869 2.7464806790203666
Ni 8.11441223658098 5.870234417935323 10.975924479792756 1.4847503691667334 -0.3562021746264446 -0.6072963664679412
Ni 5.2272716474259715 4.238890200976222 9.959845162287595 -0.08272961508974784 -0.13780315902512397 1.6406641217496387
Ni 3.6593675122338327 4.660698564495349 12.039793965049814 0.17062894730589323 -0.2304271504104483 -0.30738566734437384
Ni 2.938104152428542 4.850972428686595 7.091348851586075 -2.610597105615459 -1.1657160618398377 -0.9157068755324036
Ni 2.297135769633753 2.5404974519200896 1.9875186722252454 0.8793969853577758 -1.468138471641665 1.3943876630117598
Ni 8.165635534068501 0.2830425768285992 5.734521435881366 -0.3463463648782874 1.2071133938397018 -1.2853713463113412
Ni 9.26443185012962 5.276546938308571 3.8567432519333087 -0.11307017505481817 0.9003257650906431 -0.6231320479486172
Ni 7.626928221810195 2.086370731203113 -0.2187815494209912 -1.1164748083155223 2.002217533385668 0.7137449224411836
Ni 8.51346602771023 4.445601530424239 13.107152237374068 0.2003519282916227 0.32017536290987436 0.42366457914447675
Ni 6.340288411703019 0.3548961918844392 11.936964262109134 1.279208669144055 -0.25846554460490323 -0.6925420631113234
P 1.217290774971949 3.1150944668186042 11.829748761440802 -0.6090344322049706 -0.15598008704446684 0.36280039666925257
Ni 0.1508091056199102 3.6430228091963435 1.7860808749434105 0.6662571612728654 0.1823243813659505 0.2023270497401225
P 3.026423061406937 2.968762065901244 6.008200594295639 0.0484498679712714 -1.4879583345810696 0.7240265068728498
Ni 4.433932043238563 0.19793138539297522 7.619889424611077 -0.2176647085384574 -0.21203553527713806 -0.8790779114554603
P 2.440416293536736 8.727078866272828 6.399534713536243 1.1268463813578335 -0.15825988421757906 0.7475950382214093
P 6.3625698967745565 3.757890265333249 0.9057581377352679 1.958701612380904 0.040722931640658905 -0.30634514189500145
P 4.835444033178788 8.131823705140212 9.925672488326297 -1.0259349531527362 1.848956902154893 -1.3203728020871903
Ni 4.333452007312297 3.3995405360249404 0.7716026333430559 -1.6729232388936608 1.0926820767712988 -0.5641000335861254
