# total energy = -381167.56728890166 ev
CRYSTAL
PRIMVEC
9.28518517990222 0.00000000000000 0.00000000000000
0.00000000000000 9.28518517990222 0.00000000000000
0.00000000000000 0.00000000000000 13.58980707168888
PRIMCOORD
 96 1
Ni 2.743066532363723 1.2548834853716175 2.5801198899680333 -0.37845507248737403 -0.4684740221496835 -0.5363922832582116
Ni 4.245827320012684 4.624272895612773 11.583625002973987 0.5140702227222436 0.34125352373641227 -1.129077070460565
Ni 9.01419700368517 6.668852091255061 8.122967793998756 -1.242898521859111 0.16772411495427245 0.4057010526875206
Ni 7.20042894004806 7.388435368595844 9.358987497256699 -0.5453286665158931 0.6947969205837711 -0.47872835288784005
Ni 7.839546803037051 5.062607915312685 2.3779034140946105 -1.7627853512631317 -0.7600358350879233 1.0418652512297477
Ni 8.512017051019308 2.6170944256811968 9.34751750806344 -0.9277121275233958 -1.238198031059648 0.9935056289794373
Ni 1.1215853676201364 3.399343417476198 10.353611885977775 1.406993010480596 -0.8330821614516362 -0.534135368903235
Ni 1.9754602775214996 4.196745831406225 13.197659449241906 -0.4144929399475378 1.0323565404083639 -0.37783929328024607
Ni 9.191107636000506 4.31689612701114 0.7714986044494552 0.4248434299439263 -0.5748539296685197 -0.6724275517496355
Ni 6.442070729597065 4.779409768794143 13.352229926130239 -0.08547272505252378 -1.124178090497051 1.0946122039144763
Ni 1.1249466046378318 6.6967540725759855 13.58314783776443 -0.14551261185423975 0.28285605763412575 -1.106130746077037
Ni 5.392055568972499 7.064447403793501 2.389455112917027 -1.4078013653145045 -2.0107597665287242 0.1806135693224309
Ni 4.316190452941127 6.507689132923181 6.782795240599397 0.857555464002652 -1.7005006342912974 1.302354768243215
Ni 4.423731467137118 0.19626002961140185 12.172933418842188 -0.6339355663220244 -0.13908999615734755 0.42396719798656013
Ni 5.117176948332012 0.0313737120416885 2.19987763104495 -0.16829464274576178 1.5451892911790808 -0.016560475461842448
Ni 0.41647862241827227 0.7838302588229397 3.6769398118047514 1.335665466580203 -0.1027263699266489 -0.4048554168577737
Ni 5.068819704165828 1.9559335331894179 7.731444963659102 1.584523055781697 -0.5926307940359665 2.1464145117522775
Ni 0.32111420000406476 4.649556454726543 6.6048632379195675 0.020522031212751753 1.8260987666097968 1.224131525664253
Ni 1.4133630252004197 0.5929287095510738 12.263306125729565 0.5783907391771845 -2.9213660876097687 0.9962610802373875
Ni 7.456653623758851 2.6341420255830994 0.2937925427538743 1.249696775727867 -0.6768866159622536 -0.15617523377440842
Ni 4.5861943513874435 7.844755791895966 4.629762297062667 0.718822336964091 0.10360928675223446 -0.9135589759514654
Ni 4.459210159525556 2.0955920027561517 3.960518650913695 0.6850915203705492 0.11393535126859089 0.20648066689717987
Ni 3.1369255152825257 5.82107754798526 3.887717228369653 -1.0083776609952635 1.2784561072487468 0.4604848332966199
Ni 7.9953429243627765 4.462432118766276 4.99275918164054 -0.9330934464399672 -0.7458320327837155 -0.4494784548837872
P 1.1970646375561766 7.038012481723393 3.6175387684428593 -0.04223808273360468 0.6696307057307886 0.5533016574190406
Ni 8.78839058646601 2.731450765763897 2.9119148384291567 0.26354964399603 1.565448555648749 -0.38872842938892405
P 6.870925575277454 0.32142618222449165 9.83418191637414 0.17242229176089013 -0.7522983572343496 -0.560628530097757
Ni 8.609734339345904 6.642194324741791 5.9301840443944664 -0.08555680012589781 0.7204429032866496 -1.1396823567802372
P 6.318633478455507 0.8304864570729844 4.057263780356994 -2.177903326389178 -1.1525856951054667 -2.028529946027952
P 2.187728894818561 6.791258686846992 9.316219934539832 4.055557596478764 3.8235610446986663 -0.2938117853146811
P 7.7662866923475 3.3554894880989172 11.331126464056569 -0.8309005804192852 0.22737036586199552 0.11851500021947331
Ni 2.9480462793323565 8.166357464119448 2.737381213507549 -0.441516262613917 -0.6646720761739326 0.39504871517999707
Ni 4.767469020714706 8.494542332601345 8.434609248131402 0.14184776140814281 0.2729341705347235 0.07810882848828483
Ni 0.9912492239256852 8.909636533916473 1.0825801619186581 -0.43974400120484275 0.7225342385980394 0.19476106446740651
Ni 5.908478995630474 3.2954421958518547 9.511750148599878 -0.20335163434989495 0.5614170874373235 0.6675144307187343
Ni 8.898596448794814 7.021781978113085 2.05211505189522 2.2685943624178475 0.5461663319258401 1.3577867239592747
Ni 7.904738087847106 3.165171048453326 7.3134500705088135 -0.4842652235456692 -0.08076734915705444 -1.1407465363786935
Ni 0.3502501824290002 2.6440307477484195 12.288596184472928 -0.9652849435708472 0.3013775134770809 1.6689719675553967
Ni 1.0387893718002732 2.854015209503069 5.345659355906144 -0.5520407884287459 -1.0645729772399086 -0.9891941460882769
Ni 5.970123339720199 3.168448718804836 5.910628515988476 0.17296916540329565 -0.06470746748071438 -0.9840812503417439
Ni 6.958317737737536 7.878711713922796 11.674758166523652 1.5976922461738035 0.9496737193961514 -0.38136144750089157
Ni 6.486333207120143 5.687231604311005 11.33498631551584 -0.041338196627154614 -0.6932583724520578 -1.1043978225463302
Ni 9.197421561890101 9.062284977482532 8.610855061191305 -0.1435724574087334 -0.570507736884682 -0.3452873274861537
Ni 3.1971956519727502 2.421455574955109 6.723394197237505 -0.5524048566363842 1.0370338912793753 -1.5953890519619234
Ni 5.315229947192355 7.142377962604325 13.072578720332029 -0.4772944486547908 -0.7077604227229747 1.8232163028556794
Ni 1.9950984440751625 3.4573851097348016 1.867416006291367 0.05833858783989308 -1.2009316905090222 1.979837365918255
Ni 7.786565536675255 1.2115680967319784 5.350877629950191 1.7057539122704364 0.9123850102480221 0.9291360044541158
Ni 6.653039420975681 5.620276134325917 7.153606536984157 0.36328093585009696 -1.1567290278498787 0.12351091077216796
Ni 2.680233684577134 8.907872348741439 9.74723451428187 0.20521002771487237 -0.7621999326187776 0.7315217868086304
Ni 7.489263193941577 0.918171102864717 2.3796026029737214 0.6449306318809473 -1.1939948541798728 -1.8099743502441086
Ni 2.0297043290612153 5.380254098670038 11.261411437050324 0.5086940460119949 -0.11062839838254496 -0.09010045363252224
Ni 0.7042339377994792 1.0362545162593038 10.301834908127567 0.36024806256104414 0.4323880750604038 -1.0590715878057049
Ni 0.7801412547700931 8.57829470248978 5.588998059691085 -0.8248214641047409 -0.1996693004023013 -1.2126572064760666
Ni 1.141799215651968 2.8417494799440197 7.725071612584665 0.14875374449935674 -0.04098569838374232 1.7963860700367125
Ni 6.817192208919986 6.529639310574651 4.421375815669193 0.36058230597201124 0.3975120891188251 -0.4939711379795235
Ni 2.6915337548824803 0.7228052365815032 4.976587174696562 0.2505424331030846 -0.40938698617954006 0.13941935447230827
P 4.483555914941019 1.717564260486992 0.38414482223396024 1.4024331590240555 -0.8604212155862213 -0.30061800960323715
Ni 1.9046328853364691 0.2722481276926621 7.409625089585024 1.6536929299091392 0.17589173836672933 0.5984000924195759
P 8.980593918693346 8.381560199918143 12.417401201139153 0.5782488142826816 -0.3554501269517685 0.7424541174504181
Ni 8.951930552191618 5.259193854922211 11.627914407533947 0.13670786907841617 -0.4397622560372878 0.46453894876133545
P 7.072813355597213 7.8395375178519195 1.5064033657761489 -0.37388390817692385 1.4350781987525867 -0.6336442603338507
P 3.505333805755187 6.273433197234122 0.33852485064461935 -0.6905684843247204 -0.38350754730961695 0.1642004180717301
P 6.415997929747095 3.7657368227752683 3.6002116844684906 -0.2956074437625231 1.1476342646374622 0.7805468105570815
Ni 7.194087158603072 0.37726078597727675 7.647350898957819 0.29708737074215935 1.966560703414007 1.088271606408429
Ni 2.419069282376248 1.9494896147079797 0.16210633314126577 0.8468573608588578 -0.40858094533847694 -0.5827518443593576
Ni 5.481991872158683 0.6512099595860764 5.930197972172164 -1.5151456936291392 -0.41979943976211576 0.03463738756821131
Ni 3.0937401192347314 1.8536015078523411 9.064089088953631 -1.37178612356216 0.5839227247390073 -0.8197275945216012
Ni 1.7221140012015521 7.058337751976806 7.100511062845239 1.0336616323730328 -0.14032669677792606 0.39296535028840707
Ni 1.1148536083996137 5.2707074844855875 9.213399508464825 -4.545280500704894 -3.09652583290648 -1.9081984614250296
Ni 5.815562148016998 2.252168079632944 12.069189116846573 -0.5737326715798828 1.3629906367577171 0.252286669487701
Ni 2.6129346627421706 7.409847005509672 12.015930223449336 1.5347063893698858 1.185629770044629 -0.6000710523640955
Ni 3.21073345189485 8.608434413427457 0.3075374023044119 0.38850448630357604 0.01867057982630978 1.5572331097174923
Ni 6.4295635852245905 0.029356969831071215 13.494637739014484 0.0002846211199543485 0.603037076970955 1.6740375550037623
Ni 1.79927388964644 5.607434723288699 1.839774938672644 0.6181474502498321 1.868351761741737 0.2641363697374354
Ni 2.5854226591967793 5.1340017037907515 6.053729003683552 0.19455331933197462 -2.086027526023788 -0.07386727960311149
Ni 3.171141422493045 4.415662641257623 8.953073558481337 1.2224543950721463 -0.4898995390133111 0.17648103521129607
Ni 0.8301364055935172 4.857748875750763 3.9997522721694145 0.12667285343991733 0.13588691583901757 -0.3164873725353259
Ni 5.233418180996457 5.953688562036992 9.228729349117353 0.06813911887008266 -1.7297214788296276 -1.50814972192728
Ni 8.146765723491445 6.340453663515134 13.64606889480977 -1.9969022918203414 0.9394119324588274 -1.4207386422014627
Ni 7.810242758761231 4.900080034766437 9.496910565722308 -0.06682965603003975 0.3393485934042156 -0.8947827237852267
Ni 3.1195529339010113 2.2797543646593894 11.318052923391058 -0.1634727958770862 0.5796698629999243 0.952752101211159
Ni 4.877034205269419 1.049578756923373 10.201664473889164 0.8766973270384256 -0.33639516720284646 -1.415622146910504
Ni 4.144980924296688 4.068108876590885 0.20871889102119132 0.6703251606946521 -0.7854511898372344 0.9134237359251817
Ni 5.743611248431025 2.6385617737058156 1.921367574499432 0.054080583894487506 -0.20285258322628935 -0.5748212766583712
Ni 8.124035590288907 8.35805011116454 3.943544403974333 -0.050866704942880134 0.15369463344439982 0.3341102278234117
Ni 0.6694163505924225 7.541733775121127 10.568562064740888 -1.7103646715695704 0.24910775753908712 0.2497641601761634
Ni 5.13605372970487 5.263390758601765 4.918667118363185 -0.4813045982554486 -1.2428689541727562 0.09988735781595699
Ni 7.751448966506955 0.926115507263447 11.702903419695032 1.0734080590330353 0.48654219250530395 -0.18143889343720365
P 0.4661840754655856 1.774176034235305 0.9466589793674559 -1.8247635927381414 0.9624924684273747 1.1526538293392405
Ni 4.42093662641246 4.663214962055355 2.5257467743549866 0.8849749936661855 -0.7867369985281935 -0.30158243039903543
P 3.6842964639846416 8.368105966662231 6.442614841445786 -1.442770939411154 2.9153512488742566 0.3906112482339337
Ni 4.814804894516395 7.343755057741838 10.827800719545447 -1.1859449872922028 1.4314629705975022 -0.2797722765024795
P 2.811711906042791 3.4002905063596374 4.300195793033165 -0.46210462828823 1.016824506211036 -0.6087169009645517
P 4.632211728900423 4.108295157841122 7.384551375655231 0.5136940703297476 0.93766975295674 -0.030983592865707926
P 9.443683241954519 1.2662764075282817 6.677446458613013 -0.48714460197599335 -0.7028704416205249 0.8318428897278964
Ni 6.3517537338204795 7.902333224897982 6.7105927124963545 0.32439454319754457 -1.8399148465572828 -1.3037171958083804
