# total energy = -381167.3644654506 ev
CRYSTAL
PRIMVEC
9.22777424159621 0.00000000000000 0.00000000000000
0.00000000000000 9.22777424159621 0.00000000000000
0.00000000000000 0.00000000000000 13.50578036028811
PRIMCOORD
 96 1
Ni 2.6487772080623784 8.518979605683795 10.238124083592929 -0.33668184520532984 -1.3755972697781342 -0.16230448660059787
Ni 6.509281125348063 4.757969549469332 9.84397170614552 -6.174679848173992 -1.5879876172915297 -0.3751771730670506
Ni 8.497045186488254 0.11813304211164058 6.551491732721288 3.093014734429428 2.3353363438300874 -1.0625140378283509
Ni 5.187568575825376 7.161777036713885 1.5057189803046167 0.15851339498928185 -1.0575515516167528 -0.5646713327085631
Ni 5.556550353676792 0.41308500170634316 5.08342668490611 -1.1678801593706918 0.7742527500182537 -0.3197197634296945
Ni 7.67581019670021 1.1395931985579613 4.544451774123141 0.18068144644588882 1.0355387947910875 0.10557052424366335
Ni 3.7150926519582548 7.418872052787469 8.323234523383714 -0.42392503189471503 0.12493838724731386 0.18401051081912181
Ni 0.23071465528426718 3.2033387521912386 1.093462632718492 0.3660173609446535 1.7038824062793367 -4.561563297025318
Ni 2.7736843591901925 1.6889133669598275 8.778217310919011 -0.08625871128892887 -0.25033365952638825 0.34669217825348037
Ni 1.4319567674987521 8.360427989942208 12.746472101600771 0.02043487081558416 1.5331027923281921 0.6252442091956135
Ni 2.192362269976324 4.11508897878578 12.367877751399337 -1.4564816041290272 -0.71288977352974 -0.31911452574552784
Ni 4.630653949283867 5.470196843019724 6.420620671149184 1.1677752583617114 0.7151232908459492 0.8522314806865774
Ni 4.382094624314984 4.882544500727126 12.043752183774892 0.140984384966583 -0.9585954473658135 -0.8510212624285601
Ni 7.4168419424706755 6.552910041610793 10.42467922559985 1.1907976873988138 3.272735873844577 2.2509038871166203
Ni 6.868988990161401 3.4245561823025787 1.6324301612821273 -0.6951612459017255 -1.1430487021493088 1.3256962711826328
Ni 1.003003685334416 7.390524330545695 5.617850457469794 0.57521851209679 0.957956014009602 0.00079472798715347
Ni 1.2218311219364395 1.402686267840254 5.122944627777333 0.09635826161677598 0.4946607078473804 1.973969080062936
Ni 0.06859189093995788 5.241984760089613 5.443734355040318 0.5506068841956969 -0.5658753803189931 -0.69176327596377
Ni 7.272464187849976 1.0022008689818658 2.087466469907595 -0.3389523864070614 0.19925226746954072 0.5074285490360099
Ni 1.2099088377123604 6.174875817301309 9.251459095199035 0.5243204396953421 -0.036896101695400974 0.14271139496001872
Ni 6.329044240313454 3.5627328726828895 11.872863956749116 0.0014824980827974467 -0.22707520321907992 0.4362485864570745
Ni 7.3386826952741195 3.7811266038990525 4.488511161566475 0.488059657591095 -0.45967827823492446 -1.1901672529036664
Ni 5.042581788109638 1.0765398176731833 7.95968605896197 0.29173073441593633 -0.8586857209523534 -0.7442533754426859
Ni 3.8227530931674907 2.708490134698614 11.383265942757655 0.21017328525741868 -0.09210102900231881 -0.8000457998219577
P 0.9925117061062597 1.2496159499540114 7.600688732759511 0.037176094829665 1.2119874341025516 -0.7386900224222955
Ni 8.614468612766434 7.857265147924895 8.533992271476484 -1.1289855391880235 -1.1292315937605586 0.7424489752440955
P 0.31123621266763807 7.796943188193621 10.731544241644466 0.32727572140008154 -0.4065613438052869 -0.5939600543703513
Ni 6.366647420044973 6.010372287221851 4.754993592300396 -1.682162755214058 -2.0799617794456826 -0.1180491163266483
P 5.773606057638705 2.0117655017491924 3.5819220290636737 0.1012973507896062 0.2413111443128038 -0.647447227655214
P -0.1397684814241608 5.918638984225279 7.45192224874487 0.48409115986165013 0.028404776394938176 1.191205978580826
P 5.889183929083437 6.290426005423538 12.265746592471112 0.7376662091434715 -1.4366540278801387 0.9386984513315705
Ni 6.568366563340927 6.626981384851261 8.306500877708833 -1.1286093867955271 -0.0346741543434177 -1.234540636812719
Ni 4.724269718210557 4.777956908315583 0.9125272051794223 0.05892582780193077 0.2649287837317438 -1.2718532572202483
Ni 1.897710213042057 6.454089808053777 11.657230252786377 0.6005873298788817 -1.2045083521166868 -1.6067870093862198
Ni 3.870128485742121 4.581128485328269 8.557572925583457 -1.1062611010073142 0.27833502983532066 1.1422822562969297
Ni 4.697195428803864 7.307317490879656 4.114833369441347 -2.1479633442966364 -0.13530121853887664 0.36830692830977857
Ni 7.591846679552457 7.342253843876842 5.925796045869394 1.0061001778149963 0.46139963180140536 1.111689471111737
Ni 7.220281124934211 5.007239413049094 0.1075321751483107 -0.15799120393722468 0.9831368841506035 -0.6856880163039676
Ni 5.612802865000312 1.1995460473225454 11.690225082098774 1.6033196196629096 0.9836089386910157 -0.8327844277055593
Ni 3.0037881358245886 2.925951860723885 6.626583667784653 0.14104223478771194 0.5776949986617407 0.6611213827081968
Ni 4.679321230241912 4.537102774776348 3.085260153947185 2.504791068322222 -1.551176362000451 1.5345449240913573
Ni 3.219376623693909 4.952066551303142 4.757343906380793 -1.7242679119142237 -0.3825503256026702 -0.14827500509072528
Ni 6.700785122640878 5.639378854601975 2.5558747460788163 -0.469724606727333 -0.0027647072293307223 -1.1591659194261457
Ni 2.363583619649536 2.4317491874229673 0.40545455524744917 0.6572459589131907 -1.5007714271853378 0.25086253544666476
Ni 3.207768083791516 0.394998564338545 6.255877218941377 -0.4241734004600953 -0.2680267059307771 0.4227829478704718
Ni 1.041732653514339 3.831316467594693 8.15980049233024 -0.18184024264068038 -0.7750999285098974 -0.5580921368291485
Ni 5.690205434715155 2.593179868704733 9.664169449274189 -0.7233665046913478 -0.12084904766928865 -0.14902705276540143
Ni 4.066892314310264 2.182156351747352 2.0770270889921916 0.5192353118629509 -0.9329659197231674 2.260494873239165
Ni 1.7018876174389728 1.8089113422306682 2.7631471638686165 1.5964807423642051 -0.27696077519561335 -0.980914165467672
Ni 2.7048174805800507 8.920074037637221 3.7695439017643286 0.06717418385365205 -0.001615681226552056 -0.059626967634013435
Ni 2.167890212884793 1.154449914967224 11.269830760474557 1.18165227345412 -0.14151711754160146 0.8256766130161844
Ni 6.996719840184392 0.119397247172553 9.649691071605783 -0.4411953889393886 0.8145684189181649 0.26841751361129257
Ni 1.2311880849420251 5.404882657463971 3.4242285963196415 -1.0501678575581719 1.32632207769209 -0.5014448206487493
Ni 2.3164020103324177 5.405980762589873 7.015050813567622 -0.9411008901254759 1.2065130412515415 -0.5980959309155958
Ni 8.454071442191399 4.717561126390971 9.571870483721163 5.092702816525023 -0.6442611166177485 -0.7024462095989128
Ni 5.158611820488563 3.4492127948774547 5.139408822446528 0.04964903048569514 -0.28956380867160453 1.4722761479591224
P 3.1382091221188313 7.414673415541373 6.327350020976349 -1.3337471665115674 -0.6256239611325354 -1.6943045327829145
Ni 6.719858931844571 8.20349123467989 3.4353840525104227 2.3742659310157497 -0.567430640621255 0.5084096820023567
P 1.1509525885578387 3.4993565197022583 4.306142660699233 1.3468132556669061 -0.30424197950906956 1.252423430630411
Ni 7.3386826952741195 4.889243864772545 6.532043275886404 -1.5608753344557698 -0.6970633480204446 2.4583008951804826
P 6.852268263370354 8.870871545777476 7.552486531619494 -2.1370096734986097 -0.01208469907867596 0.9036052071728632
P 8.078584083552075 8.333224511697171 0.324837029012739 1.0939635145868838 -0.3091669276145127 2.082274229628943
P 8.956053129115304 4.285489056558107 12.376251033678694 0.12626996157454382 -1.391982910225009 0.07272776668202958
Ni 8.939378541195094 2.8074211015456365 2.9793751364877274 -2.851404570818967 -1.15829097302036 3.2810546781229175
Ni 6.073001190494936 -0.2006413392732191 0.3388032652148627 -0.4554359580188027 0.10892787075167046 -0.25683263698717057
Ni 1.3697523418373603 3.0133757931843546 10.319442920664349 -0.7011105215066248 1.0071270764176137 0.09938085049318368
Ni 0.6195416842597594 1.6627433994215235 12.644179456624622 -2.058410535637468 0.7400647912826352 -0.18232386714531826
Ni 5.182345655646715 7.966023694260032 6.566631741797485 0.8860211755425127 -0.7342618114476128 -0.23353638546339134
Ni 8.211279476077042 -0.11092522770960632 11.941284211089565 -0.2275176900731372 0.41849100536333733 -1.3929840977960137
Ni 1.6922999600792061 5.471405681435633 0.5307437362257875 -0.2594104250166758 0.6228325144303273 0.6225790036586245
Ni 8.860425705420155 5.842472936248847 1.7246746829675648 0.07938306721501813 0.4899409337742079 -0.25545941078872775
Ni 8.022977516420264 2.2741203490981055 10.7928738743148 0.5428259546986974 -0.02452189640076422 3.1836324940180014
Ni 3.244605358267154 6.017966745361493 2.4741508097214533 -0.19838760547640027 3.926334980033799 -0.7106814530245115
Ni 0.29559605823157625 9.402179099004881 3.58537967604414 -1.2625643757191547 -2.6325489272962015 -1.0123356172017468
Ni 7.874115063554283 2.600128382652668 8.7444658041249 1.0646349408260953 0.09195319057054487 -1.7611670989334187
Ni 0.2397929395100018 0.6806563097919995 1.2940781342240428 0.057878874594655155 -0.7676262458406715 -1.1023612517322756
Ni 3.667624981641952 6.8162614885697685 13.008214224744979 0.7424991117557406 1.0597961246765555 1.499850200922649
Ni 1.3785556383929112 7.5331395803004515 1.566521707070004 0.4916795137318694 1.2965430466574444 0.7002067787454328
Ni 3.3365970389404094 2.1528581687663526 4.493021697579423 0.6606809527366687 -0.031690132014429294 -1.0868718978474248
Ni 8.96208809342068 2.9329926524134926 6.277594785443986 2.771592900706962 0.06576161977684158 -0.49329288096557633
Ni 5.898688536475698 8.1455684962321 11.495782961511111 0.5158118880036987 1.2576029179488213 -0.11762334164313937
Ni 8.946705393883885 6.426037374585356 12.468806531353566 -0.5916828283004003 0.9509459012403556 1.0550316134083766
Ni 1.4306002846961672 8.423518281923654 8.143282776570873 2.212826620628925 0.5063255457798184 -1.5706915492152433
Ni 3.9670108867240153 9.174206938203119 12.503084021275212 -2.0711467522572136 -0.10149326885049617 1.3221617756668134
Ni 7.308950806907259 1.7915169879254134 -0.21820179351348434 0.7724223816777342 0.630541710149127 0.22325094437698323
Ni 7.030345849249829 2.307626397099369 6.7250006476105595 -3.9702021137303944 -0.9536345038161125 -0.975729535942939
Ni 2.623594612359969 4.004512560939695 2.1303746970078627 -1.1287225153346239 -1.6607516365281334 -0.20899237757544006
Ni 4.72894819971335 2.496472795432016 13.593297554709418 1.5715595536424936 0.08185286891174937 -2.1546422989787084
P 5.523108900094701 3.836742398805032 7.641678505610408 2.142726778488045 -1.389725224539084 -0.6931012780489031
Ni 4.911805772611457 9.091184654020426 2.585857629903025 -1.7804714556889853 2.29680296364158 -0.5200518942269753
P 2.8482816855581925 4.800749510508675 10.411632998482201 -0.6855540618292645 0.23046366007533858 0.019686679795649965
Ni 4.524839062908081 6.800149794873761 10.27133484282084 0.02478414892321538 -1.5736568024911541 0.8163208828328974
P 4.513387395166531 0.27158631262582417 9.972290365382964 0.562741976896334 0.3038979659060896 -0.11779380578273262
P 8.19917263636962 6.61616643352725 3.8658135785415175 1.9973383509164957 -0.08208863907163927 -0.9107083938765478
P 3.042314092972832 0.22569936002437008 1.125659259565423 -0.2504313614465171 -0.2052226261203627 0.22628587454856514
Ni 0.34431686027979097 0.6204284733572316 9.86857941151731 -0.34938695147682414 0.25324003453990585 -0.5888037069803924
