# total energy = -340865.79073547415 ev
CRYSTAL
PRIMVEC
9.23761759035196 0.00000000000000 0.00000000000000
0.00000000000000 9.23761759035196 0.00000000000000
0.00000000000000 0.00000000000000 13.52018709617779
PRIMCOORD
 96 1
Ni 2.876501679849502 2.9255811410558357 6.061302373841401 0.3374549759259285 -0.4024480929678617 0.503673709979268
Ni 2.3710469689842677 7.8404277618814495 4.465447619821527 0.04427825309208503 -2.2571231285534545 0.6728852081123443
Ni 5.648886174068174 2.568639605009769 8.081164689938605 -0.23180808991837498 0.28352968666238265 -0.6959626587570982
Ni 6.283011657593493 7.121888930623498 7.318787821582822 -0.04977784275407556 0.7622410702693582 1.6952424712161513
Ni 6.2083809466795135 4.72857006610592 11.975099396921156 0.09658734690844654 0.23456971182391217 0.8027256606469659
Ni 0.6156299259820618 8.382509625707932 9.519212302280723 0.29009756968788747 -1.1580318058217023 1.1432106816484697
Ni 6.683499322027788 8.485656861512549 13.518158396257693 0.7905679422385093 0.7124557713161149 -2.8411718373473653
Ni 4.915022135556071 8.882200063320248 8.359679778084116 -0.22781233849542057 -0.39218193515516325 -0.4166156427174954
Ni 8.29491853759228 1.9992513441710664 8.371807845958724 1.7608053447186256 2.272335317517519 -0.35888126412050453
Ni 1.6264950071490456 4.0724221027168905 7.923315978982581 -3.079858142442812 -0.35583373554343234 -3.4462120607912774
Ni 1.5171308548392788 1.9650167341144742 13.000970987542251 0.5664651913841922 -1.6292054862907361 1.5424821766605628
Ni 9.005522255510078 6.467837906382564 7.5845411413005985 1.1521753470409255 0.283654385165705 -0.4986261202530316
Ni 2.7536228932945126 5.769538694831572 6.437772233055206 0.10866664667048381 -0.09979042722677653 0.3191656906984375
Ni 4.359619627449608 0.17412169775464603 13.739484318887998 -0.5586127852193089 -0.5269329376175247 -1.552693569975926
Ni 9.192593245325524 6.402176921956698 5.09897635326329 -0.26103819042808596 1.194373063454898 1.8066553131732046
Ni 9.204620623170555 2.2868645616864467 10.568094797826523 -0.7011637433420633 1.4917214011679276 0.42693810768942597
Ni 7.13473845641646 3.8356065432428483 9.793346912258711 0.9497850481630353 -0.46784924408149103 -1.2689224567266983
Ni 7.924693307735803 5.46556565691408 3.526605470178621 -1.661828157421764 0.08130676660029224 -1.367340686196297
Ni 2.3534308326167768 2.740237585692785 2.854354492150991 -1.3602285006315478 3.133510637660945 0.7962199983179643
Ni 4.135431890951109 4.510968750808272 0.13888203492575016 -0.16435725536456855 0.29429772381216407 -0.0031768550660848513
Ni 6.148595086915275 7.494488228149846 3.754636979274138 -0.2738317426483284 -0.12904315344430678 -2.0661503274838866
Ni 2.9734966624707155 5.566117122231406 2.536049290849041 0.7817410879754988 -0.09653643906585309 -1.0695182370603258
Ni 4.924666208113837 1.612851046260328 5.318909243190805 0.22586344229916583 -1.2810097269085359 0.32618377388748343
Ni 3.6944557494855013 6.693448235959507 12.064428080868336 -0.2962566473107478 -1.3491447320135603 0.623011977430985
P 0.723697116809922 1.9100806234812973 4.208361032741391 -1.6752631998807472 1.2152619910887652 0.04487294925329046
P 3.7382051054563648 2.3951294375265064 0.15915029124662686 0.21885718618466177 -1.4871872607430001 0.9678766155574235
P 8.846958552967873 4.509389118234155 8.652284080276662 0.362005411571783 -0.439356793068753 -1.5371941887887461
P 4.487680717361788 0.49746417182072433 3.517722577293996 0.9900364394839143 1.381341114240447 2.4573202764347677
P 7.7134659484389765 8.302696611436762 9.303254359117197 -0.2068964142783598 -0.7687984117719018 -1.935693838631821
P 0.880431771108411 3.6785300971008374 0.8368496160123515 1.7553880303577962 -0.0790339114057155 1.1865646231540727
P 9.059737831986638 9.551326879145735 13.018763562401938 0.6850203008129816 -0.18217551449291206 -0.085507177834885
P 7.054131007049534 2.225277366530672 6.245001633308588 -0.17344224838497227 2.1098043167284115 -0.576266236635014
Ni 3.097493200730197 0.9035747739618326 2.080716044432015 0.34128540541561225 -0.9089515590864411 -2.4573192479935035
Ni -0.11386287197991252 8.928305011726199 7.325061087554066 1.119749365301736 -0.1152494420943241 -0.18271801725994338
Ni 6.559742961820512 6.0807355495499955 5.339540537875207 0.5946249416478598 -0.8367094737915783 -0.1766890374570441
Ni 0.32826335285106123 8.84568376176771 4.846202809743711 -1.5140686585148762 0.56884423313933 -0.3563883224953217
Ni 5.904370958292452 9.185812834159433 2.0324356371301318 -1.176893932833528 0.2666084854270118 -1.735862815840675
Ni 5.04522635270331 5.836363619048893 9.944989791850455 -0.6039313066504501 -0.5181935008619979 -0.6028031065832781
Ni 6.035378848152838 1.6329151512368307 12.93200478361335 0.4324176427467585 0.5340911459288609 -0.2533248809442283
Ni 3.2948087082339232 8.212057109581586 10.508700613039728 -0.378928926799999 0.8552075325957659 -0.8840134010838646
Ni 6.30387019766575 3.7591652593199396 0.8213572078833955 0.6522860438047541 -0.019592577419946904 0.8980469963587954
Ni 1.8447891437511315 8.877479640832682 12.805563971791814 0.9088762257638153 -1.1636661212893442 -0.6259535765578124
Ni 8.57750649124614 4.836742565772054 13.607797464149264 -1.9729987457298666 -0.7904625270088966 -2.4162782708917936
Ni 1.2883243096445318 3.8870970225886246 12.137815408481288 -0.01898785395641246 1.534082382632642 -1.1014960755185028
Ni 2.4153782948508584 0.8334686480466977 4.653567079211023 2.250115843997686 0.7063709985746157 0.7052844503786563
Ni 4.277367882186819 6.07638463175813 4.557452441527315 0.36900164038395805 -0.749806186940115 -0.7492228036328193
Ni 0.8039313664341899 0.8796271746335245 2.385163895883481 -0.10346710474741536 0.41945568326945176 0.43882817425879267
Ni 7.373632479803813 6.051886470433229 9.185398988900248 -1.0102455674419377 1.8063969173054955 1.025110914589544
Ni 3.819505376127727 1.4144824503738573 9.486019695466004 -0.447750416449087 0.6431138903871828 -2.9824904657249154
Ni 4.7734094609290985 3.6791674927009197 3.0253446376095807 -1.6772612041473824 1.1472794524012049 -0.825209700682095
Ni 5.5127236937027755 2.8418790898624247 10.850463819948184 -1.5324101371365413 -1.648220593940658 -0.14631428181992864
Ni -0.11178533182834004 5.074444936515777 10.60449101035296 0.9674786087880562 0.8908846742824011 1.8181255185963334
Ni 7.3357305356424005 6.4918002858987 1.1932858543870488 1.065697577762655 0.38343067132509445 1.5358813835145937
Ni 2.368774515105714 3.8634671972986183 9.887759057056982 1.0034717390532137 -0.15151768039773905 3.5683212061199128
Ni 6.790082951502414 1.066723106015932 9.812599954428151 -1.9628089496810583 0.21254795613718233 0.22507719895244466
Ni 2.00318656918027 5.642216614310792 13.479153480579615 0.32687488641723705 0.6934437489899863 0.08005695335359116
P 3.5320953861949818 0.7724846693066532 6.868160217465533 0.6325589976894719 0.3270175826426884 -0.2678981507727128
P 4.051877641635978 6.7576496768373575 8.13508281513513 -0.47075073399900214 0.9332981062516056 0.3297833183132836
P 2.9314932161870333 4.343056579464862 4.459403446761617 1.319447976280076 0.07233284523645607 -0.33088426468694626
P 7.218218804792452 6.483865172558546 12.24170442496252 1.1123895825025554 2.1653774260080256 0.8169999111777929
P 3.113261813619188 7.6609685687974185 0.6947602803279265 1.058526256825196 -0.7515144278804735 -1.2300237227789719
P 4.861878122697038 0.4701374520502411 10.999943249546607 0.8674189870602932 0.03142505127850072 1.5512573517500317
P 1.4706009760332737 7.527041591841003 6.462581702086234 -0.7372568895201947 0.36652078294363327 -0.1738993905270489
P 1.4685132745025695 6.750351959097286 11.413890122521769 0.23695029624094677 0.07784837573804658 -0.816272546093465
Ni 3.300157288704179 2.1762440934113 11.46976939389072 1.320713987476693 1.726980939970013 3.27274358715406
Ni 0.5187033017295524 5.871152486149033 1.7221477639631295 -1.6823553308408383 -2.283967759550124 0.4162371763321541
Ni 0.048382021093200694 7.162839288524434 -0.40820015119529096 -0.7720462292852381 0.4032597902358797 -0.6858741641728446
Ni 2.501648403679384 8.633163136035934 8.191151457660627 -0.5071871224491652 0.12183043774595147 -0.8189832601564089
Ni 5.095506704170669 5.0295501159882425 7.371057032074785 -1.1872498221465553 0.16740144150753106 1.391604443839668
Ni 7.334788298668365 0.24350359446620914 3.6027779394354087 2.333019779881769 0.7850431557655383 2.0979875265991415
Ni 3.8740165563608495 7.977236875464323 2.740149828327556 0.9354701742022599 -2.5754061595366227 -0.6670657732170898
Ni 6.551549195193368 2.799302911300408 3.8866748634737873 2.236939197406412 -1.1227390440576794 0.552064699688146
Ni 8.553858190721352 3.4971864300687376 2.529370493474266 0.8787269558739447 -0.8286457229468374 -0.1380281305517365
Ni 7.293911841706568 4.876445845325005 7.011717410553627 1.4506822238384305 -1.9340287922245725 1.258360879160768
Ni 5.30134853252767 3.8847506677709305 5.462047048449278 -0.36396819172510864 0.5708206401394105 0.063455083130852
Ni 8.543549009711326 2.2155778682685505 0.37878295860888567 -1.4516476730754935 0.12247758441164713 -0.10181028587028274
Ni 6.053937221494363 7.885082404356778 10.674160196965431 0.05937525663452355 -0.1064840371968682 0.7835213198043731
Ni 1.0609311199108367 4.9980036525928675 3.7943458013975233 -0.19240619108198476 -1.2348890212910733 0.3895064452055292
Ni 8.463578955944481 3.741567598187234 5.315731502807786 -0.28753495116703387 0.5314498516512718 -1.368272968202579
Ni 8.364274568975144 -0.14691137196330817 1.4160232849549257 -0.968695511914293 -1.1297113616104542 0.6819797142144449
Ni 1.7365150302936796 1.0493194348484685 10.558035956247837 -0.9217196573853869 -2.2322273937530395 -0.8248970545376827
Ni 8.23663840946302 9.316691397376323 11.125667222258484 0.6826677414204049 -0.5364807292069599 1.446237814913832
Ni 0.36787610375356494 2.0606999750659534 6.320890507711425 0.7719840085887351 -1.0216941755985114 0.7934252091816465
Ni 7.002779091964647 0.526834252558428 7.501702807333385 -2.0127022349670756 -2.573775051691103 -1.196500908431178
Ni 1.622541306905057 7.602087995537646 2.1459779637865246 -0.02051740322706144 2.81423721774005 0.8562542286927253
Ni 5.407082301202185 6.642354974161608 0.09413224499127913 -1.9129359761100153 -0.7910801059882375 0.5429180001918714
Ni 4.664959832741189 8.145684828616497 5.621477239502898 -0.22173605039435362 1.3403531018638595 0.4739548427585967
Ni 1.954144058443506 6.239511717292227 9.06162138217297 0.3077109118942765 0.32915854024509117 0.7077629938261359
P 8.790682987812785 7.463597635589338 2.990759921853813 -0.35374265734235855 0.48504786734796473 0.6533175703930619
P 4.134960772464092 4.459533697166851 11.39915335149552 -1.7361883175008939 0.06751434080189019 0.03331326944014908
P 6.977246317491786 1.8808528020514381 1.9718110017066552 0.15007169197983186 0.16360803590336984 -0.45494950530068745
P 7.677817982921332 3.143699762927464 11.8034746271477 -0.3348841298749588 -0.4962805028389904 1.3230966287762569
P 5.608222182306404 5.549969767029322 2.244621861112299 -0.46793511892707795 0.29584501369462596 0.06542737636587442
P 6.995582988015892 8.339369952484972 5.723271164359514 0.708301125717793 0.3429039148556417 -1.090614909829625
P 3.600832497212549 3.5109135295139873 8.19950688259214 2.618698651676671 -0.21171106205818377 -0.8144195520451263
P 1.2944026618887945 1.795959098214395 8.461554993973786 -0.9039412503560433 -0.5192250274503057 0.08543981493205931
