# total energy = -381171.7874375262 ev
CRYSTAL
PRIMVEC
9.19301749266117 0.00000000000000 0.00000000000000

0.00000000000000 9.19301749266117 0.00000000000000

0.00000000000000 0.00000000000000 13.45491034495422

PRIMCOORD
 96 1
Ni 9.108018641260262 1.5421838066596314 11.060676185238597 0.1305729598252719 -0.34979164311441047 -0.22449921496178757
Ni 4.226664361358712 -0.3419103758483016 8.751948260897082 -0.7462035571905212 0.42464648344177186 0.9037725859886628
Ni 1.8075402504186044 1.3191979795396713 9.371842609038822 0.9945700656882097 0.03957673385135765 0.4888834390439709
Ni 7.538467222160982 4.318337129665121 5.157684428386492 2.38987355564602 0.12555982288139667 -1.9022134474861887
Ni 7.620634410600881 1.495814227504244 3.914477768278673 -0.3718331962954822 -1.0776254395484925 0.005837689727699623
Ni 2.3946522989433507 1.1036860754675564 3.8619764465981774 -0.6471839466914983 -2.0564624107721614 0.7220040771261823
Ni -0.04277051289065033 5.970515388068251 1.3483435215210833 1.177317907744824 -0.5414131335115707 -0.6760108982255196
Ni 3.1050978672834577 4.472853364090924 6.692888896327889 0.5172707319374124 0.8558819329549712 -1.2084526814764156
Ni 8.87498484625433 8.438472806794525 4.6820533424992625 0.8217034873010493 1.4089565619648703 0.07940569292283743
Ni 3.8916616186938677 4.873751654611799 4.102078752589949 0.342910599723861 1.188896613721359 0.09218124742095093
Ni 6.766924860984495 5.118488160613926 0.2924694096199928 0.12182118177457085 0.1861566106278471 0.13244318026479127
Ni 6.990287601812895 7.04635581419765 4.735509818675048 -0.14959578078467786 -0.06210628241244143 1.3194736873116888
Ni 5.521326177780674 4.1137281440859255 11.107606538448007 -0.3770952160253699 -0.10245794675661064 -2.0056453281202944
Ni 1.3795225589246145 8.157607742885842 2.5672907283312907 -0.23440464700095762 1.0487907747049874 0.18540584850475167
Ni 0.023265688129749135 8.246798396526914 0.39265031541813616 -0.20745022989930081 0.5557598891515461 0.3623301419010534
Ni 0.6287674484194514 6.01057855737023 10.564552944534702 -1.2054362632475948 -1.05014008964403 -1.5062329645205412
Ni 8.625817305923716 7.112361678261029 8.829178799058147 -1.1083321246037299 -1.5904569047676287 0.9359746246425041
Ni 0.3777723362537668 1.6008812219861877 2.5724976533181287 0.03969629014835744 -0.9511533892654715 -1.435517086062218
Ni 5.923005874770266 8.74855327961594 3.0684195669436156 0.3708854876702322 0.7598111206716269 -0.1530505721024977
Ni 0.779465822769277 4.091361533046065 12.50092965491189 1.339316690179545 0.3843256723355381 -0.09198635780132546
Ni 3.42554806359561 1.4630319278872512 7.117795670774659 -0.5569040300583183 -0.12371017126716759 0.03172175658331312
Ni 8.556851290296493 3.390348000434235 0.9173803872908946 -1.7561431633562659 0.23342865624093348 -1.4748935309773115
Ni 7.216371475755885 6.854598666774528 2.1787129195677615 0.633244968012903 2.4546496715811403 -0.2541347784400333
Ni 5.260327224211957 6.2098831719794285 10.83701467134863 2.596377105361335 1.4733308144758819 1.7054122126603015
P 6.5558256052063095 2.891718743220076 1.5374383711402002 -1.3310711623413012 -0.25572911951034666 0.8479734767411717
Ni 3.5748610502414873 7.470071173605057 11.854152166341104 1.425441704104087 1.003778214550039 -0.2149185132518879
P 1.4856283643590875 3.1322908123948054 1.2003901821307736 0.7774141784653709 -0.11362681888923656 -0.7093635055440364
Ni 7.13838711017794 0.8526017910342651 0.8971318474321204 0.5046245039283116 0.039583932940209246 0.6826541145736501
P 6.522510110587134 1.6410455144782352 11.446199154360308 -0.5763832218288525 0.5606838088157247 -0.5612365959954012
P 2.7206918497611485 8.065061637937927 10.085841278557272 -2.077710007297028 1.1892539970607776 -1.0408164982502592
P 6.634251235613648 0.039192590565654925 5.497998896435155 0.6585613352905046 1.5155989791164737 -1.9811817957612912
Ni 4.486955452596944 3.9860371340803087 1.4182279195744811 1.7431251538300432 1.986115999838115 0.903948963665527
Ni 3.7744414553690575 6.226972991101132 9.420481944160402 -3.523281649381771 1.9276673687829189 -2.8737960511402894
Ni 2.685500979617052 7.835806173033673 0.40329858733242746 0.9776609486376967 -0.4980527642480648 3.827411271682692
Ni 2.4043509321727194 0.9690267583644406 1.231086586127156 -0.6088053469132999 0.007163607627974759 -0.47906850983607824
Ni 9.061915659605967 6.213615536994712 3.760028642879006 -0.43036178865899427 -0.28965251173066886 0.6610439925030422
Ni 6.2737470630167955 7.476377583458467 8.75716897540984 -0.7847027417069841 -0.872373245741775 0.5735897182441153
Ni 0.27959366961899446 3.992407895054671 2.84104499337465 1.1738307205271719 0.770608211287131 2.0781388673043306
Ni 3.765248438090035 2.8803929459323205 5.127626019789274 -0.10631537282948787 -1.3173173030903185 0.9444232696304897
Ni 7.339557907294781 5.285938970351313 9.752159572475422 0.3034354244473742 -0.8988077857842197 0.10214607194314665
Ni 2.069421733646107 9.344702064125965 12.369166138251664 -0.9011420903443513 0.4267558164752909 -1.4533129765930584
Ni 2.920088394543138 8.176499393394232 6.6991190041378825 -0.0748998346326839 0.6940363882686628 0.2455753189057964
Ni 4.313308549213495 2.4118524342724013 9.864117652709721 -0.33873692796214566 -0.38874385600789174 -0.46740598589648535
Ni 8.568397719998943 1.1307319323024394 6.766810867570235 0.10950174097726949 1.0012461921568048 0.08179604753188494
Ni 5.243329335263045 4.808665092276323 8.710439949278843 0.9602646075381204 -1.4632657169303962 -1.1919899079347018
Ni 5.290691760284568 8.26432028746073 6.74259186354865 -0.6298598535907539 -0.8736767950445471 -0.9375949338547466
Ni 0.27164079037091243 8.411932565909988 10.791618632723091 2.520485339129027 -0.3441064198041751 -0.6219143734914322
Ni 2.774038929031314 5.282592712061748 11.243420498521369 0.49848882334421896 -1.8473862152336635 0.5685027906395113
Ni 2.427416212525786 5.117329840436768 0.40112719665112245 -0.22080788215312938 0.960097485832637 1.3345717192953919
Ni 5.705655367242345 8.766001626411525 10.881685380910856 -0.664334747439172 1.0029531475455824 -0.8665736083408624
Ni 2.0200920029268743 6.059237197828093 2.9634840326087617 1.2870582470954608 -1.8581395970954255 -0.724476964146707
Ni 1.763202328081881 7.196827121020684 5.014106965220996 -0.14501561761316314 -0.1226796731201242 -0.26025348974326146
Ni 0.8897084859793101 8.488547171913359 8.183464942586546 1.801623150065936 1.9093544294063438 -1.012471885669295
Ni 0.4991679680267095 2.4215510675017695 4.743595996673676 0.006191730633008691 -0.06664659348495619 0.8848261267931471
Ni 7.170985549449353 4.702706375118313 2.6682833775551713 0.01782468688624672 -1.764463510296503 0.5379030634757833
Ni 1.3815358297087204 6.82571420648384 12.435189469047874 -1.2252844083217735 -0.23791317437484832 0.8739814707691592
P 3.7333394751145494 8.808445787188768 2.397086609918836 0.09443404801086963 -0.5835509432218854 0.4590182760534223
Ni 4.452178268230403 1.7352371695190958 2.0441510484478034 2.6849307833320277 -1.5307407198539187 0.025073140918543915
P 4.383901728899106 6.361494412945062 7.121212715297271 -0.6716904164732949 -0.980586092704292 0.36204449233983454
Ni 4.99538446623054 6.89471699418018 1.6161094551088877 -1.3199241445855463 0.973758271149181 1.495099059390909
P 2.42700252674823 2.9951769596781905 10.84083620863152 -0.06718318271471656 0.2727999589497044 0.6205051518487312
P 5.671255096584246 5.959198783797776 3.5738397060217877 -0.8694717558242638 -0.6783395463586962 -0.6735282410129819
P 8.977339900638963 1.9967877041245536 8.906060921864338 -0.9434344233546591 -0.5275415177358012 -2.2866234520054167
Ni 5.6573828335102005 4.461380478526705 6.173637862753429 -3.9338145762402967 0.2858367375290045 0.4719403834317291
Ni 4.2799654755424825 7.394789555107145 4.429948633148 -0.6464622380341254 -0.042313158945914225 -0.13166105068312808
Ni 0.9806835042742406 3.2066899012339314 6.977433925053366 -0.3244361950687573 -0.6606115329513139 -0.42294055649425866
Ni 7.7897031913793775 0.05436934279159251 12.130812344146362 -0.8853071801946236 0.14412910124315176 1.057326065869508
Ni 2.9598665803094666 3.034421950442336 2.9438670530370565 -2.4659203593989534 2.1262012700291963 -0.39693384801785186
Ni 7.221997602330646 5.695782066684677 7.104515438013384 -0.9146735491718828 1.3228683148155347 1.760180309540117
Ni 0.2685877893325492 3.582601570790424 10.163071816718336 1.153144138712098 1.8806148953798065 -0.4088583673695797
Ni 0.05328364745094 5.010470207585415 8.246810347449376 -0.8727663674151357 -2.303363647578233 0.6984612568092358
Ni 4.845317652167783 9.270330554338678 0.33643869196382764 0.30314926066552306 -1.3840032344536422 1.2988423842145826
Ni 7.867623205836368 3.5873727467582364 11.869854759155404 -1.1842714562445216 -0.011718059767876593 -0.3015677751110162
Ni 6.10402557801149 7.4335748950073395 12.779406372931481 0.4939757659652138 0.5489300107139062 1.877218725214064
Ni 7.788774696634196 8.167646517754534 6.926278461102519 -0.3097022312926925 -0.8821352102245453 0.18955586611738323
Ni 2.3332153644676463 3.915057847668979 8.703133339145475 0.3196860819782817 0.05622385548973543 2.46655413632821
Ni -0.03125809735213095 6.28677356850117 6.366984482864094 1.0147419126503943 0.6840926467923896 -2.1968706115203003
Ni 6.3796322360365725 2.3195085757046243 5.801743541747869 -0.8690696352898387 -2.415276826210473 0.6792201491914367
Ni 6.289329227304738 0.8017919845331101 7.914702485925696 -1.644821595561438 1.1799257776813163 -1.208928078450937
Ni 4.4762731665187205 0.5936951681982542 4.759109213332026 0.9776465504599937 0.42905129737768694 0.5730844964729227
Ni 4.20609958170554 1.1258780191791156 12.038457453957852 -0.1541810861625151 1.221725744436238 -1.3437150763575567
Ni 1.7443842217117227 6.217375481061832 7.753014778720528 2.5881122942493815 1.1495021710841367 0.198135123145962
Ni 6.721713602006264 2.7031515727927746 9.353598146946876 0.25713191339514424 -0.1553411679088873 2.239704418856375
Ni 7.823349634620598 0.06965273401796675 9.259493825570166 1.091964996099616 0.6242689897665378 1.3029414939846204
Ni 7.481829042704927 7.235042493849579 11.064564831547624 1.0982341169377794 -1.3086174613234753 -1.0316913960205394
Ni 4.57272630381022 5.880782346407717 13.221951789631511 -1.4216069037390293 -2.3661502438871507 -1.6486216860338188
Ni 3.267832659156707 3.0050134881667443 13.340422203306268 -0.9287781068940649 -1.3290361341891435 -1.8436640291870698
Ni 0.4261128983137766 1.588121314002905 13.276390080052696 -0.01587681913125653 -0.3017528945386287 0.7642226194757613
P 4.96764913309973 2.837268501876428 7.757253678987885 0.5537258894406527 -0.1851263695911199 -0.716554623975837
Ni 5.7463712407711345 2.9131476664974763 3.770711848258958 -0.6280138015209507 1.0342275321788317 -1.890934017917627
P 8.419599542320693 8.81632420299689 2.5262806782495733 -0.5910973881105757 0.1787101816521309 -0.741284265512033
Ni 7.570789870914023 3.325123542839573 7.377595854890191 1.399004592958481 0.7519728555741307 0.36096540034304286
P 8.388738583315016 6.1220990499820465 12.768386703119118 0.6620279536828664 0.060571590935469884 -0.9023080856279944
P 1.2522452346965536 0.5577605829562847 5.930049564609452 1.421748828633532 -0.5535811363326725 -0.1521332024945509
P 1.661297731543921 4.307305508930294 4.604888994062607 0.7157195296690512 0.5001381860221837 0.42034759895610185
Ni 5.76409537808509 3.1082234931583255 12.87398045749115 -0.4086737621625994 -2.2425349463266344 3.1940583173370154
