# total energy = -381172.0246582073 ev
CRYSTAL
PRIMVEC
9.18208492865712 0.00000000000000 0.00000000000000
0.00000000000000 9.18208492865712 0.00000000000000
0.00000000000000 0.00000000000000 13.43890943245400
PRIMCOORD
 96 1
Ni 4.2634899850799854 5.124989928783764 9.094607283212323 -0.12963476428171866 -0.8448174476106934 -1.2512479222650708
Ni 1.5332245544813372 6.2868817834939925 0.4455845483893193 -0.26734896313746215 -3.130522758677215 0.7972900914536913
Ni 5.326095954608715 6.149756525998339 11.9117389108119 0.9872475638848673 -1.2416319964418616 -0.37193166954655943
Ni -0.00140945004858597 4.830658193881984 6.303923733267124 2.1217370636102557 -1.141517610216763 -0.057713552661384476
Ni 6.471735518856421 8.284077093382816 12.19370054079215 -0.49955068894983 1.2085367565497898 -1.5122110364808472
Ni 3.494655643267605 4.659586768115175 3.7266098018823235 0.5525408679936161 -1.8394363642589677 0.12667208210896894
Ni 8.922158544694453 6.261318858834296 4.239572490053558 0.9627290099182128 -0.8034959631540871 0.3023357636252922
Ni 2.6602153040796748 1.9222878604011076 3.552038165310817 0.19455794731766496 1.3440364642527176 -0.879311367622505
Ni 5.104761795513179 0.665583632324827 8.402826244153811 -1.5314457163407431 0.13562980552288897 0.43335018186335694
Ni 4.834331027884813 8.99747000592248 4.622957594604952 0.28735805926953734 0.9703531021223741 -0.36867588161342313
Ni 2.142152885895512 0.2887324994644661 11.032310027923307 0.6814613798171296 -0.03793251337971531 0.4154745871345167
Ni 0.46488620928269114 2.5033118354787818 2.29343049101257 1.5501808308564011 -0.18695390971816192 1.6285645102726274
Ni 8.167106512477691 3.8450715533925974 4.077203844456453 0.6821648336420574 0.2763126000886532 1.4844531496412887
Ni 1.1951034561808176 7.361378553106883 7.106387461417915 2.6238508853015716 -1.950427802407886 0.5973312848354293
Ni 6.883607123933764 7.1768553728047095 0.6123789589598331 -0.45596869059382117 0.9098211061755879 0.02430335263205492
Ni 8.291303394283384 5.514897986524185 13.397651854085785 1.74413482604148 0.017382714252821674 -0.28041582362374934
Ni 5.111951368073718 6.600321437295495 4.306901964784934 -1.5020240686455164 -0.7643876842987158 -0.2025237391319609
Ni 1.3652199451068912 6.783155113956368 11.671141655580023 0.28837493056982594 0.4430003033586113 -1.249682377550164
Ni 4.5944766033300075 3.279950949547176 1.7572582465689535 -1.4183588291153766 -0.6271625092642489 2.330182053322658
Ni 6.802942507146613 9.269865739742357 9.897475023103425 0.8274581303966395 -1.1529914151843175 1.1082845591952462
Ni 7.973410429253449 2.013989343366763 12.04205565227481 0.04592170223277898 -0.8793432493017048 -0.5735547512411219
Ni 5.269194573819873 7.202776398779682 9.582103458616434 1.9335449106096183 -0.10040209266884643 -0.8123647263986267
Ni 8.761876068810956 7.662798857634126 2.3981328881397426 0.45407301623300506 -0.8626146236931145 -2.3814516501309115
Ni 4.619479420804272 0.7910862066185256 2.1673870919119547 -3.1630502989912754 2.1979548457234146 -0.5187020650673002
P 4.075073600734812 2.6816554725711943 4.834405402773371 1.0486357371843618 0.43756833370976256 0.8200070734352328
Ni 1.9972320382288515 0.6575584900286436 8.167457268124961 0.3046505278013979 0.23828418456102188 -0.2609186341310861
P 3.7292120047733284 7.8692580390182005 3.05146578264813 -1.681495296833388 -0.28304914748153837 -0.33376518577916714
Ni 2.0484405263133074 6.056668548196615 9.424720685178173 -0.1930235129510095 1.3698410840206474 -0.938049762003978
P 7.984070829946663 7.9906084744717 8.64195803861856 0.23877217994103395 -0.43843273859258686 -0.9776144116704775
P 2.7044454075587536 1.9053193673080335 1.166576554480838 0.5095173132442385 -0.1905917635810653 0.5956562111258517
P 3.9789463527957465 9.133273043177114 6.542719463420614 1.0297993212041492 -1.198981765871503 2.7087232577659353
Ni 8.538778949394061 3.607576924684609 8.698092715309311 -0.5952605183493297 -0.8338866596308026 -0.8771097319854959
Ni 4.508247643028569 9.097472093734531 10.79964242130354 0.45900053544160957 2.3667608808879566 -0.9633260200722636
Ni 6.471781429281456 5.91575108959304 7.415617129243674 -1.3575512109097008 -0.7740257216091121 -0.3337685282132768
Ni 3.156277446586887 2.044483047675258 9.697368926335745 0.8565218805318152 -0.16290046831338395 -0.21252867286347268
Ni 3.6661402628597317 2.214700539536409 11.925338496915877 0.7223979701304913 1.1193318181483431 0.27899014692081625
Ni 6.784036594117047 0.9529810566292644 3.062109655588331 0.5815105157530888 -0.044834125595555045 -1.0655322558293843
Ni 7.117787019954199 3.319121724187357 2.1709350495586883 -0.7900668342323749 -0.7217058291594731 -1.2551601128352834
Ni 7.5351311476957585 1.2298576479325956 7.899901411312311 0.10149892527745101 -0.6338399212844246 -1.1573113827159098
Ni 2.0315546719852966 3.32661430555313 5.752269575293078 1.3500970686245006 2.1032099513403453 -2.166501769420456
Ni 1.57716083124019 0.11228220830051255 2.788601053065595 -0.6357417662928276 -0.387964554639706 0.031336862440068614
Ni 8.849216061398252 3.2980121107560922 0.41665179853202694 0.07205285210219203 -0.02976977506326486 -2.089912205790175
Ni 7.443466393070132 0.8682790770645021 5.335341396002338 0.8246990795942635 -0.45529506156556426 1.0317142788386746
Ni 0.6977778587766323 2.368840200550173 7.094386476313669 -1.9038448124420242 -1.3196834893296499 1.795339373939753
Ni 1.7979348831502946 8.32841738188198 0.756927932183707 0.16641722321739083 2.3959092203171384 -0.7578264861414303
Ni 4.980638370387542 4.6031169453216645 5.716401596629941 0.12723258259812928 -0.7509462140818293 0.557557090261285
Ni 0.8394601850612974 8.359517103800941 9.545375118588135 -0.5445856177022815 -2.519328342706448 -1.3634773465861485
Ni 9.068621982642302 8.978362087022758 11.5444399009844 -0.7970370949026209 0.8492528576742276 1.3079086081819087
Ni 1.1551154759750073 1.4001485964738034 13.105315386256043 0.5912007464576592 -0.9016020606999052 1.3069979234421814
Ni 2.3716682827323514 4.338360706227673 1.674192514552452 -1.1598449477710413 -1.808317531366976 -0.7124722263763472
Ni 3.87776895810279 0.28771604265418294 13.004926732665192 -0.4853594850511124 -0.7303483353258196 2.16020359511657
Ni 5.70123921965776 8.164774262885894 2.2707727780491123 1.1017161619491092 -2.304459708855889 0.63970512181595
Ni 9.180064948373166 9.110161735214307 6.798031928084829 -0.6981730361448557 1.1602761217711888 -0.4023550190334232
Ni 8.477488531971838 0.9259857267084647 1.1706286085944602 -0.42324806043234847 -1.2167491171572529 -0.2004259760626677
Ni 6.268793076030056 2.589650980800305 4.569847496715531 -0.8645781751773884 2.208280653129455 -2.9622970214961755
Ni 3.366538011163891 2.562306731649237 7.3870865547096916 1.2061289184392454 0.0426214342149524 0.46965801515545574
P 6.8559047734674206 5.451752787930532 4.872720407090893 0.9648509413572223 0.24446820188454674 0.531732158778381
Ni 7.073951746130423 7.864712906939698 4.440632605453472 0.31920117192206315 -0.16959099295968214 -0.018551794860258368
P 8.66552845083172 -0.0001588500706223927 3.7119744765895466 1.043803605903041 1.7230967744242582 0.6979246675794755
Ni 8.976167568706067 5.912840368645797 8.525455744048797 -0.5755111036365443 0.7176332017519964 0.9830795485501068
P 1.229187355727079 4.525969067092223 12.569694066912849 -0.2398232469133676 -0.015696584799650387 0.46145902428443103
P 3.7337938651918585 7.220966109178697 11.032484487538442 -2.823592690813021 -1.2203041814983628 0.3580878216849317
P 5.82889774751112 1.5183771230248977 11.744397247974964 0.16543171937566992 -0.5171928275116254 -0.7347948011329474
Ni 1.9319841421685786 6.3735514838757705 2.86043158586744 0.28500575698727687 0.9555142373373288 0.1917922116470697
Ni 9.047291999170866 4.839509723828804 2.1712977419164674 1.3020338945686867 1.050939959837506 0.06427732192183123
Ni 1.4656168625742463 2.6308326320570354 11.303157662210992 -2.0591420144868535 -0.6218858342463418 -0.7941073228503357
Ni 1.7427872805978037 3.708139119682092 8.86558129150636 -0.563595583145881 -0.3493213883462113 -0.360461721233747
Ni 3.263074277304173 7.977478092911584 8.598684708397219 -0.10280581701433263 0.5721954089997501 0.3227940314796441
Ni 4.327617666769395 5.6264603193601435 1.8023193287411727 1.0262175173901615 -0.169508717658521 1.3521824903986195
Ni 6.273411664788614 8.49013226302658 6.809763878098369 -0.1502241583972961 -0.6569860203835846 0.1694781215309017
Ni 8.016364222916545 6.922392251003648 11.05780316873695 -0.13232490951937212 -1.2244266883071686 -0.9606381888274552
Ni 4.163194070547708 6.554126367624902 7.012665001542203 0.27516845918188093 0.5415704850250416 -0.11302363808759891
Ni 9.235249279265686 1.2901013076640127 9.509090273265677 -0.059912360084916176 1.3831892231927791 0.7051612945372308
Ni 2.6124592799578794 5.856379727937294 5.384393012318632 -1.2510939131857097 0.5892107126108239 0.292933753585102
Ni 0.4182458084892551 1.8245537475858042 4.743101504088522 -0.8110593773236419 -0.5434813288945092 -0.6752747913904436
Ni 7.088486986696623 4.207763911172049 11.998822723227498 -1.244330112099315 0.3686951648871328 -0.41980766729223185
Ni 6.732506733057344 5.129883980092535 9.532420114851654 0.6976385037976243 -0.4092486608294629 1.3659918854778863
Ni 5.774604078864287 2.87267038697337 0.019636806996130005 1.0677068948831998 0.23356621026006225 -1.2094384424284526
Ni 5.245109964846316 3.6961564987478592 10.64547062299225 -2.1313982408491037 0.04403348407113061 1.5549214308651802
Ni 5.589438152611618 1.9354090598762173 6.471224994930028 -1.5690568418252977 -0.803655628660403 1.7951059177727084
Ni 4.316663439355954 7.150925164744732 0.3573033920887994 -0.49785118976022 2.201216804304138 -1.6366997377852521
Ni 2.3200190545675565 0.8697215826191136 5.770116793921329 -0.2710786053832235 0.20489583890856322 -0.17572461666124575
Ni 8.939411682422746 4.335532624045493 10.796201894051388 1.3253802826041108 0.972472462458222 0.11805220165044186
Ni 7.65255165076623 3.1472698211949464 6.5033843294588065 -0.6223013245172057 0.03689944412951064 -0.43681422915255735
Ni 3.8881722604158058 4.370718373792604 13.133442867258214 -0.34203205377364965 0.5991236008491617 -0.40807726622918106
Ni 1.7214572971263693 7.954816707114124 4.780434943518787 -0.39496489721693917 0.3643751973555402 -0.013905040116866375
Ni 6.636967138558731 2.3536989423735064 9.585100491162743 0.21041856849900537 1.0648048907450565 0.5416908126529897
Ni 8.239286882718305 6.776718472366408 6.454560428850687 -0.650106519654932 2.7230430168227167 -0.7061658245423451
P 2.2515666108398142 5.106093197839204 7.333343811163283 0.17625503524341904 0.6740550600507295 0.4243376939521014
Ni 2.5820023039894124 4.469269692173537 10.877762682335229 2.1602776428876145 0.5516502378585467 1.4269218881940393
P 1.2791287160805584 4.274664582533595 3.956025113992586 -0.8166818657167418 0.6536798388284872 -1.1265620173481954
Ni 6.223920226600481 0.6473544389602816 0.42827907277648564 0.3727086569219001 -0.2232661138856348 0.6968188361098063
P 5.853395550309996 3.718349598209959 7.856789685787094 0.12672273284124627 0.2654594594242332 0.8162275517881428
P 8.844882117274912 7.594676968966639 13.233818665930054 1.1706464092619193 1.2844485773867556 -0.17307175241943096
P 6.183519052569352 5.076811528751643 0.48201447065488834 -0.9789303022684237 -0.7325913657237254 0.3468356458098801
Ni 6.936798942379749 5.913106649111001 2.4975537499708453 -0.5336448024200615 -0.8870951253329818 1.2834129370333898
