# total energy = -340855.7059583779 ev
CRYSTAL
PRIMVEC
9.40045790587262 0.00000000000000 0.00000000000000

0.00000000000000 9.40045790587262 0.00000000000000

0.00000000000000 0.00000000000000 13.75852035808984

PRIMCOORD
 96 1
Ni 3.51955964653188 6.44000930892162 5.828494480508565 0.5123439840597563 -0.014867661140451814 0.18335025152730358
Ni 2.5804444998899427 6.801635524636866 0.46855078427776253 -0.4639303686430591 0.8194607140134598 -0.36282276526675583
Ni 4.680544400995992 8.67086017923361 13.381812241462649 0.43397316015933646 -0.3273356281037395 -0.864089665576744
Ni 0.24975700628693392 5.053225555224875 7.204855946509672 -0.09282993674854335 2.1628502887107977 -1.88772476695171
Ni 4.963394779343648 5.125317667011514 8.672518420010656 -0.09358172731290336 0.6697829150379369 -0.10702371175042213
Ni 3.227224206143186 0.9860798344090583 8.771552244195327 -0.913764149983736 -0.5327893963983018 0.07288177576139061
Ni 3.953682193724314 0.8380057013485837 2.59496726733018 2.2914535264042084 -0.1686327428114709 2.4671966550082156
Ni 1.862070906119808 3.5167301086980327 7.905219202951339 -0.9354616895618276 -0.8512855718335403 0.3450315027216058
Ni 0.2562969048617109 0.6190069933751042 0.59050856514556 0.216474287774782 -0.3843102457165704 -0.7310250496778701
Ni 8.474578617869023 7.0797104703612845 11.474247819240164 -2.9930700410129742 0.39665514043516853 -1.888517952276967
Ni 1.5609178362023786 9.117184520805893 7.1570442774839815 0.2221299433986626 0.15857715834768174 0.9260344827106568
Ni 2.876323912914387 9.245359764541819 1.0759077901529084 -2.407314633940602 -1.0613917512984492 -2.875328685734732
Ni 7.360774761704187 6.191799618008279 7.395507573626116 -0.41864038645700813 -0.9341617398034815 0.7486653884674526
Ni 1.925382990209391 5.419805812263833 4.232960398062462 0.5038328612649515 3.553548418686112 0.6404044618758197
Ni 7.887181604294904 1.10622708708151 8.131808780695025 0.8260661351451194 0.16817045846307166 0.4458837955539934
Ni 7.563373430790853 4.928227666265827 12.548981492198893 -0.6394487828307697 0.2283684681092067 -1.7966894602097445
Ni 2.146359554529188 8.48134694757125 12.634242705485326 -0.916281517088951 1.3225037323872642 0.48055615012519814
Ni 6.656586458934969 3.225419318222592 8.234914883250536 0.20209513623497452 0.3932669406892259 0.12027980542937994
Ni 8.090814323752744 6.225754072014452 5.164026872633501 1.1656792950646313 0.5418368513125507 0.23819239617816398
Ni 9.1865975020854 4.622928994405783 10.769660937055148 0.11878188072761478 1.1121378715030652 1.8825190543810548
Ni 2.636978853819379 2.679036502552385 2.72028007162954 -1.1866358427116401 1.8229147124548604 0.420277922060431
Ni 5.6727815353424935 3.292811201049351 12.693211778015979 -1.567401565610062 0.004462406646727798 -2.029202032394312
Ni 4.003448217951523 4.320516263127106 4.032127134973127 0.6936396670508763 0.2133581107433035 1.248191137716618
Ni 9.34357574888747 7.939560955823806 8.57864356713235 -0.5217801897719917 0.8322684073010892 -0.459883452267195
P 2.6890479902369293 8.0102523993804 2.7648711437719213 -0.6750469916503536 -0.734342029866245 0.9015346977970795
P 6.061387065287449 7.638436087280136 11.756366841961663 -0.6539148376574286 -0.13331761244994458 0.10582840589074033
P 3.4690885879606888 1.9605313023713735 0.7501856834163944 0.6143293620553226 1.2588203352956902 1.494177318907588
P 5.812481740488045 8.952751710873452 2.0941296702812098 0.3323991586695759 0.31170486354501803 -0.041632845049437976
P 8.30669583988003 6.735136685312484 2.3412319872516036 -1.9409337468745218 -0.12620696954709235 1.1469488085346635
P 2.3963083301576846 1.2718443547118408 5.250980168345489 -3.083875234022005 -1.5746765020049205 -0.28970624778673976
P 0.938395071565284 1.7544074615647973 8.775390451163965 -0.21006529892464468 -1.1387457038985809 0.06469358352364342
P 3.2886091963592183 4.570681249287758 6.9289562667478855 1.5558881656538237 0.5497890162800918 -1.0889519203049054
Ni 7.524831553319838 1.5248388787063398 12.38067381351193 0.8418755913735502 0.7168677843408815 0.15200310467458983
Ni 2.239245479234336 5.617939263838614 9.973675282607893 -0.4475861229570808 -0.6905882818190622 3.003123054373602
Ni 1.5948064870031131 4.236457368408613 0.6516472633640947 -3.912122950199475 -0.3661649422661113 0.8710555553716159
Ni 0.8394928537914897 6.415464713293128 12.426007521829971 2.1620061955429475 -1.9664845987604325 1.395337685629855
Ni 2.4677048080582615 3.1535434169681076 10.20978564413271 0.5183027727463525 0.6572135630133584 0.8471432675303926
Ni 8.968760690710802 3.7480847785612443 8.82798977340819 -0.962471385381452 -3.0771101473840297 -0.858136790427419
Ni 1.2763847758870848 3.7471165313955095 5.3737069066711225 0.5231680712584539 -1.7102811107168288 3.419082294454021
Ni 8.184358280512274 1.9686720989298856 4.569755304182661 0.4719115870763227 -1.782182781953137 -1.8315649319306908
Ni 3.676678900202748 7.025798844191461 11.74311689652376 0.26483236736319554 -0.33764446622891525 -1.140973821898151
Ni 2.254634028848983 8.425019403716048 5.080429540398868 0.8116574159189569 0.36824007962758515 -1.6858636011044128
Ni 6.241753651393883 4.784071644066309 0.859179292767051 0.42209234956135044 0.008289493702301852 1.2391719649371433
Ni 5.517702181040213 4.564768361256228 6.25800798318294 -0.6660352750700466 0.010447677695885232 -0.23845773402440867
Ni 4.37949473611568 9.046521278623057 5.51956065157095 0.7826497158326973 1.764051362459749 0.8315950353831485
Ni 6.774628009033395 8.53457234031293 7.350572444723871 2.959614075347374 0.5093365646920003 -1.305179896396836
Ni 6.7723436977588936 7.379669682122904 9.48037685281057 -0.1384335935202713 0.46201489678790103 0.059945270205380624
Ni 6.222962136012283 2.2050842151539283 5.9094907060368005 1.2105540440901346 -0.6761939607706031 2.57622916965855
Ni 4.261970211202841 2.9295869074877467 8.106052466040675 0.23777150659066149 0.4887248019789196 -1.1413047228750086
Ni 7.866171580844241 3.842869595766184 5.752615864271847 0.6649641534930547 1.4355893340610502 0.9511428477425103
Ni 6.822936962283042 5.222668809228547 10.225896148915595 0.16585620850759822 -1.232849108042909 -0.16307298933550624
Ni 1.3444440912261468 0.7645505231635796 2.9539406738204685 -0.5337723291368615 -0.8740107813451979 0.7366411103130668
Ni 5.568436452433159 1.4075305643256557 0.4434562618609634 -0.28124243329010273 -0.27082560883215295 0.669593167624634
Ni 8.076253014435034 9.055150898993396 2.4158453018523223 0.16646941661156495 0.6339044559737729 0.14063960003265455
Ni 7.2994461742356735 9.166706133127187 0.07876831700125247 0.49470955880744477 -0.0013187188114235353 -0.3453127814074504
Ni 6.835458372232162 8.319038641128675 4.408835445374835 1.2416265971252232 -1.8577310488030974 1.1489324146235955
P 1.2589281255300906 3.887625175922161 12.09179962172929 2.7753708796921557 1.7045956302962775 -1.346982691365235
P 7.699078441320507 2.42037350243227 10.448165276199358 -0.7133744264756423 0.5008292985519375 -1.662097094812434
P 9.310166521440644 8.841751103756927 12.306377294343106 0.4335265595402212 0.7642537298240129 0.5661481743644056
P 8.296223729757418 -0.1306052621081847 5.814226465477953 0.4418679895263809 1.2325842844172965 -0.3426573460624744
P 4.206197294364905 1.7124626183268286 11.825544811793177 -0.7256607000421631 -0.8525698378626027 0.279315391470719
P 4.918893011551505 5.610776114903756 2.2758245410917057 3.028925874369319 1.1625541191720883 0.3130912023695834
P 7.211110071163688 2.947616985777846 0.26495378656001783 1.8824257233363 -0.12113675411303652 1.1432903858464698
P 4.152605283764355 4.7309684572775845 10.664160537867476 0.651549936969678 0.3642031905540502 0.6420497107887265
Ni 4.717704411152804 8.375187576283402 7.678533740536872 -3.514482305922586 -2.147752513837411 1.6427338597944743
Ni 6.56690609038046 5.277182064705235 3.744312374798045 -0.8886287883686891 0.512145237785389 -0.4132631813054948
Ni 4.65989159494628 7.482661099091794 3.9769690080831435 -0.22933443156690178 -1.4129440858577085 -2.359549193630865
Ni 1.7821764142597682 1.0964318099291201 10.96862256897266 -0.6320278077763503 -1.7049578987317024 -2.341799840067244
Ni 6.344613461951897 7.265942942209649 0.7318444499691508 -0.24089719670383675 -1.5461249156194727 0.9777499088070775
Ni 5.193677797004008 5.584323226317553 12.867036585456052 0.18662429429288505 2.211257990590224 -2.574887310918675
Ni 3.4491972190024773 4.551071894067138 13.798695288876035 4.075699104423645 -0.8202042770477035 -1.1581796442534764
Ni 5.9072289558613065 0.8264121165961438 3.9990516237824516 0.3587120855324919 1.3586323597890215 -1.4375724259293499
Ni 0.25153275278797654 7.8994492018801905 4.141727073859608 -1.5598507498459975 0.122369340968557 -1.1631968949624096
Ni 3.0121699303128375 5.469346225500969 2.199354636051835 -2.1666195259452428 -0.31947345174684333 0.27251173828532427
Ni 8.1638182799576 3.8113780617349877 2.7005221891737885 -0.5815261994823726 -0.69345480473358 0.4937590219687174
Ni 2.104668523655053 1.598021443611671 13.01455609149926 0.7150808676437878 0.3121789749679591 0.7182291834647824
Ni 4.888933752161231 3.295809947125754 2.125843055119312 -0.022013271046297574 -0.8240426769571872 -1.0068121162803565
Ni 9.254130391780956 7.705057132557474 0.714295675124543 0.9443548782863994 -0.7987504780493018 -1.072889467525404
Ni 5.347234277123286 2.1369872979831874 10.088889174964054 1.1307176913877817 0.547937822003966 -0.22232971811429453
Ni 2.3960545177938513 6.271007876440176 8.001556035758831 -0.18048578549531497 1.8039440848896287 -2.1812452462782175
Ni 4.6161230628718775 -0.11046102083193114 10.383871784302954 0.19102293758121294 -0.8823002750475 1.1832293881332525
Ni 8.54247812542345 4.88346268565193 0.6712312373483306 1.757796896909605 0.7302521760675875 0.836922618243649
Ni 0.6737402195671146 5.631363117748031 2.3247088023660414 -0.18303889093447187 0.44169726827647154 -0.39243081794117574
Ni 6.987115959851649 9.41568666158995 10.740740428265008 0.48960926146640193 -0.002251515038338058 -0.3668146600349682
Ni 9.55932565860388 2.8038839841847167 13.269418486482417 -3.621211369250725 -1.2406056120598763 1.4766930460798955
Ni 0.49769220382901835 1.7903172108182803 6.298912195729192 -0.47041031994044796 -0.8743383398879457 1.1583663063429857
Ni 4.181652698736412 2.0863094293377613 5.157353487556263 0.033620259157606615 1.3067819507766334 -0.9858213729613021
Ni 1.403281557345924 7.879567233379898 10.474498778969982 0.2247990055903935 0.22993504126537817 -0.5350018306685882
P 0.7648118558937489 3.7643945730520283 3.464491764037927 -0.20096925016064746 -0.8206292804002641 -2.363457784656652
P 6.061293060708252 3.1405519841229994 3.933286020175811 0.5076612338721064 -0.38121823705480795 0.922803891588501
P 3.258161113157116 8.0533534989425 9.268812026960036 -1.5206411695260715 -0.5627147232028243 0.3665110127516204
P 8.873393045114838 6.025975540303714 9.075271639124852 -0.9356900035225499 -0.7269447089609093 0.8528909686474474
P 1.0099475970673288 6.872411572314738 5.86118457292453 -0.01748401571737634 -1.4099307529526814 1.143244877320515
P 8.832303643547567 1.7989374307307002 2.1373313547430506 0.3146886287636903 -0.6586664934098011 0.9224274820856888
P 5.232501688212616 0.9682941680248724 7.59621675067091 0.8489684936645895 1.5872198858875697 -0.26870804826851785
P 5.8025172550931 6.693069636121558 5.876332470816432 0.4378174736060912 1.1579307614674639 -0.5580880230640904
