# total energy = -340885.8258906009 ev
CRYSTAL
PRIMVEC
9.09893611045835 0.00000000000000 0.00000000000000

0.00000000000000 9.09893611045835 0.00000000000000

0.00000000000000 0.00000000000000 13.31721273221081

PRIMCOORD
 96 1
Ni 8.849679670869678 7.702167367129284 11.575454274129578 1.337267263849684 0.5354967680271359 0.6892358815562258
Ni 4.9223423548148775 5.703040155815786 11.70772095615251 -0.08231258215698728 -1.1727482860962706 -1.4897511648154345
Ni 1.9984720879271507 2.8666652567492346 8.260960318876569 1.1258019992537194 -0.580283071103891 1.8939784611709058
Ni 2.440434702442332 2.714349069423269 12.708602087730696 -0.29680686338726303 0.3834977771176041 1.390656735214418
Ni 3.203589754986582 7.271642115067432 7.907254653119193 0.14838633385760897 -1.469162027810173 2.5570592815983186
Ni 8.222908568852842 4.837640360321602 6.08644565831454 -0.5221254889265524 0.71888018678522 -1.1216036449016553
Ni 4.843991417594812 5.746924323765196 6.940784787302543 -0.23677186168155356 -0.12388526339245115 0.07177311607824413
Ni 3.16296300609707 6.893035391373679 12.641070695214887 -1.5349491015083112 2.541292505682365 -0.9813124293473552
Ni 1.7922265073944346 6.374905584259592 10.234477665145404 -0.03434222492529569 0.9831525678798875 -0.10153157828759932
Ni 5.163036506746405 0.6685525058747872 1.979137758987548 1.051969429543285 0.005375148268984291 -0.36008376906903794
Ni 2.4925443084647823 1.578692679188594 6.0948485256380485 0.2819782830148627 -0.7264500287126779 -0.17823118513318337
Ni 3.6106397523709557 5.143182628565684 0.4884163219688249 -0.31348715225642143 -2.5385254844601897 1.6577514162492288
Ni 0.20653492669502005 1.4848826498378946 7.5491951465233775 0.19419747865445264 -1.5150505628121715 0.30782866841906337
Ni 8.50561250793395 5.037061738913191 1.9774863021177955 -2.2687134044942154 1.9271948000218744 0.21483135285472033
Ni 5.728981222127991 8.34672688887266 4.094869653922297 0.7851447143404091 1.9276686543344992 -1.2473167055314647
Ni 1.7529645988931475 8.574473254987888 0.4609702916552022 -1.8074150741573647 0.10608654464813341 0.3396098174854022
Ni 6.333232457739107 1.733301798366779 3.9987193782525865 -0.23972914453766456 0.1383366629310908 -0.14717945803370136
Ni 4.379881993046691 3.240149279519182 7.074915841295792 -0.1967043042367064 -0.7348721913381021 0.027774856120423134
Ni 3.626144339181197 0.3826448314557172 3.9638413370782803 -0.006159591843492618 0.9991229751662147 -0.6014759031314222
Ni 6.9078120633102 6.2107061866201425 12.652976652868176 3.130870114714305 -0.5079106308787511 0.9970254692072378
Ni 5.981130934384692 4.170315300902626 0.6095950406778142 -0.790067091342691 0.07988751765526242 0.318422898995142
Ni 0.8527613734992145 5.4981230199276085 12.931546035466555 1.063381785145285 -0.9144094968772187 -0.9652180948886537
Ni 3.9527688419554026 7.725724512230055 1.9709605452748933 -0.6475678123934784 0.7467401464202817 -0.7752757919661293
Ni 6.3214948304003675 1.8781113635575046 13.069126496067646 1.3205967451725387 -0.9696581329378786 -1.7824455486962205
P 4.816767401317674 6.505648194515674 9.562238270435223 -0.3040018384738055 0.8720994232550981 -0.8897744719373579
P 2.7973131671555365 4.9850886169295645 11.64394469449151 -0.35020687627495817 -1.1830542960079689 0.553256406003402
P 0.33158069317064826 1.9620217506256081 0.5232679762289592 0.8065985133388108 0.30109700612218465 0.3061674786665566
P 6.385942593532375 4.119798008666439 7.112616372392949 0.8061521698300117 0.11375228872350732 0.4697870845341522
P 4.431136299092519 2.222560681801935 0.32425059039228515 -2.3152208040271356 0.33871018848926826 0.8940450742882539
P 2.1235096653604497 8.51456586088071 11.652161033628628 -0.6151066065409794 0.6966226609386003 -0.797363367893788
P 2.663640699532731 4.74853448084232 2.671818823138978 1.2988760656659952 0.4434268493730686 0.3703653535007041
P 7.419008481252099 0.3432919335952152 11.571192332543946 1.5128967496939623 1.5533337746630862 -1.8159493368806208
Ni 8.246720484159416 3.8292871825646806 -0.1544053030135431 1.0057026852662614 -0.977843239851832 -0.07206493628705009
Ni 1.6239598853980732 6.465394501998943 1.634634757021181 0.7824154883347041 -0.2341490793467258 1.1343704576490206
Ni 4.398871472314869 2.875272850130977 2.465162880596202 1.128774965839114 1.96320798489169 -0.14631865269530284
Ni 1.1177769811489209 3.485738658976479 6.306299607411456 -1.0413579725760258 1.245703595408074 -1.5642200825582868
Ni 1.0505085478812466 3.669127712474379 1.6963728570357655 1.1239685455894062 -1.410349842767971 -0.5023961288184251
Ni 7.378418128106274 2.2939873287857364 1.7302254481317185 1.1009988241671103 -0.9334243474168247 0.4793158499601939
Ni 1.2337247215966378 8.529797479613306 4.9542559626659575 0.7350683665093083 0.4074105791794596 0.06701991766397489
Ni 2.6095293276075506 1.4059220839110886 1.6043644169975235 -0.12459720185781122 0.23455248543273152 0.10049593793423339
Ni 1.1708965690586572 9.088599530296513 9.433154396197633 0.42844837368636535 -0.3313246946584746 0.5417003257346864
Ni 2.938929005837814 1.364494628660484 10.6753838932001 -0.4151264597664786 0.1307580792528845 -0.3127878121965516
Ni 6.698145282870998 7.302469309969486 6.1613544680755 0.3525149555828445 0.9189801469670366 -0.5061617665084444
Ni 6.4571963607336675 1.7052588778567055 8.495835701286294 -0.7805426967920235 0.7238357310182825 -0.21704095891152944
Ni 1.554198343687907 3.4108453174065847 10.678686806939604 0.25697841853641545 1.373927081164563 0.4424572863709477
Ni 3.261085931074562 4.794602393412892 5.038794176312646 0.8402298282400109 -0.6686865966499645 0.06712224756979408
Ni 6.205319616554613 4.937810545881433 9.685701731954103 -0.5126933969793751 -2.1824135555547057 1.1037686736027637
Ni 8.148479273014944 0.09294472054456447 4.735268232268768 -1.2228865975135585 0.34511274958150245 0.7273776827332699
Ni 0.5573407615742128 1.0883601213147005 11.839774723074882 0.0009759907600241256 0.17722922623123025 -0.8040099266760282
Ni 6.5578305920254945 7.220224028175017 1.8089567208733026 1.3736987672038405 0.21939043298031247 -0.3445195960821938
Ni 6.905009591046377 6.085668609186843 3.919442169355712 1.007494744169678 -0.6406440886904515 0.2688044646370661
Ni 8.36736327554263 9.090819670661359 0.5370555938308131 -0.6075660751895601 0.6342649246369851 0.6219177159255418
Ni 5.071055363515928 0.643826147508102 6.010311221884953 2.30893188569463 2.0370618947583625 0.5215171659185922
Ni 3.5086679774986673 8.293197848846455 5.9638602441120865 -0.8044806956648597 -1.232478869187684 0.2632303129833983
Ni 2.372611234083447 2.73675064966201 3.6923036121600403 -1.4832372749563163 0.1352675370874638 0.5333100447884621
Ni 7.413176063326416 2.472053504769556 10.851557490512246 0.5724581757428335 -1.990518499781185 -1.1932862581486223
P 6.554136424041365 3.944370524099855 2.7941913222408687 -0.051199662802266656 1.1422470321836198 -0.10651720442764881
P 4.716760996604431 2.389198594268347 9.486223030066208 -1.6349529302974746 -0.019994440844055886 -0.4556509022430863
P 8.934818414287184 6.7586532067489955 5.011120672600986 -0.9115180342620366 -0.14873189012248578 -0.17134705641884038
P 5.117869388832062 6.859323833784508 0.3376888088547535 -1.550076444068053 -1.0036208630365684 -0.27555978108302864
P 8.828288072518223 7.002331809662776 0.5249603783103588 -0.5484589846147587 -0.5576540208504653 0.8380135373149825
P 1.8274757851543384 8.834457151073003 7.375058800964054 0.28158696111371506 0.6243139840718602 -0.8417426653401117
P 2.070626649784672 8.618330126129534 2.8236482173931434 -1.450602776750747 -0.259512754922495 -1.0826845992389547
P 4.965607795121625 6.69325005534523 4.852739134589745 -0.5876060871278654 -3.341062940355749 1.5518669603095725
Ni 7.16450214459173 6.043067391202365 8.083308144477176 0.35289522174039867 0.8129421961686515 -0.8375368547888802
Ni 5.62820140786142 8.275436725927682 8.359041388748823 0.05478789437415726 -0.6386003187875454 -0.33580252792417004
Ni 8.835276055305938 7.484639106053904 2.8650247186025877 0.3611980851791392 0.6869727965536622 0.053900606673197494
Ni 0.9390283849709877 5.047216151401589 4.091979831873627 0.3825271856742186 0.7278947315790044 -0.14757257970706197
Ni 3.0481526326395403 7.029947080184538 4.047460558196896 -1.1464453865356836 -1.2587905104990191 -0.5951923841155556
Ni 1.742346140672753 6.350993580657881 6.238608073623433 0.5371651568684942 -0.2712845507464424 -0.8961173834362502
Ni 4.832281087063837 5.7110290215548645 2.5651210609490613 -0.07254573257821055 -2.0713064177635294 0.9888784146200712
Ni 7.844720396211477 9.133966824801128 9.394920667455475 0.7202235881869918 0.7300318325266654 -0.4731511159103786
Ni 5.97555328666481 3.987399392072644 4.902705031309089 -1.1121504699085556 -0.0679964226446313 0.3959051496430214
Ni 4.547793756542113 3.044540355078704 11.540523459126927 0.6947622106910938 1.053696953757353 -0.08320886871901154
Ni 3.620211832960377 8.185138885842681 10.204513959262302 -0.10663110429769376 -0.734088261984226 -0.40533184227355995
Ni 3.871670026087043 0.6830807768606517 8.166234936572167 -1.0444746638281368 1.066295359247654 0.4127924123166633
Ni 8.467760934500497 3.3090100265731195 3.8751094238653714 -0.7936075003957815 0.2194667947442027 0.13721823305593145
Ni 9.047199371853672 7.5695958707529805 7.1149074844579845 -0.9413942529961786 2.073456888447629 0.43159283285261796
Ni 7.532635993039834 2.3188183249155188 6.351537697025988 -0.48887212619006126 0.6983522420351973 -1.9027726624237682
Ni 3.9684736053559173 0.061106633861632134 0.012137070625693306 0.45929235565041543 0.3715886843848439 -1.4903371192258914
Ni 0.35952898474713796 1.1679212170123257 2.770140104919559 -0.0011395129210819085 -0.5212525994032958 -0.330285968981315
Ni 5.268047326216474 0.5845857054039701 10.646152651658676 1.7629442454384991 0.5038943106305064 0.22393280093535625
Ni 6.246028255867419 8.48400253512038 12.779756676530445 -1.9991826032140858 -0.5325610824375796 1.8907445276146404
Ni 8.005043647148366 3.6004125483951857 8.590214414132088 0.2442843680085148 0.19927797850115359 -0.1308318699136134
Ni 6.81170000317136 7.347272470446967 10.397120234848684 -1.422320384866286 -0.9227604399450753 0.2932335442137079
Ni 3.514509494360273 4.58021326523043 9.478592662402436 0.6839440370296673 -0.07414213053105295 -0.008986776879642588
Ni 0.39874721835600163 5.384067858151564 7.9891423467319465 1.5195628488602282 -0.46431140613156163 1.3132284777329255
Ni 8.864019593881967 5.286336187418696 10.808170124464151 -1.664617804351759 -0.910403203931303 -0.58705921348546
P 7.13926169634548 0.30826194019101955 6.993254711187484 0.25476084205980637 -1.635769769771815 -0.44300056046892733
P 2.644077987301499 4.748088632982166 7.429952681378484 0.18045570358832794 0.763416321524382 -0.5389397322704138
P 7.182135882407604 0.008149916904890543 2.658781867750648 1.0634807726169944 1.6522595398967221 0.00037460973059935486
P 0.5864719148204978 1.8946532290627975 4.908218076583927 -0.143777631441004 -1.114000635743417 0.503549525696578
P 8.752139077791162 7.037435504447936 9.360988005723412 0.7313348676088051 -0.4643818543581809 0.0929381801916335
P 0.24271320581250946 2.254643529861156 9.655751674474883 -0.39615171843618874 -1.7848302468783133 -0.694318695395772
P 4.214326853954938 2.36191998437568 4.6979798829688555 0.9801760017500667 0.4260101965585179 1.5333601597546367
P 6.910132291970183 4.259630455908103 11.603926664415146 -1.5262577443819005 2.124303795896167 1.15775901177629
