# total energy = -340853.89288849727 ev
CRYSTAL
PRIMVEC
9.36770742475535 0.00000000000000 0.00000000000000
0.00000000000000 9.36770742475535 0.00000000000000
0.00000000000000 0.00000000000000 13.71058671850590
PRIMCOORD
 96 1
Ni 9.103453491556811 5.204407689359879 11.71509249087051 -0.5445640204357267 -1.0594161156293174 0.6007325972074945
Ni 7.756676971117602 7.188103986113584 12.281874370268916 0.46670536028503495 -0.5177965225338953 1.0142027523174726
Ni 2.0148626584162526 8.06767548053598 4.499197327977763 0.048896982811019014 -0.7937090589706524 -1.2548220127695744
Ni 3.3744167313976066 4.312245996538184 4.157790304404651 -0.6431082339602279 -3.024267292551385 -2.527273051474822
Ni 6.32166601710474 4.715338434872856 1.1438307658248084 -0.715083181636633 -2.725159291834771 -0.46573014085595926
Ni 8.114176778790531 0.6837779842111684 2.5458636436137945 -0.28468616886432907 -0.3900353211258057 -0.9423800139482157
Ni 4.244704828041949 0.27017685200422464 11.744090228329608 -0.1015482904581477 1.5823954679157328 2.0263326812663167
Ni 4.011823628483503 4.845727550587016 1.6302845564776909 -1.049828214830566 0.08379328046757181 -0.05056408610079679
Ni 5.264576472335097 1.7673209971800516 13.585477002030531 0.09483771120719152 -1.3380658484915795 -0.24094836165674635
Ni 3.6096117546202096 2.3825264283386143 7.8319530554012635 0.32993784161327694 -1.1036933402801379 -0.45854776417490706
Ni 5.004912998056715 9.10115840330694 9.430703099325711 -0.4301681845909495 -0.3617583285579834 0.42223401734553734
Ni 7.050970121256943 6.002227203551119 4.332230126184927 -0.9436033448323556 2.087579186781624 0.6102515924415233
Ni 7.544507772050858 3.8281884653723113 10.562799875184032 0.860442298632144 1.9961666992058975 0.4084277075900643
Ni 7.4251163445218 8.045661368751492 6.440917865797378 -1.0086651103286952 -2.437771921989195 -0.8910733932544395
Ni 3.2229690100274775 9.035312789803466 2.4224141253506764 0.049746218185191746 -0.6463061720722353 1.482518394512421
Ni 2.5089811070529935 5.266524955420702 12.913000219715878 1.1303135139708276 0.7836339341228375 -2.2628510321761675
Ni 8.1260081929113 2.325336576234659 12.71094720759214 -0.20656474197055394 1.1561284181514022 -0.43222635267155884
Ni 5.762488842364483 0.24956040212537392 2.2538010174129326 -1.6145041755248195 1.2214514077289285 -0.25764819090993046
Ni 0.5803388251747917 5.016631999691775 6.833658050969056 -1.1305014616119176 0.5665178989989985 -2.2333789908589794
Ni 5.7738518711281355 8.002298252389624 4.001517277085506 -0.3636141508197996 0.7734148274979906 1.1753651548938273
Ni 5.028716341905388 6.542509712985287 13.557192147084967 0.7326019072466866 0.4098402716668748 -2.1113603483616217
Ni 7.078267619869706 9.096615065342906 0.3900329178075433 -0.7322314112811454 -0.2880260318708394 0.3808713952383505
Ni 5.401494879927464 4.982421133207968 9.453710188067287 -0.14523210449934343 0.38622571757172836 0.03326596114198142
Ni 7.602512614676196 0.5393794624656465 5.345620253906293 0.4837779994966056 -0.2560710762307977 -1.3756085826320439
P 4.346203934929148 2.8438204311486133 1.6231828976930867 1.1887433759729462 -2.407920128735085 -0.5910572789012595
P 2.884860356139183 8.82484851343663 10.487515359963941 -2.4641558112993627 -0.22760562180125318 -1.6104395185371425
P 6.192148098154817 7.493519342075128 8.20309880206843 -0.06317817532038152 0.35958034707005815 0.15995141298738905
P 7.537678713544096 4.184892017938141 3.7660927450379154 1.2411180329199205 -3.059996370521878 -0.5253082575299082
P 1.209221108761163 6.817976509212788 0.10606024349480192 -0.776470840715495 1.4471916941866687 -3.8712434383762946
P 6.452579724418871 6.196860054847412 10.844634838726892 -0.12905266652600353 0.7266253779482776 0.7808975090282808
P 4.346007213079159 6.292663595792071 4.044979691143083 -0.09758004983901905 0.4199274806995478 -0.3307233136290498
P 2.2584324118241033 3.369667303876443 6.042392184694594 4.1268640573332345 2.1049775847637293 0.053519054964062666
Ni 5.667940574176897 4.571946941645136 12.177660501851868 0.2435066093022258 1.0844751154804744 0.44106837644322106
Ni 0.573868549851581 0.3414660401281078 10.478534539126585 -0.17756732629693936 -0.6104693648792842 0.54599432512435
Ni 8.803096697452126 6.815793833448623 7.9118446089939525 -0.0564979350867285 -1.062388310883764 0.11640541007563823
Ni 7.349725037440288 0.6516589267322446 9.733816809642384 1.3427707101664166 -0.8697409503252506 -1.3504143427546034
Ni 6.074077517332828 0.4027954820182604 7.543578495502338 0.18250435858724054 0.8135150379529861 -1.1662349104577852
Ni 0.5890601605243055 2.484784319504342 6.100442929084929 -4.335933053782881 -1.036010078000551 0.20978993377607097
Ni 3.5892088884642046 7.007747520502209 1.4788237203175627 -2.446069129000981 1.8253994265499274 -0.9482966365429667
Ni 7.0601223711350025 2.364184457753922 1.13928836463149 0.36596311066795034 0.12036850848844433 1.002546399025467
Ni 1.0072908136009913 7.776798806059338 1.9034272245631787 0.6778849753197809 -1.3996057168775895 2.8340151716979256
Ni 9.038104366531883 5.859594494601927 3.012394194716359 1.048648335589852 1.7170266569707784 2.3748056055693034
Ni 4.477192583900418 2.7927570595157456 11.415928205885045 -0.044616867378426385 -1.1988524393824902 -1.6326913879568072
Ni 6.136850522893614 2.7107240480703183 9.077943351466805 -0.5868247288771506 -1.4768061746189922 -0.8622235589022829
Ni 0.5478984553408859 2.867951644747268 10.19727568957298 -1.7071034843197954 0.007833122891173607 0.8907856868106916
Ni 0.18079768461777854 9.042413511817356 0.2938902658643313 1.613956787661782 -0.9272485576234161 3.013834784364151
Ni 5.076191881702741 4.755094983984926 5.6032565563590735 1.131886257774586 1.105799330879547 -1.4047222121685485
Ni 0.9266713891633425 6.917667648621515 11.136601914314902 2.685401552320859 1.4366931086481902 1.6854673941072584
Ni 4.384021368662754 7.345425259861956 11.023243290185507 0.43559758313663693 -1.5027776589820894 0.286355586146952
Ni 0.6910445146414775 3.6961974717368116 13.205886267374549 0.3184696930726773 -0.3214344321279561 0.38712406101628166
Ni 4.427590574581754 2.71630720152715 5.622341386120152 -1.2328434516159543 -2.322526850770245 -0.2635851252196557
Ni 8.632126674397371 7.67879385393623 10.126707814899055 -2.6821663332130132 0.9904778978967073 -1.5262595441541134
Ni 3.3514096426560323 3.0697320565931627 13.390060073646424 -1.2854903883877087 1.0635877305085037 -0.3467402578825964
Ni 5.2431056875648645 6.860496531931846 6.173410810328718 -0.5100770424024506 1.9034442345694962 1.284803389623013
Ni 2.7316421381191525 8.603330342641833 6.678385494772712 0.447028707791714 -1.5906389388714477 0.14058020754962886
Ni 2.5424706600868405 5.751228858379396 10.045814853412852 0.9821788911127084 -0.861225970875704 -1.0697753473764544
P 5.745964206965405 3.7725068141182723 7.38604363803112 0.257329374117931 0.1256503257126739 -0.7466172476891721
P 0.4081444427965336 6.584299054547243 5.437193338305474 -0.5468101361574259 1.3491218491954249 -1.4753930963215494
P 8.825429311279452 9.06027772933779 7.595829692400855 1.4461604247086772 0.15450350249894038 0.8960456496580503
P 7.2908021595150005 7.927881186850915 2.3098086648755247 -1.4006845517640651 -0.3082205045408433 -3.4247909148030242
P 8.683742740751637 1.976061615432701 8.276862001648604 0.3801558572285647 -0.8374862040566029 0.5100541595843151
P 1.8907499064874567 3.2155404182636063 2.342453250725134 -0.4706946839500862 0.4067549478733318 -0.01170597558301855
P 4.486794483721311 8.816483150958524 0.1862955919396149 0.47850235291996296 0.0733242626154479 0.37873840805574777
P 0.1663873407207247 5.334216007231214 9.56949598511726 -0.5988400081704719 0.9352837692230667 -0.2664143671383348
Ni 2.7291315926050066 1.2803782122143392 1.058948097866683 -0.07591722015360473 1.3891847786545817 -0.6047214066519133
Ni 2.2788540133943935 8.652463966603381 13.256532776039583 1.8021450840076771 -0.6816876368953227 -0.5287257678518894
Ni 0.34974147261764643 1.9879023972606125 1.2889346759181481 0.598788071886614 -1.6623413496127566 -0.8951665894872066
Ni 8.932886279909177 3.8636077660774792 2.123290121505922 -0.3425154211679714 0.02540969832235624 -0.5157982611569439
Ni 8.270701797431805 4.0180812568545825 8.107906035629451 -0.014831665696193812 -0.352361974944748 1.6941422961734371
Ni 6.425235387270395 8.957551452814945 11.803799993654852 0.18627976646927275 0.5930714811178109 -0.8620934610823218
Ni 5.693486311554044 6.588711244611282 2.0423971600197177 0.4408449475785053 0.4928817615700867 1.7346088888289157
Ni 1.3416617523394943 1.4164816292853237 12.603552065829554 -0.13881411678814157 0.8162828305061103 -0.14303406840676014
Ni 1.4629829275398742 4.063495901080622 8.466149639249481 2.3816858776289043 -1.8459890777758208 1.1559885501394287
Ni 1.4221490921064364 0.8928380412773713 7.541686218659588 -0.601835600463686 0.5545692112775547 1.2114125354356877
Ni 5.472848705230629 3.6845815148803167 3.244747055591978 0.949112704686359 -0.45264656819912363 0.47029024942281583
Ni 8.387123661796743 8.142551563724663 3.844571648393541 3.554673533429491 -0.868706338413149 3.9952590566990227
Ni 0.6299380241813126 0.10448646869488966 5.542312127232471 -1.337047177419078 0.18633530229755652 -0.43135809113399254
Ni 1.4449781944123066 8.034813563880668 8.614827329617622 0.08228712823569055 -0.05149456833486616 1.2809557337421487
Ni 2.3374864923982677 1.6128943449386601 9.51925978202506 1.3977776625299154 -0.5203997644846973 1.78541157330308
Ni 3.7512046480766026 4.657783242190351 7.657116042838153 -0.46539846854815325 0.2866399501565902 -0.3558712736495871
Ni 6.687540554962916 2.4343673196642954 5.629484262816183 0.5067250952110821 3.0544188764341014 0.1565894384936916
Ni 2.2774769604444702 6.095876171853041 3.1835984104496724 -0.0572749224620691 0.6066661890831101 1.0483873686189815
Ni 8.699873932450737 2.2858235875082906 3.9972662115843143 0.42202035867283455 0.8883444243590508 0.6754905069456754
Ni 2.4662549947768038 5.694957041575391 5.533976741417222 -0.02500294980224081 1.8239840342596394 2.462908312045507
Ni 7.205396773498333 5.164791655854945 6.509689951012116 0.41552395231521344 0.9027593142328 -0.16366562861418263
Ni 8.11252806233348 5.969402757724377 0.9964486293544527 1.3438600865758534 2.1428087966788905 -1.2960568510496455
Ni 2.83803118813465 1.2204342542105382 4.632916663581023 -1.059761157673562 -0.45107768105010704 -0.22901047256857976
Ni 1.5991612862679971 5.254684173592791 1.2492333962782185 -0.9963518401789809 -2.6894654379775873 2.0085560740091863
P 8.508463572411408 0.30445235566731393 12.587223215509752 -1.9687754516771385 -0.07360708396318937 -5.497196479168004
P 6.60089863160346 2.077663767098466 11.033950579449195 -1.6628625122235492 -1.4332414026541638 2.770264668813842
P 2.3477160285976977 3.446173368107892 11.335350936129537 -0.07522379363100593 0.34478261993559334 0.5483345432217525
P 4.303580867431524 0.44760122528004836 6.189822096471375 0.223036514373332 0.42415437429670183 0.9836472481281188
P 2.928036118358204 6.538041316678393 7.78063394536341 -0.7847827030153001 1.453722039106019 0.04164004413828958
P 5.46679716641668 0.9482836263114234 4.378558121857345 0.6354466036499121 0.28622317433414574 -0.5565268492245576
P 0.9071537713322877 0.3089694640513479 2.827520620720951 0.777650462845893 0.8481035745611328 1.261390924236344
P 7.624198856710701 4.463834233515448 13.188761161947648 0.6231662436206623 -0.2930013735982438 -0.4239872525912181
