# total energy = -340855.7702467689 ev
CRYSTAL
PRIMVEC
9.31844105623495 0.00000000000000 0.00000000000000

0.00000000000000 9.31844105623495 0.00000000000000

0.00000000000000 0.00000000000000 13.63848040825193

PRIMCOORD
 96 1
Ni 0.3322136135267526 6.759951400503219 8.654475309203962 0.7647262985850573 1.412595187158722 -0.9370508884258185
Ni 5.900315874589465 3.7527319880707335 2.163403804268606 2.2361665809064455 -2.2637131230661467 0.6289789936476975
Ni 6.975403081185834 8.062194250021612 2.3518469147643573 0.5072380302917586 2.668024494494992 -2.0926391178030346
Ni 8.660745688336842 4.6944629816032695 6.481892840281041 2.8268677620198672 0.012013222410792215 -0.21798995308836006
Ni 7.752961776363355 2.8271405348237515 7.2620541761062265 -1.4789607590681495 -0.3110592595412191 -1.8604229938129637
Ni 6.650506307746967 2.9230832061748266 9.280563673326258 0.8608374771880335 1.8124204977917562 0.7926420511587188
Ni 4.362260550206045 7.9595888931600465 0.41471163780854525 -0.013348653392764108 0.6526884214494953 -3.084315663993533
Ni 3.4479071371348007 4.2252142343979395 6.384132141037523 -1.6892674845796392 1.4170393389730047 -0.4799105461213993
Ni 3.6953303898265006 2.7982720037587137 2.230695996080441 0.48805862914983045 -0.3128790863587773 -0.48921279735893164
Ni 3.3861817821397038 0.7970202597770465 10.530612069584002 -2.9317823978470865 -2.078149665937608 0.6533386534389845
Ni 0.38058098295641024 2.5326591537013083 8.086787480230408 0.9634687162977149 -0.759753270850498 1.0006301558393604
Ni 0.4565607575674495 8.199976722690318 1.8109449452312336 0.45650142316883957 -0.7453463513965486 2.0883890842774293
Ni 5.598361103565742 3.2648184029947536 6.1138582066551574 0.2728999748626784 -0.7684932218266571 -0.5112188693163777
Ni 1.886201608799456 6.353825774483997 0.6896410654511099 0.9195151935349003 0.6682394818102169 1.1761210592232454
Ni 3.688565201462002 7.226367341561432 5.199861689884685 2.2908084366210417 -1.0002861422363807 -0.2854592995849278
Ni 4.140751882695711 5.492447700052114 8.256000123470214 -3.601139281091198 -0.16858080652761287 1.7968750938579894
Ni 0.7515499937392934 4.868811017828853 9.844023725494063 0.960741547174539 -0.5343899081162022 1.2271538574303444
Ni 5.481759447911508 5.929790104337274 6.668521650260859 -0.1045744788789812 -0.2731776540040972 -1.1648287741388776
Ni 5.587523756364762 0.5041258092034662 9.921530792629815 1.856196871546758 -2.9076016868358248 0.3248557991046792
Ni 3.9510656921340868 0.888914068394823 8.1198465143361 -1.4579098519351215 3.1122455576345818 4.680404056015326
Ni 2.8084011494229153 5.469244781281312 3.9963887267997196 -0.9043991638290684 -0.036655446439504615 -0.8380508183108212
Ni 6.452098056153427 1.1523836769593425 7.894947797890498 -0.986342792682411 -1.5006541848811832 -1.4591807482277452
Ni 7.709127828613213 6.548674381511093 7.653082995418389 -0.8950200366070135 -0.24837267914527544 0.09129575949220406
Ni 8.834637120940029 2.90816438169609 13.542152443234968 0.5950170348799558 0.3432708112767572 -0.8205657741521803
P 9.044684105684063 8.429070601397212 6.110843690903208 -1.0286788344464608 -1.8080743050079182 -0.7675938499408392
P 3.1454864440474086 8.28401042609397 8.795210795912212 0.43363017499762097 0.562600052001831 -1.0853354065982406
P 6.151951062736747 2.192517410339135 11.719601379397698 -0.17735598161708163 3.0103807643772797 -0.71571695856589
P 6.958061461976009 5.066949034625464 5.497944648559302 -0.23173301370606544 0.18507494752789416 -1.9639523192568822
P 5.557788610261296 6.78413275560773 3.398859521492184 0.25908158092234734 -1.423772286821464 0.9398423351280265
P 4.747829694776114 3.3296840726989916 7.924107064323266 -1.1650414043703161 0.0018833330656419177 2.859338995174695
P 3.693913986752942 8.51923583915877 11.918027336029658 0.9630992487734382 -1.3445738248134262 -0.7325139755185708
P 1.5673338668644874 1.8118124921137884 13.015311069739301 -1.3823536146653612 0.46432554719894875 -1.3934754356101358
Ni 5.92637023638993 6.327128440235665 13.497527359820715 -0.07511760707044482 -6.35619613181635 -1.0372354657672203
Ni 6.978058836948756 1.2001593253681384 2.821938049060804 0.4961941137727713 1.4808685176138239 0.34453810802495505
Ni 4.905227486325357 1.6623819678533145 4.066681456701594 -0.8494608599199758 1.926054001549212 0.38222713793529656
Ni 8.64414954442889 0.8746288979226786 1.285023301889251 -1.3396337071993316 -0.9190655075919915 -0.07862330623085816
Ni 7.061924808409486 5.934495917180348 1.9214029525539063 0.8131445419874448 -1.7194270388821549 -0.2886886051555028
Ni 5.00203677271486 3.3375488371337534 13.623083105694574 0.10752044888118256 0.030578901228121527 -0.17968154442646475
Ni 9.40407774871711 4.902581049003707 1.1548502683644155 -0.5853941670782111 0.5090915385607298 0.7215078542160542
Ni 3.633055246796272 1.531057174987085 0.017415234895884233 -1.6662856789724851 -0.836654966404559 0.8115180621276153
Ni 4.9550531918143035 0.7782846017527194 1.8454502014225598 0.1621219382761466 -0.6464486111873706 -0.7470877595676876
Ni 1.3489561956220202 0.18147198457910935 8.577677375449117 -0.13094551267334223 0.31098109800511603 -0.28359782089615676
Ni 6.425801414879851 7.939414467803104 6.222788921453117 2.2131246114853176 0.8554399603215461 0.14016291750655216
Ni 5.825684478430688 8.953782711061905 4.1777805727838775 -0.5778816607512499 -2.343990934181292 -0.9351894097370476
Ni 6.791345229153352 7.99144864387385 11.392918260766717 1.4373610812494924 -0.0965796335989627 -1.235134047422344
Ni 7.8993544887686955 8.847356793278239 8.937528553948688 -0.2892213377305213 -0.4336746550823111 -0.10588419882934022
Ni 4.6234937328649455 2.4269600743369684 10.010821960599927 -1.200365790703223 2.6206714591323257 -0.7750641901759555
Ni 0.2427323493546632 8.286526405237792 10.63601016329521 -0.7580653416251139 -0.4160011490619481 -0.09327422337481354
Ni 0.957674846551348 6.2265172298066105 5.449145835298685 -0.9432235928954337 -1.7553646333190283 1.714610591330118
Ni 7.138186931791111 3.0849538495353084 4.48704659283072 0.8236277009069558 -0.8736809088096051 -0.6475850387846589
Ni 7.5792660310269095 5.265841845165222 11.282406206484659 -1.1378753854784853 -0.26279142567376673 0.18457512507334017
Ni 4.978526345382035 6.5896196124664765 11.261948500513006 -0.8311132106507234 1.4514576685518743 0.19769700716727887
Ni 4.7997800048754 4.422355177978295 4.1577729475257295 2.9163274967445965 1.2144685486531923 -0.19216193628166262
Ni 9.076366806013672 7.375257396228047 13.571270708526136 -1.8288267070639215 -0.2947885474056536 -1.313291983981009
Ni 1.451328591451751 4.586741800482598 12.797913698518798 -0.43045846213785866 -0.9034180308627217 -1.358227411041119
Ni 3.9136335135387803 7.813186862313432 2.471592612504242 0.3757746974417334 -0.7233374512256252 4.548248325083967
P 0.04281730580721197 6.050230957796156 11.968162413768882 1.0327293503667505 0.5021048228302514 -0.9956419585961497
P 5.855363713886513 7.625187309622295 8.37614092312009 0.37658819448196434 0.011469691202496374 0.43093900131870294
P 0.27791785175894873 1.2043060317348078 10.17365240341157 -0.10278319130651331 0.030537763577540955 -0.4528522564520266
P 6.500805548689564 8.05817800183277 -0.21888645813599564 2.5432102915303685 6.729941200422564 1.3810397809499442
P 8.329531011714598 4.5088955420844945 8.68502581891885 -1.192903677998223 -0.06219344280960903 0.5614605390807491
P 1.738504314615837 5.373768031993908 7.555868356833494 0.4585061123036942 -0.562557885909986 -0.05060059576568705
P 0.6666384931676864 0.9757805779455924 6.468063341587167 0.9258277660164894 1.8957828613694967 0.5969800721435976
P 2.738401018577026 4.146324310577213 0.8196845726422451 0.2185265423181204 0.5423868102787498 0.49916502347563707
Ni 1.467896780035882 1.1980440391990732 1.4081730262263141 1.6478698954694588 1.645353042584876 0.8408090977822487
Ni 2.071191304959279 7.062195043206416 10.152007528021683 1.6448020551774123 -0.951264460922039 0.8782155634551649
Ni 4.465387739778922 8.987403647176384 6.647831915101497 0.1949531258735546 -2.1608309442879237 -3.1397347641937863
Ni -0.05391091014321185 0.20238722601728804 12.485783189624508 0.9156819358317391 1.593712692700765 1.8081336974909439
Ni 7.9638381023807225 6.978217250450405 4.224096953289257 -0.28223976420636554 0.21134776518149406 1.1592250547988552
Ni 2.0430682491961143 8.515461870443037 13.187210219598231 -1.8727732878482004 0.18260360316926616 -2.633914954405793
Ni 8.812785376153872 9.276908980658824 3.801767489739695 -0.03375652762515477 -0.7302858575190004 0.7657711949098037
Ni 0.5942593642646946 2.8810383991491806 5.153641289324421 -0.8355105683874708 0.14455873258140267 0.5582641436306385
Ni 8.396866068356292 4.804383314864466 3.4838548880352516 1.042261972447534 -0.8503311783400709 0.38122337926113053
Ni 2.0223347173627673 1.4766002041852508 3.9618014683251874 0.5448697246016034 -1.2830226435735064 -0.1600714835050211
Ni 6.848942514664326 1.7185069396430896 0.248342982845386 -0.9576906761633572 0.6436545933820012 0.06200575227883514
Ni 2.9756764887219775 2.9341441959663697 11.770608663240116 -0.5446573514804813 0.29982688116050943 -0.41678122176108223
Ni 8.551878338939542 3.0944213858690977 10.762043013362268 0.775405118455142 0.11320155842635989 -0.012794580661506997
Ni 3.8850724910357655 5.399822393794375 13.013769799552678 -1.5556680792232176 0.4998275967603005 2.0768381462150365
Ni 2.5043497291126755 3.09966766830603 8.694831614670864 1.5048437974824986 0.4682323384525226 -0.042972389796467926
Ni 1.9073544704901066 8.039662259022496 6.387923814791676 -0.021764131149968967 1.89841721366855 2.748072191877203
Ni 3.3343339748944256 1.8365249983708836 6.168453090387837 -0.8070510274951972 -0.34199425855717874 -1.1955264603330507
Ni 1.5811065230665937 3.5871991972897996 2.738975034559468 -1.8558384597660746 0.6427210258241383 0.03902523222326182
Ni 4.945296783801039 4.191900806845482 11.393505322566943 2.8356002567968583 -0.1914955063422573 -0.9837634619910091
Ni 1.7276390120910359 7.846900982840646 4.083742590829089 -0.16706128455929295 2.649346972690147 -1.6514480997390202
Ni 5.310598318601432 0.5388165023761333 12.559704520558249 0.13017315328369194 -2.3979666170667993 -0.24030481453547647
Ni 4.645317522327282 5.500554743959985 1.693176620729567 -1.7806005250676817 1.0426052147195657 0.5321293942167996
Ni 7.65789503849198 0.9194235769681091 11.115156958821162 -0.365642494103738 -0.7607372320303222 -0.7829495064613031
Ni 5.967893210704266 5.6225983693178945 9.445411558673594 2.0531022360506768 -0.14332640283619832 -0.1309982202881486
P 6.214338027062257 0.9513476249266997 5.736821958759154 0.6597098470726509 1.13798465736284 0.8705050821847847
P 3.2129146851018358 5.3305397829265395 11.071172984166518 -2.3712801089145485 -0.6019351021560279 -1.6582849201551957
P 9.415353062657942 1.8660830940901538 3.102617886813193 -1.5620156187078003 1.4489302741443306 -0.06865565349518499
P 3.136121410567627 3.2699621825776783 4.370928564278575 -1.253437473717222 -0.11238806138612904 0.6880572878670924
P 6.885955363402329 4.350696364585738 0.24563411196720444 1.810751080509133 -0.7461883876818698 0.5262544234932613
P 0.8276322712043402 6.147767082604985 3.3150233690435287 -1.3183822540197232 -1.537381365098888 -2.4447342122396414
P 2.4805131563352814 8.735172078787603 1.4439604999368623 0.37164756264723736 -0.02978108791717451 1.8724094767508783
P 3.4159728388908097 9.27700216507156 4.5582255064976955 0.8857208706932744 -0.5263269286024097 0.650716385324789
