# total energy = -340854.5080320342 ev
CRYSTAL
PRIMVEC
9.44027009278098 0.00000000000000 0.00000000000000
0.00000000000000 9.44027009278098 0.00000000000000
0.00000000000000 0.00000000000000 13.81678951790502
PRIMCOORD
 96 1
Ni 4.919315276455269 2.2954205402440833 8.031533469103515 -1.41463484329657 1.0559816360264718 -2.7544230737958952
Ni 3.6885967118903844 3.195550288353387 1.8963265162048126 0.6749040383145861 1.3105786988149042 -0.9766319931525504
Ni 9.045392982439846 1.0825063249705895 0.6899978333097251 -1.0074271241565358 -0.17970674123744534 -0.7346528762384444
Ni 6.606593620860848 4.412750386224066 2.868378849651508 2.5585600345135613 -2.3154010383587416 1.7985098012479346
Ni 7.4034468147560375 1.8491789755547623 9.778818890004707 -0.17718500325685613 0.5686454868649626 0.18914166139810004
Ni 4.7362778806913335 2.794367132554739 10.17870400867315 -1.7452383435183039 -1.1197519364048973 1.0344527608157603
Ni 6.254754756550059 7.5939797849300295 8.375088496456087 -1.5364894494122379 -1.126289737523415 -0.01443083071334934
Ni 0.7976433444973577 3.0593083111670896 13.608791197927975 0.4983936925272514 0.8606850107705694 0.2410023548231333
Ni 2.160840050584448 8.128789963114489 6.46747330534001 1.1490658548776662 -0.19337575408410565 -0.16661854059491948
Ni 6.539596024402204 6.852692020477644 2.116787030452806 0.5775165641023473 0.28646562936225506 -0.9772287461962846
Ni 2.2751522804728124 4.458715061038373 11.950887197772179 -1.197332660303854 0.3664865872715882 -0.26473543677401506
Ni 5.333346639775436 6.00533338187994 10.48329526547149 0.760529229784574 -0.09508453711067495 -0.664386940833346
Ni 9.028466578261975 6.528720833318598 0.35560647608289625 -0.46351873502693725 0.5981820628714988 0.6152210206316566
Ni 4.455458167875314 7.9223973392769045 13.349174331616972 0.27174580665357717 0.055716062615381465 0.3516798612760589
Ni 4.546122521318856 9.18508065818996 7.011371631489911 0.2807140715904585 -0.8599735865258417 -0.26262301841670255
Ni 6.315550095593834 8.646862542521836 12.020676282081016 -0.468305100671987 -0.05465625389229941 -0.9679912867584167
Ni 2.336466834368669 3.587378136544522 7.993730851763934 -1.0944394257820378 0.6696674725059951 0.5000728800018872
Ni 2.935716295831515 4.498581321408227 6.009004702897661 -0.5468967823339613 0.9567270266985072 0.321722138571704
Ni 6.19965190033911 3.9505170040906212 11.412640761293941 0.7395868232049521 0.23400484045937764 1.8320943220715995
Ni 7.93213969795597 7.010646618751004 10.700343122100799 -0.4979134104567231 0.817843747235327 1.5106740310110305
Ni 7.184423109607806 3.2839961783380334 7.520354174877808 0.9910111446923578 1.8312499717934332 -0.2831699893301188
Ni 8.458510274726589 9.077971354340479 12.376941689012554 2.6720019910855015 -1.5047540659821697 0.5759409920851113
Ni 7.218983938216386 2.5547258776438357 5.120392084234539 -0.5735825191552637 1.9841298226460216 -0.342702597478113
Ni 0.7754237809092626 6.833839801212051 12.12246410571016 -1.2237551161614408 -0.5554955797465659 0.8332089168374875
P 5.410114915723257 1.655238067897106 12.118843762150645 1.6882282446818473 0.7968236933402342 0.921184353707207
P 8.229876374679822 3.573803028230089 13.435418750628793 -1.3943804639229083 -0.023011630403824885 -0.39303425585312957
P 3.9871641323775675 7.205956365564149 5.605651229017312 -0.7045750830164575 0.028536416876796016 1.3787103614858192
P 6.573118423306622 8.40921318458892 6.227282626712904 0.12439948402470832 0.38981446336425124 -0.2730449850809749
P 7.190143913250745 1.7211594735714348 2.7129268669651836 0.6087266711565645 -0.5072853385899263 -0.07657670811447458
P 0.3400205902504006 8.53862040626781 0.8432105839430712 -0.22897062046957986 -0.5962377946609344 -0.41189304043084546
P 0.8851574798292683 3.821732840234228 5.587772301592621 -0.7062946368107256 0.28433752727565864 0.657556548175074
P 6.719546451863763 4.399571769251223 5.250752773187253 -0.6384985031023585 4.00039226416053 0.48995121818685305
Ni 4.287251436340846 5.041434609664939 0.30547297801987305 1.2789374177605393 0.1723605852850193 -0.4880650569077336
Ni 5.229541430439202 0.13388474175784557 4.680327288230985 -0.16005502844478886 -0.5408541756843073 1.3898224122385805
Ni 8.433153709404914 4.5252595245352 11.17684358434245 0.7999249579733773 1.1862728029452665 0.8851837672428821
Ni 2.1035848128048684 1.1799771131114238 0.3303896267577828 0.07769488087931781 1.7287699135496357 -1.0172952751998674
Ni 7.440584837084952 1.5519237526028404 12.69117712568156 0.3946404239979848 1.6751202465449797 -1.4570721865251743
Ni 1.8485181566521125 5.350735617185161 0.32691371932984525 -1.4991855707554569 -0.9441964983316643 0.9289164322441421
Ni 2.3524114504626032 6.912042998205627 3.73301979060751 -0.3119000102749596 0.7882243817069974 1.4160504926971742
Ni 6.721075775609894 1.2092041891486176 6.911904226236071 -0.2664632180983991 -2.2627137352673548 0.5222224195157329
Ni 7.584294067871191 8.927106398865545 2.5402992569719878 1.2778773519271411 0.2532914566031315 0.7656143576169654
Ni 1.398122873146136 7.942004780145526 8.844319950768591 -0.2722638839405763 0.05523989430991131 -1.4180510680669707
Ni 5.244768586010259 2.1273082114099933 3.4694512272586637 0.04720468271026064 -0.5838515051814397 -0.6949103062331838
Ni 7.941523326373595 5.891068353341765 6.622746866922619 -6.390902167838968 -1.7879201986575468 -2.374745184645014
Ni 3.969860117398183 6.73525506120675 8.534520496990371 0.2720905915875056 1.1261084747505445 -0.015048666803006342
Ni 7.630400346736066 5.434612416471486 9.019613493020477 -0.6414714696877533 0.31682598682166724 0.14507963808187915
Ni 3.942096283216856 3.1529369094025173 12.833407066152871 0.6267066526737529 -1.6614183235778548 0.05617834696378066
Ni 0.7213451939974204 9.034791559187338 10.89082133870857 0.21040082788719247 0.5463787050469622 -0.2588010735674511
Ni 9.246876665857748 2.207522185921632 6.546409067288523 0.08209146728511668 -0.24727944608109673 2.5022616170321488
Ni 4.458063682405761 4.060231822470551 4.40712776138952 0.9643187230028362 1.1501588308315287 -0.6263760088072116
Ni 7.586153801068648 0.6284595450139714 4.791151338340362 0.6813765334128072 -6.038016459180266 -0.9827113665774109
Ni 3.2479626676035482 6.544608807792304 1.7043010393378366 0.860716378229137 0.6890757018292778 0.17408219596181632
Ni 6.95086138860128 5.0014456257845925 0.6448610701777375 -0.0822228506566584 0.06855435203063032 -1.7333289936752279
Ni 3.33581382057581 4.893713264112612 10.010651153540298 -0.025229721101066225 -0.4257728837367312 -1.0993088380591969
Ni 6.949501989715829 9.188450834593475 0.36643824192432906 -1.0458332347385602 -0.18232540980721504 0.6796158419679587
Ni 9.348246285524215 0.7342726997872566 8.743057006153553 -0.17239066719200632 0.027585108707120234 0.45262239982940755
P 2.629624980124163 1.7280603109691055 2.8068112965186374 -0.4255342853633639 -0.9340115873788625 -0.15386664024588984
P 2.0416283205464376 2.067570182610458 12.016614133883728 -1.1855930032694226 0.8642243913823955 -0.16670647232303548
P 7.457360196942218 8.828153488328768 9.59106230324885 1.4523974067573244 1.3733107877368027 0.6284313486743435
P 2.21329019091476 5.988652424723053 7.721139278312908 -0.8563437030827381 -0.9143845571765544 -0.9822413689195277
P 3.9233101458415285 2.20753162619167 5.646285927368247 0.9846101262620204 -0.25361181605702776 0.8909810906509494
P 1.4502426040251235 3.6842730682130473 2.027806821184017 -0.2117660836658353 0.4421914343040707 -1.3147523705766195
P 0.33164801475382866 6.126735254566732 9.924655013630476 0.24852128890799777 0.5341050298859318 0.8076909750720412
P 9.478975145008407 3.300110719292649 8.927801202740332 0.06176098325788074 -1.0762943794418947 -1.6035273647983415
Ni 0.022118552698690067 5.162392789659951 7.711648030816851 4.767548255233002 -2.1132475380820055 2.0654658998223523
Ni 5.111840143607248 6.969137751394563 3.8861796757286444 -0.24799318431866968 0.7827633585924261 0.16293260710290006
Ni 5.651370456810634 0.44363699418587743 9.085506577884692 -0.7269632209036706 -0.6754079745341981 0.8483084914830875
Ni 2.522024782232712 1.1175486073511007 7.530716759298359 -0.43896135740254716 -0.08449082075522868 -1.6032959655138257
Ni 8.305974391454956 7.842183364765266 7.470185747815645 2.3004565012337674 2.6493559715512114 0.6751796605734759
Ni 1.7425888865573615 4.682883713357236 3.8716718687344716 1.4574534811239932 -0.02006334640877835 -0.5688835710176977
Ni 2.3485503800171212 2.029563655438061 9.61687200153234 -0.43420275967163935 -0.4346421612019031 2.3225294218734067
Ni 1.9023843374881029 1.8509348657818028 4.953373882697836 1.826093367293158 -0.3109566725250838 1.1375899930275828
Ni 9.298014608652798 2.005934659533315 4.341498060059362 -0.9710041054428117 1.3820684793247746 -3.034597985053432
Ni 9.46018900763308 2.5676590475956944 10.81797927106949 1.4578309190680698 -1.7145748529961762 1.8717075655878475
Ni 3.6851321327864923 0.9007546939858094 11.44379742852687 -1.0032261987013107 -1.7803256741397404 -0.5416494178920929
Ni 8.779545537903862 3.077443069909805 2.0720628071214726 -0.21277164211221422 0.5743780184733657 -0.5940873239768348
Ni 2.7663861721625422 9.283476592794505 3.8176895725770157 1.2581749884022073 -0.19717661588743463 0.6669338756249159
Ni 7.741512325081599 7.173208068802836 4.70743502364468 -0.18531611700442277 0.683779486427345 -1.0889892013007438
Ni 2.4674694616839585 8.775693907728419 1.2963869710021996 0.7723712167248247 -1.927447796572945 1.23784527570592
Ni 8.926001887271118 4.727045296594312 4.001203701977863 -1.5603150910769257 0.47469172092462125 0.6750369643480245
Ni 0.744635284207808 0.6065873833632692 2.7253615906590434 0.05503137784353103 0.17553358369636218 -1.8782895896807392
Ni 0.6235978059444769 8.913493529470962 4.634510825656272 -1.3740543507710463 -0.6646401944947328 1.5947599030183566
Ni 0.393878274843357 6.654333066442272 5.932583828887232 2.1547076049990053 0.27473291430635904 -1.544951721246978
Ni 4.577388695684226 0.7565366326445296 0.6637293379023947 -0.8132191039791221 -1.036905850341943 0.36046866321228244
Ni 6.185415973122028 2.332728487433679 0.5954374804215609 0.41240597551152197 1.4979869224616653 1.1298178052813317
Ni 4.555525030276558 8.265749400823664 10.609788275789695 -0.4002184323063946 -0.11412304179936476 -0.9266533472415783
Ni 5.2380093526631555 5.157040156548489 6.646884693382407 -0.10175552137294733 0.6181695617370193 0.505335156842091
Ni 2.4341075473701848 7.260927057994569 10.756522169096064 1.6681643840524367 -0.9171436079789302 -0.07717371826852515
P 3.4072200231421315 9.121991333526987 8.900610392950304 -0.01100817818504556 -0.08531614487000146 1.08593447363482
P 4.91834292864137 5.313352147835261 2.521522559866698 -3.090419462898426 0.6120575353020105 -2.0227909866616454
P 0.4982621727329113 0.09461227437337243 6.788188543363001 0.04980895310232712 -0.503211682741185 -0.03162611154571327
P 0.14936678461992484 7.181185096984822 3.349272813568777 -0.4232863698694517 -0.6021922124721565 0.4903091157469039
P 3.0128716228508896 6.488316477556586 12.858788176176644 -0.3227744910956183 0.23596119285480008 -1.06216076825399
P 6.320940489785448 6.190126667870917 12.423463339759095 0.15544401203533875 0.35576482997870984 0.417976527620764
P 6.11623767428464 3.9941310516655033 9.156262345845406 -1.1356863482469668 0.24396220878240563 0.7118194232836967
P 4.676653135132252 8.950895879360937 2.7678900071795725 0.3676232719791927 -0.4897316459768791 -2.5297240841184756
