# total energy = -340886.3023675107 ev
CRYSTAL
PRIMVEC
9.14884968444081 0.00000000000000 0.00000000000000
0.00000000000000 9.14884968444081 0.00000000000000
0.00000000000000 0.00000000000000 13.39026629307588
PRIMCOORD
 96 1
Ni 1.6700035417887773 6.335724662645912 10.61147790319364 0.14457390209005425 0.36760450292611524 1.4200477867820254
Ni 5.119970647546817 5.686458259943314 11.954400926388978 -1.1432240513849083 -0.8511940405609985 -0.40249771525887457
Ni 1.9787772125260592 2.901237410247501 8.72655690795231 1.2300370925154105 -0.6641342013925917 0.02939053734697519
Ni 1.8923114358701167 3.1527026876959434 13.250082950288938 0.3235378516242041 0.011059343137955148 -0.44867781335936274
Ni 4.679041845733979 5.997546589604938 7.228748437090399 0.19447284380302635 -0.24650837224302705 -0.2378175293372485
Ni 8.280413261922575 5.303807629466668 6.496488246118372 1.0517956229695822 0.6877050467339962 -1.3158216923813983
Ni 4.462140921709105 3.4763249411771246 7.250119234645221 -0.08739616732748173 -0.6140881925787941 0.7041837611153098
Ni 2.8778803974655074 6.909814968979673 12.866103906864407 0.5227883193215319 -0.06313498078727191 0.14096613013413786
Ni 2.8282295912109525 7.059233979068008 8.517882629400829 -0.1754641639110075 -0.47183599664338094 -0.4917875000646434
Ni 5.851338825692271 0.725413192003738 1.3745377875390346 -0.34979524265883627 -0.19884629028037368 1.2576291432010664
Ni 2.5121459897205125 1.4055377491961072 6.634662405282167 0.12299206215422044 1.969114323073796 -1.7652140153092826
Ni 3.4467833061308824 4.93316943838789 1.007135544529583 0.2073108761079591 -1.0601455375961741 -2.1316219268241356
Ni 0.14188859206214613 1.2883135405099801 7.738435417345491 0.13586660412404344 -0.44667183867292753 -0.6984545719410165
Ni 8.483398785852888 5.399962037746633 2.186563137790768 -1.373553499875228 1.173252479426199 0.2951546724958207
Ni 5.249481761115913 8.635635641588248 3.566242578750672 0.4949566418212444 -1.127545207197071 0.895142935338123
Ni 1.2957332574571783 8.547523072021708 0.45634918765069604 -0.3514068101203303 0.5648839629400013 1.8027559781187985
Ni 6.340024621912476 2.0031040033554053 4.012540840337013 -0.26245872492469635 0.3609389179804816 1.0619594508764614
Ni 5.232034905113069 1.1554447991731638 6.3091582334581515 -0.8555312344837717 0.018270001953781437 -0.3522362480001611
Ni 4.076215003110268 1.455234299698179 3.2890781830473843 0.06445267115743093 -1.0284471780516287 0.14232392971361296
Ni 7.1626708715526215 6.288727022747322 13.055603111741867 -1.0267643910325674 -1.41676603070696 -0.3383744024164043
Ni 5.876315184836353 4.17796850728627 1.2508343636346513 0.9814448411601613 0.6632898511144255 -1.407626530299537
Ni 0.6294545691031438 5.339616226422689 12.95721180975834 0.28645045985360346 0.27525690513062917 -0.1291097450161841
Ni 3.9045825864278556 0.8287787234622257 12.800652122632657 -0.6997838322754012 1.1317232498341605 0.2787708318211586
Ni 6.373244094459056 1.9557678560251919 12.960277589226903 0.1721222440219681 1.3203974846775388 -0.624625344664692
P 4.954394769235607 6.521336521369408 9.347611003441498 -0.725664299586589 0.05739936385507533 0.3486863258653737
P 2.8397845881336545 4.802569611727898 12.090272320132787 -0.38444908528727983 0.47248751418445073 -0.7325473998596673
P 0.4563409536861431 1.7792499537080035 0.8561950807688453 0.13641142088391991 -0.35793304127462233 0.7173362393368679
P 6.692602984071686 4.417567726928897 7.462702816589474 -1.4054176955736761 -1.6496578406078173 -0.38124240542452403
P 4.6135452321396615 2.5795455640115215 0.6791163539771027 -2.2805062833640855 -1.1099766021856883 0.906675875678387
P 2.0731567440023793 8.91534341745346 12.031689492108134 1.2395432322336328 0.275298557001842 -2.467757155497376
P 2.4010057659540975 4.938814278531442 2.8419638440853467 0.960483665527462 -1.666451772236704 1.7048730523273798
P 7.18288068010547 0.31214044735450625 11.911243973511883 0.751907292443518 -1.0269803636981152 -0.23671863984611494
Ni 8.344564994639903 3.276742789262049 13.305813167038453 1.52730444047886 0.9549537368481684 -0.006481493959285612
Ni 1.8994932827302284 6.651295928564166 1.9055287787475734 -0.46970300946077814 1.508953191665182 -1.0847761916606609
Ni 4.353534929255112 3.802508872519238 3.222528536875235 0.8508500269580185 0.5075589039662871 -0.927442418801777
Ni 1.1140919994181264 3.7185315829282004 6.740740570618391 -0.9434004847929301 0.7622035321632035 -0.804876902662014
Ni 0.6739289563087163 3.7352007867232624 2.288248940480445 1.0932564612175302 -2.5477660292218514 -0.9017702108466534
Ni 7.568559579767719 2.442102397923042 2.000653026573464 0.517010022076858 -0.17275396406869603 0.4583670156226686
Ni 1.2567866051215157 8.961215748863141 5.128164357161997 0.4945892311794966 -0.06563126484656438 -0.17648103521129607
Ni 2.551970931608494 1.5592018254539854 1.6028418375848545 -0.35993978729200593 -0.03430288704692802 -0.2883993560498581
Ni 0.8943036984900031 8.53235427954519 9.486990066084884 2.4397082197799596 1.8576539157082586 0.1988025815266318
Ni 2.4508029538007055 1.705318100871619 10.863924852193788 0.3463787607781196 -0.8540968160300902 -0.1812468320310556
Ni 6.180624217016012 7.684347419081823 6.287760904239771 0.17411047809659044 -0.004697405475669329 -0.6791319603530046
Ni 6.15113747506679 2.03457604564685 8.647648080986116 1.8667270816541206 -0.5328228207393986 -1.4418908507990458
Ni 1.273190492280981 3.795015964776013 10.803199363615457 -0.060810446419153334 0.21104540344972683 0.9733378957823108
Ni 3.1661606453153373 5.028372366319509 5.336034451842137 1.187235166858536 -1.7258663667495953 0.5421744371576275
Ni 6.035431975398214 4.399791512343933 9.52586169785462 -0.3904292141301147 -0.5075838436669516 1.1196040979731234
Ni 8.037840666191366 -0.14398367859840797 5.247430589057267 -1.1551246594772364 1.520094552993982 -1.3251319140387308
Ni 0.16770481559063388 1.1794147848718803 11.74950329291247 0.17265086283192846 -1.3206221990938352 1.8158660331381955
Ni 6.905945005639766 7.366745108573831 1.8473475852161163 -1.0157284449333797 0.38058008925017683 0.47097441997403405
Ni 6.803029597576842 6.615487331608145 4.277775136287963 0.09211979805539619 -0.8313842049239231 -1.245547529446184
Ni 8.149923221456625 0.03808849025225043 0.7719305173034035 -0.19698712558444784 0.8522355944516355 -0.8350243727796716
Ni 3.6357619414716025 8.342369270759106 6.314166313676273 0.061617258591164854 -0.5234380370903888 -0.29882029427286605
Ni 2.5044243607397045 6.971944805956766 4.3580224399364935 0.5748636998605325 1.818164856474701 -2.1990385657058966
Ni 2.3053636932463184 2.947228676700725 4.022114196457294 -0.03671612447411096 0.16112666424241281 0.006102513353312071
Ni 7.597899940124887 2.6866602939964728 10.838684091299061 -0.8195584159335886 -0.5704465446294434 0.573802862696186
P 6.674085712676954 4.4762941918907515 3.20354101461603 0.36528691053653223 -0.19105147682630325 1.0422791988387146
P 4.3606527341687 2.3659382258078456 9.50818703549914 -2.6604268846533925 0.5943583182500344 0.5058817733741803
P 8.822217278359096 7.068465168216865 5.003085861177263 0.907721543334082 -1.1878458038593414 0.6329472342668261
P 4.987669134879208 6.654214411555727 0.5947621317865283 0.805748763744006 0.20799633221075792 -0.9225071862836887
P 8.844384940705657 6.979840263078137 0.7120796587375895 0.9548418938606524 0.6831410815123977 0.5523644903167519
P 1.641449982488894 8.702650964200117 7.326953102544061 -0.04127109083464505 -1.3717107902395342 0.10752507686687288
P 2.3968704859785936 8.829838269995367 2.92359079423898 -0.5699531499327926 -0.09004671757645137 0.3475126172722467
P 4.581615747373051 6.755418984761529 4.883215805214774 1.0310442493548437 0.4832514375691742 0.8630367988321975
Ni 7.169688039121673 6.195234929672824 8.53573203478182 -0.0036052008527550816 0.9857398689910896 -0.658460290936266
Ni 6.489571715893857 7.338502610157061 10.486131345918459 0.1775632125318813 0.5192571662398219 0.5110142095047392
Ni 0.06985695526760266 8.029570106240358 2.792767735651107 -0.35915688637939436 -1.0996909039889642 0.9241028129055828
Ni 0.876103892173035 5.238988030735597 4.296950209961985 -1.1345162391982655 -0.23000986036737162 0.5283935813234513
Ni 4.068529969527473 8.448596562342233 1.4274959028890422 -1.5262096647527845 -0.46742218384640144 0.15222627642898948
Ni 1.4703207525291648 6.442217270864637 6.373459092422384 -0.6914429165098737 0.8221017511807325 1.3778459566029948
Ni 4.723468658922134 6.050555023627213 2.6221352882194084 0.485898388273718 1.4485086132258795 1.767120745413692
Ni 7.785780713525208 0.20626081205250432 9.598611519335172 -0.5210348269655349 0.26673704058507614 -0.004800249602120766
Ni 5.795091698945817 4.468170013531798 5.405476049342288 0.6420147437857331 -0.014236455314356126 -0.8222896988218226
Ni 4.406479321330864 3.1119445631586222 11.657097168274015 0.2987228494630533 0.3543815764779381 0.6491076460767725
Ni 3.533962693048084 8.011363895728739 10.569365748929826 0.3191430649906181 0.6204213338856734 0.5668441719901658
Ni 3.0500434474191125 0.5176071392701218 8.683694548029225 1.1454233730290724 0.004817218882985252 1.17788200777841
Ni 8.310192767055904 3.4301964419813507 4.519736588872349 -0.2631284972982113 1.359499078664691 -2.2079808625008486
Ni 8.551072825628998 7.904093635302232 7.3782104467714005 0.7479223396538409 -0.0321470170461898 0.1640680062589239
Ni 7.639737628903601 2.57670942066549 6.4300328330961065 -0.954385523049524 -0.6227276134213469 1.1253944794026554
Ni 5.551686557909806 0.9107661382862894 10.740319320979092 -1.3122170057492757 -0.2099141180587611 -0.48772001486348904
Ni 0.3536625008253553 1.1520780225559397 3.22655860508145 0.14229230514472913 1.5626658506972892 -0.23730999357321064
Ni 5.280185300049078 8.514834232746319 8.216575334743212 -0.025162101087924407 0.3821458910753999 1.6062650754444787
Ni 5.2991234185209635 8.246388690619703 12.352038287237024 0.649762506051952 -1.128580590440121 1.0907000133442635
Ni 8.268291036330668 3.4372776514969257 8.766084512231433 0.5417592039970798 0.7867819928335159 -1.1684049215259102
Ni 8.475759496517611 7.6727375290621005 11.72582881505271 1.742597306351031 0.9760498953968351 1.101766041350438
Ni 3.6499060628037454 4.591039062361478 9.768439782895529 -0.6811698167186397 0.33515692392037116 -0.05873890860210529
Ni 0.8521814804917358 5.207049397119483 8.747794132304383 -0.35203133107820667 0.3832761480251012 -1.0265741293986321
Ni 8.495822923478405 5.071390256684152 10.717796683271802 -1.453624080075574 0.6706398637215935 0.7226491669093489
P 7.066049871947986 0.4836017805512061 7.1429038673157335 0.5668570275059721 -0.34731824187325344 1.2715593801289133
P 2.750235649195091 4.840921588845844 7.636522723188133 -0.44294990973665 0.8461158547071428 -0.18436378039348247
P 7.276766173708611 0.27688078136868444 3.071097694781119 0.36951328991305393 -0.17922877315976232 -0.6769277536128341
P 0.7724062574775765 2.2790241555262405 5.273060176055886 -0.6440595421299037 -2.4419113980788656 0.24352126459024512
P 8.781321921079225 7.011239114573555 9.720877658982582 -1.259186203275541 -1.7296158064896985 -0.736815173997086
P 0.30426511770204245 1.8914697417158108 9.803495429537426 0.6341669656065401 0.3178246032895107 -0.46074965692223224
P 4.318293560968296 2.7471890823104834 5.09814332240178 -0.3572930936977782 -0.5970597763415975 0.6561738088949345
P 6.771804574221987 4.150567703023805 12.258988998478488 -1.1252116739678881 1.138127867808924 -1.3412766421193933
