# total energy = -381163.434117656 ev
CRYSTAL
PRIMVEC
9.30662294231821 0.00000000000000 0.00000000000000
0.00000000000000 9.30662294231821 0.00000000000000
0.00000000000000 0.00000000000000 13.62118340395025
PRIMCOORD
 96 1
Ni 5.918305025649623 1.1142261510665983 1.2803316918675385 0.05625033785229667 0.820033041577162 -1.137283003310125
Ni 1.1527648775672732 4.4555458372852055 1.8480133686599938 -0.6628311663104519 -0.25252449653011994 -1.0561485006216391
Ni 8.17160601161687 5.580642124201306 2.6472363843453706 0.039511427831060986 -0.8838267389943553 -0.120721778062805
Ni 6.2596161233761975 4.076626675373838 9.468411357137835 -0.1232939096653554 -0.8204210210442 -0.7775620168971448
Ni 3.754552367716545 8.259693199815104 11.669213681866177 1.2367456148838376 -0.3378221294573601 2.649375254824921
Ni 0.8891920030863242 0.27509819660083196 8.57637431935186 1.009908752927809 0.44717937443696537 0.7179707875970732
Ni 4.112699146737426 8.178036888219614 9.362017110523887 0.2862090332667587 -0.4553696235572416 0.7188858432121749
Ni 8.23756204994343 7.3275604374739824 1.0287504013267295 -0.08178422045734303 0.9780072762335221 -0.7160920825171215
Ni 4.876465789512329 8.386626233078253 2.4287252485371136 0.3075772145298897 -2.058280180707191 -0.7843098771439395
Ni 1.997061730535448 4.100302724689877 13.047527363674408 -1.6771814999493824 0.6061010606082594 1.5778394731139342
Ni 3.985235635954223 6.398573313760543 5.06507846776056 0.30420752672670837 -1.8643148726682022 0.7274776986462439
Ni 3.8454036229929485 3.7967765169881127 9.88282225712768 -0.451247630969068 -0.0014025367744814555 -0.8546051231250765
Ni 7.8568374031392505 3.0822512173465273 1.565918452768361 1.0621222017065708 -1.0061564849742286 1.541806747860093
Ni 0.04274532016846151 4.320841773684441 5.796004829394934 -0.2894457950365015 -0.03536063888748104 0.5985358466664917
Ni 8.305463172510182 0.3230003166615958 7.1747950103088955 -1.2711356623279333 1.0492854549532187 1.4352283511772057
Ni 1.8924273663608318 2.3084055016906215 9.664870449371268 0.08333459566359841 0.21729524101418057 -0.9008243019936164
Ni 8.379525279608075 0.5927137011027344 0.3817977004543905 0.7821524644813045 -0.10153466361139286 0.11450562194976407
Ni 6.621439018544812 2.070602666736446 10.7039753996245 -0.10908445093419278 -1.018120342204324 -0.88539973990843
Ni 4.862180122963539 5.912972330579619 10.161349013700223 0.8598131496885771 0.6146710616654575 0.4050500493670831
Ni 1.5077660179604722 1.7111436538501719 11.985865020208827 -4.05932143439657 -2.227802010991834 0.8632540570493262
Ni 8.722883834429588 4.796205471390663 0.30500596078401676 -0.7911011890341603 3.2848740518690076 -1.014303539561395
Ni 8.98643809566422 1.7196033743015393 10.347577335095163 0.10078313015734901 -0.02720175722577251 -0.7475410450550223
Ni 5.994340136857185 8.839495822609607 10.876446670666073 0.08629702072603203 -0.49326691282364726 -0.533923510002745
Ni 1.6184869136809572 1.2069666508442423 0.8093625816169114 0.19084553146308422 0.963583130388392 -1.6179036881246716
P 4.2734431419365695 9.044530037421575 0.3860247686931267 -1.7809872189831393 -0.27775241785897326 -0.09871184945061709
Ni 6.079207233442467 4.27327562271971 0.5800120218155764 -0.8580005219598706 0.13714829904994444 -0.8927060437618561
P 0.9426771663800643 6.653351429356407 1.1197291573404087 0.9137664639765811 -0.4272111588451546 -0.2368024578091728
Ni 9.215799823413345 8.742548729164175 5.465963121651375 0.8847430801610376 -0.6064818409864459 -0.27074281931035954
P 7.735320824554534 0.5053822107049967 2.5620221507162646 0.3436605905160081 -0.2174291954888836 -0.024497728031048133
P 5.034678383212273 4.2077011559426625 5.328497782959388 -0.5857284104891783 -0.020965546508073567 0.5554089335700305
P 8.715578135249915 7.452743825583274 7.542635568012003 0.5637519062180871 0.0028642089216724866 0.8123338731606913
Ni 6.268485335246553 8.690757371285342 13.375348511132273 1.1391869052010573 -1.0465526294030878 -0.5487243224610034
Ni 6.148429896497772 6.499466415425315 12.439668994705325 -0.10239161229504946 -0.8421157324088142 -0.4729305152591403
Ni 1.5075984987436135 7.374866002990267 8.114697872325316 0.655345142346052 -0.38333682605970754 0.5364722445665278
Ni 3.5261026890369838 2.8518192279341372 6.90998528561014 0.32631438592807677 -1.0004334664475223 0.3676854926756958
Ni 3.7331006013354644 0.468373493051632 7.817973875490333 -0.6671135957358898 0.748320603533524 -0.9053034208108923
Ni 6.118490489795847 5.615318602091071 4.017486807848799 -0.45895142737122896 0.5050302240071625 0.646441412098519
Ni 4.057938976070927 5.363313860196534 12.239233182396129 -1.3000184068005545 -0.16652469532953257 0.2591191190285021
Ni 2.7570684975541884 7.466554854350964 3.634499720954711 0.2178714252326248 1.3710998961284129 -1.1242045728596124
Ni 6.187620086619564 8.941142760750243 8.144173809193932 -0.9033306133552379 -0.5012800129361109 -0.3745639649630839
Ni 0.5650674463471428 1.819407601056728 2.6398534401934786 -2.888026850027691 1.2709515713415853 -0.4060751481974877
Ni 3.88633415164544 2.820660653598407 0.22890849520129108 0.9367287291997093 1.0503421783525073 3.3042730252209096
Ni 6.9946253005903465 2.330452891953867 13.179830318500198 0.3403140426412784 0.43274828661329984 -1.9310457983368483
Ni 0.8884409585974073 6.5392522294292705 5.9628911958789 0.9952148983610603 -0.04047919106096899 0.2229858636410547
Ni 8.838900198727442 1.9184300714665758 5.3668280411013045 1.2969971034757277 -0.8936606943656417 -0.1545652089748112
Ni 0.0921876863620101 5.96778834098507 9.74831363261325 0.19147725150981218 3.523505335356803 1.7916434131454047
Ni 3.389797886252902 6.566790527356219 0.45509759511557485 0.5547437891822059 0.6267331350363142 1.2993031259010848
Ni 1.5877006042715798 1.3601815879079004 6.430138587528314 -0.25468576584749686 1.1373010010322542 0.6285359925730079
Ni 8.151457172478024 8.692711762148694 9.62173145904319 0.21752484052648344 0.04876508521884505 0.06567703048283527
Ni 4.076775581344379 5.067809961657673 2.3832167919527985 -0.41473873740975664 -0.33859577439859107 0.030318962698515525
Ni 1.6715532789325502 6.318071023436748 12.436358628847733 -1.723522291997451 -0.6554754972763291 1.4652279828630894
Ni 4.539389205323017 7.341604131820642 7.304264098382824 -0.08468391060264124 0.1707896412534736 -1.615604864788166
Ni 1.2102425821961469 4.790193392830066 7.9126138570546924 0.8691444543918322 -0.6911827208699516 0.8712545587562994
Ni 4.671896905858301 4.8883968804019355 7.649070763767852 0.70673532389257 -0.4369738946588732 -0.176142935145587
Ni 1.9524550857352228 8.402410265955613 13.36393393782798 -0.03680482753317532 0.9046537030420355 0.9760660933467513
Ni 1.6534146703960098 0.5206041235435631 3.9108738555906175 2.0024725868192674 0.2656407221971038 2.904414033136462
P 2.432127749963978 0.02861228223947705 10.4502675456919 -2.6929333419215298 -0.1986547430948579 -0.8898590612313642
Ni 3.2870155400868906 0.5325528970171725 2.3088177850965574 -0.22649027724988735 2.016781804353088 -0.2673865012436169
P 3.321012634486061 6.203041161193729 8.700149615377223 -0.5483630824668426 -1.293348708089863 -1.2810871171136904
Ni 6.072338945551258 6.414348040014743 1.2716206925908828 -0.5904350719362282 0.6081134630525978 0.5640432122062609
P 0.19732367752488683 2.639805045753053 8.001137525879075 1.7405445375870603 -0.19068252352265871 0.38196025742715506
P 2.715021174122638 3.098416821773398 2.089625404473075 0.7716705911133742 -0.8403457849925849 0.5505582903459486
P 3.787730479277739 0.1847522909619524 4.938660090758093 -1.4645738942188584 2.2008727907011583 -0.45329577174734836
Ni 7.544972461087184 2.67059135516243 7.273903101651804 -1.2791644461696807 0.151075707764314 0.3826143460713862
Ni 2.2582986426035334 8.529817936999862 6.053131006013769 0.8465359729636969 -0.9621373990808011 0.10972516984198522
Ni 8.577691206528835 3.9434302847248026 11.4023341641769 -0.11304112158909563 -0.31390752762329166 0.33549785219955763
Ni 4.066864027680236 1.116673792957368 10.191886836271259 2.424057657726896 2.3335224305498006 -0.4623632812662553
Ni 0.6068988561214083 8.733186266266403 11.32691329009782 -0.36590911750156335 -0.1433055769005919 0.023693744072514032
Ni 1.5078125510762663 3.011344055499476 4.407283550908195 0.8623482574056053 0.6890453628119746 -0.1800121882930061
Ni 2.4084889271405747 6.783765139680955 10.488897477099533 -0.29774608737208075 0.7211044481300484 -1.1530024709279112
Ni 8.247696962563383 4.834530145558685 8.47887348182848 0.2161176757663117 -2.395243047488049 0.6758445478509845
Ni 8.2676038295001 6.4344410394146365 4.841091314885653 -0.07475662418660028 -0.1879260438234441 -0.5638267253200806
Ni 6.871694115285489 7.781193170104359 3.2376736854234576 2.3755985337842445 -0.49772469148468473 -1.0359324306850803
Ni 6.938562202681613 7.429384201454636 6.446442860640251 -0.6221177477514899 0.16502959884124482 -0.4275870541273346
Ni 5.301722628131462 8.199079163181707 4.823601377983282 -0.004087539805812315 -1.2800972423965955 0.6207370653538794
Ni 4.8754420609648585 1.3116847746272882 12.513249949385905 0.5660697557179863 -1.8682926263690276 -0.1542746743175859
Ni 6.875435377795335 2.7990320613773085 4.875280125721895 -1.914247495832587 0.9899037705607919 0.5416620162975834
Ni 4.013788355805484 2.662448059898462 3.843476221336757 -1.070790161794214 0.6440019494190908 0.9428944916907891
Ni 8.481758535007714 6.9367567177888025 12.023282298618863 -0.022903901181367006 -0.4365283224810224 0.07117919124798709
Ni 5.689054977378404 1.2578645728998303 3.4226632952759597 -0.03187987942773219 -0.8122976206061171 1.479755229944987
Ni 5.3787349347707 1.403922716754356 6.348288698171121 0.3499096567495135 -0.24800758249637286 -0.5366900170042886
Ni 3.180789743352116 2.7556166643414124 11.8723875027087 2.827189921245976 1.2722571775268865 -3.718918431585912
Ni 7.177909937080153 5.010760361694105 6.769673981556186 -2.749710241701258 0.6039547036892179 -3.323594865477973
Ni 5.330005455911117 3.5389086025035206 11.751295306140026 0.7276581900881662 1.2063410344500516 0.8563046223146865
Ni 7.095760374457246 0.14709210968747027 4.830249098905628 1.9069944138145998 1.322265391124213 0.7876649096591015
Ni 0.5219973250304385 8.062011217298602 3.495713772436488 -1.5070629166210046 -2.6356573910181966 -2.202621912181781
Ni 6.0333441945158 3.621253604212762 2.826491253007408 -0.6705686441640258 -0.0885819601054668 -0.12383101311574804
Ni 1.4990457120606577 5.535495695257868 3.6962305523671657 -0.21864789838733314 0.6563445301448438 1.970204727924497
P 8.540166901952471 3.7463997658294184 3.888983747258756 0.6317658123642153 0.07742131550295699 -1.362410338774215
Ni 2.7487390698270437 4.774744398386423 6.202637253748636 -0.9197139398092676 0.6637719329571665 -1.6810312127127758
P 7.735814075581951 0.4759732815231246 11.672414229570496 0.8423458461417492 -0.8360715830972633 1.094018279084219
Ni 6.727608975540634 6.8815219093412034 8.91503768278975 0.46741472764723374 -1.6442179005391684 -0.03865576469898504
P 6.024298156805427 1.5612604878773713 8.590390093829043 -0.5003029937348223 2.4377099584030084 0.23805998436535772
P 0.0006449489849062449 2.9366118715341485 -0.18177882486270933 0.7993847691991911 -2.403025005426313 -0.7611216119529344
P 7.289440509015455 5.50235481018931 10.636319041246825 -0.0029153738745820758 1.501443256441382 0.738215139668406
Ni 1.496179272127741 4.627290261058074 10.666844765207754 1.5464162216076465 -2.031974967153759 0.5450183343643258
