# total energy = -381162.48724680516 ev
CRYSTAL
PRIMVEC
9.34385900133045 0.00000000000000 0.00000000000000
0.00000000000000 9.34385900133045 0.00000000000000
0.00000000000000 0.00000000000000 13.67568214019760
PRIMCOORD
 96 1
Ni 8.670287970035833 0.5828446781037836 3.320044927759801 -1.7232656959019546 0.31993367921271354 -1.05281917913809
Ni 8.012648506091411 1.8891320107530283 5.065896340234625 -1.3785787210039615 0.9174084316045426 -0.131199023445045
Ni 4.2030732140378015 3.457171660689567 2.4390302430344706 -0.5837365768701303 1.4292351097082483 0.5832025587435311
Ni 1.065097110845968 8.684602761584282 2.733946718052121 1.7004543544343942 1.8558220047058427 -2.5900416500616106
Ni 9.172333498689948 5.030499934657713 1.9201610967674447 -0.29595659957182574 0.03129315368632675 0.9880551473878274
Ni 8.346000009539468 6.889974537855406 11.600615501046756 0.3212827370414402 -0.5171012962390836 -0.6522521052430251
Ni 8.819836428738776 3.9506208393276427 10.62703027366501 -0.5507981742708965 0.5917044255669551 -1.0365608082976987
Ni 0.10478857230964633 0.2649105415323171 0.5615799244445424 -0.21561733909112546 0.58006529866613 1.2831982499194226
Ni 4.080463100004686 5.819560771401692 1.7858524716255455 2.9504498923496025 -0.11072430053046091 1.1050621956032065
Ni 7.2964137041572235 3.7337405347382013 8.367397445992436 0.629392169925716 -0.46328579308052464 0.056626747355108926
Ni 3.8800560183264166 6.51457567019846 9.787056619565167 1.2922102236100454 -1.4811392547767073 0.614193864918723
Ni 0.2922815068605601 8.552228315195991 4.927703473025697 -1.2833617720804802 -1.6608976751876945 0.90381860873525
Ni 4.316227343053274 7.2940403640441 12.177743606389875 -0.1604023844818786 -0.0878337690855326 0.2415119474697002
Ni 2.47303908559249 4.964476228991047 3.8850699329118585 1.0009379168877663 -0.6265410736301661 0.37041446157108465
Ni 1.9336554975208835 6.942552430833941 5.549646593528517 0.24527655671845502 -0.5636778584470421 0.5074120939757778
Ni 8.687760985829305 1.600733811573627 9.080077844072164 -1.5583160583690259 -0.6732549327469372 1.2311624643691055
Ni 3.3234610425053055 7.70772102084856 3.248986751018524 -0.12144245827891342 0.4796138408165869 -0.7422543427347862
Ni 3.3657046277471676 8.60730101845092 7.198140604528212 0.19398330576111755 -0.12142728877026186 0.36398361834407633
Ni 8.23700389765132 7.0282729906677925 2.8737392538727304 0.8693295738194448 -0.5873219802285433 1.7842005837141144
Ni 7.852382641444557 9.06603776196988 10.31130035336396 -2.678929828553586 -0.3951176207447195 -0.7702469712929703
Ni 1.5866339287755802 7.471293363831343 11.712045688129663 0.5702855935715468 -0.06595470962425415 -0.058429090671170344
Ni 6.549306793035001 6.582655024782005 13.161790217986791 -0.919584613320255 0.4311642299556316 0.42531342760180946
Ni 5.712779154028544 4.915149998844665 6.7776819126132795 2.2528275865018945 0.9512348932356843 1.500537456797661
Ni 1.4487933250401344 2.6213821865214446 11.264864494681177 0.15535762296911954 -0.5687619578381689 -0.43703174448000215
P 5.563557730380559 4.696914834741826 3.7070806370580245 -0.029707811477077864 0.08510325752824698 0.795227809608024
Ni 6.008091808655629 7.3514677196947265 3.6865531138512453 0.618075202251 -1.0239536610566493 -1.1693816836168829
P 6.080067552322531 2.6424806194955925 6.903347468445575 0.13993434643551383 0.970642865448651 -0.6113201429153536
Ni 3.8250954413760443 3.755605164126823 7.991384686818041 0.580327036967949 -0.7646859322654249 -0.15575820084164788
P 1.1803536080718846 8.75562543166245 6.892653422148448 0.828982794571282 -0.7493284759727482 0.14776721221637132
P 6.545326309223226 5.126629553097942 9.80575087769244 -0.2705430445947276 -0.3459349883724816 1.2847666228478067
P 2.7166708576774963 5.630385007896551 12.89012313221904 1.199067897827406 2.0908365173766574 0.7200351263252697
Ni 8.91621833136426 8.413387918578245 8.283839055064792 -0.8210141745435087 0.2231514426846415 -1.5870201111719378
Ni 8.80576457751687 3.7380667413223607 6.347362646598428 -0.7307841373116576 0.8794815746517822 -0.26713504735444316
Ni 4.312891585492703 3.173398671573143 10.277944646529987 0.13550125036482472 -1.8824624901115063 -0.03722237468656815
Ni 0.2783311258019226 2.96592763270778 -0.002082746107146885 -0.4669650417043248 -0.3888078764766078 -1.559791871583604
Ni 0.6186139036433485 2.9432687753285465 8.15846035569499 2.4660247461873013 2.0351178836581143 -0.22087473083532283
Ni 5.353236814607705 0.1819501575623111 3.15220399685425 -0.44743339942930044 0.48425442491239185 -0.22390349035931761
Ni 6.544653551395884 5.29045542791448 1.930541189411812 0.2622206407719613 1.5546938882354064 -0.10980256004713992
Ni 0.7491121032020511 4.882633370523125 12.41911883659567 -0.2194685945164156 1.1640049926860019 0.27778095710406353
Ni 1.1886789861852443 1.2349497745324465 4.709863554146421 1.762983069096235 0.9169770004940788 -3.5746270937332825
Ni 8.979345440829869 6.270065575394423 6.9942772295119715 1.2570714709253834 -0.30685139210745865 -2.874614947497159
Ni 5.2022494016629475 1.635586404573438 8.611795414491915 -0.4678610711560329 -0.32631052927333476 0.03257459150191164
Ni 1.994941866820015 1.3290330879145102 13.48624636793999 1.0463631391001011 -0.10945314712752117 -0.3819517727867228
Ni 1.9863455168039759 4.94332173286462 7.42155974144507 -0.6479462787788196 0.5286098110993154 -0.621976079967303
Ni 6.520023139828189 8.909453377655986 12.549257297593918 1.0696174816423514 -1.7385043672285803 -0.03197038225900945
Ni 5.658379208600957 2.162243657077821 4.424916976375634 1.0983747562807018 1.1120980194040653 -0.846574025290484
Ni 4.251231461845047 6.349563125325361 4.802421015400638 0.1436444482972494 -1.143785066094701 1.5493994726056863
Ni 8.231780680630704 6.279428121824936 8.949105910876709 -0.6999486399880397 -0.7959654591049969 3.2332506712657607
Ni 6.800740687145433 2.571971861646645 10.635837794887964 -0.21826274713377247 -0.6727458543210026 -0.9922946393904718
Ni 0.25109377765327673 4.87892385861403 4.399576431545745 -0.07297022171013885 0.3551030280249949 0.10066151697782019
Ni 5.477584886361456 2.050976987522392 1.4173746001173824 0.8110161827905322 -1.7173287615922295 -1.0872287669662115
Ni 6.9385626031634535 1.7665966475896178 12.847756208042165 0.36614900142651136 -0.4100991817552163 0.10008379009747925
Ni 1.6382587481653808 6.977433055409891 8.810708413161962 -0.4058715168271139 0.3440817372138268 -1.4054480345909797
Ni 3.3540621797906622 2.0210486080643775 4.006469082855758 -1.0176099782268089 1.604710329362849 -0.7889679447412412
Ni 4.407171119907741 4.015728846840426 5.418906388029146 -2.4302730425089885 -1.7317187117653146 -1.338640747158443
Ni 7.481823892600991 5.7656653943446114 4.846989352690316 -1.029108980005344 -0.17550864399569774 0.6399720023240913
P 2.6620746912169344 0.610080157480687 11.506253740675042 0.10286263839419704 -0.831104468899975 -0.9755583004723972
Ni 2.4575656555636196 1.667719934687741 9.325064475670567 0.9314327709080926 0.2290886341046829 0.38549963803898124
P 7.610927988439701 0.9223855535633905 1.451181615327199 -1.4046921302615614 1.5057274856390326 -0.173317806991966
Ni 3.1518891088156193 8.536128846633344 9.625135957540227 -0.518075744337211 2.4774548424011136 1.3863593933906444
P 4.836680273372168 2.394242325065035 12.558173207577946 0.3199961570195327 0.7867915059152127 -0.17718423192590776
P 8.157384877557114 5.394265698216866 0.1744675955048718 0.03665750332203364 -0.14404862571420352 -1.6117050155131276
P 1.8350684442391125 1.514424588640851 2.332318704601671 -0.16474266372844532 0.6793556463280364 0.08383673211099754
Ni 7.2718580434592335 0.7423742466840447 7.366543101342419 -0.5094854315650387 -0.009823928068957275 -0.4247940647632297
Ni 1.8537841932414236 4.023063775930199 1.4237751433358463 1.1687350511718195 -4.463629720501623 -0.5456572534999055
Ni 9.173361323148388 9.206018109350623 12.01169295881375 0.6125463020129709 -1.565128967525801 2.5327507867599413
Ni 0.17852563334396507 1.298403919053014 6.51793945933517 -0.7121477531573929 -0.5637850734488677 3.884226223789207
Ni 7.5849146857824685 3.6224271458892074 3.523429897209932 -0.6329058395059293 0.696802123939258 0.44384413941614526
Ni 2.4519406526183416 7.633670940547352 0.42139681532972606 0.6966792252081485 0.566207052626799 -1.1060914081986692
Ni 3.351212302883171 0.18791621135061656 1.4556946990856197 0.1368153411905579 0.49340446684277606 1.9682260069315716
Ni 2.5734949106168785 1.435515701808839 6.995192927665855 -0.15814032792057928 0.7195597293507479 -0.10064660457948474
Ni 9.17012834803366 2.6274276631088114 2.197449447936987 0.9290758406401419 -0.9779903069526575 0.49363072392096924
Ni 0.04646140306494917 7.335900851078725 0.10740765590692437 0.11440174938204814 -1.2747629746678755 -0.10002208362160839
Ni 6.702134946146237 4.22895570267305 12.400643224762284 0.92169420346409 0.5323032007905026 -1.6761250336604103
Ni 2.3730878289386084 4.5845923091518195 9.90727937769709 -0.3753116417623859 -0.45999915190945295 -0.46814620649661953
Ni 7.233520191159442 9.009058911537483 4.974830158831017 -0.9988062152567444 -0.4898422034128145 0.8321208259796314
Ni 4.405554632350377 4.888062152435428 11.58780133320763 0.7376343274642715 1.9972303645837215 -0.2696616704310388
Ni 1.68576292586271 3.211484239687682 5.684515850193202 0.4999083293995649 1.4046846740623937 -0.053909605534261995
Ni 7.302730152647269 3.362527715784718 0.7425003887766715 0.8033967185720615 0.38048033044751894 1.5725604841031822
Ni 4.404666965772634 0.2344589059863696 13.124072797905546 -0.6251686187626717 0.7068530804173568 -0.970567017905393
Ni 2.0680295296737743 5.982555042792765 1.8351805705436695 -3.737792642782595 3.4038911885358796 0.5394675797494257
Ni 5.2034173840020825 7.79019926170897 1.45842964653094 -0.9145169689893605 0.38389706943855173 -1.2597531315226047
Ni 5.236625457868391 0.28933445382245276 10.613272376095862 -0.28143243781372174 -0.17503813211718242 0.22590946504575285
Ni 3.3169016536887193 0.15280572785032434 5.009347307303028 -2.535537862586775 -2.4472770332661526 -1.2451531222212429
Ni 4.021363193644417 6.470715597399233 7.491100475531343 0.1561541507284859 -1.040360641659763 -0.689462138634419
Ni 7.4457752856859045 8.132483494086738 1.2802189012256058 -0.7280523402027912 1.4606820153636197 -1.6404759169982328
Ni 4.994544766329757 4.620883856393445 0.17900403891007508 -0.5801959107067234 -1.2956598727215427 0.04113996457341947
Ni 4.894733667556572 0.9857677503718671 6.195945416152868 1.3305219747060504 0.3818065054581102 1.9059119793836985
P 8.906594156889781 1.761532276167125 11.433471622001202 -2.200328488161914 1.9961543579107233 -0.7321180256317328
Ni 6.673617489353898 7.309140039724447 7.386112879031107 -0.6071189603498125 0.4803391490183856 -0.03295717165231098
P 0.7660543878206187 5.9322944267750755 10.366454348189693 -1.917526166583859 -0.5478375489806758 0.4844873668588042
Ni 0.7732734530623491 9.29062674999762 9.920585966890394 2.2012011205748543 0.05276289352432848 0.5727080869701104
P 0.9291635886738632 6.885181138335593 3.471571481352304 0.9208745357762721 -3.5982179936793446 2.3870697676486374
P 5.021511142575724 8.333217610819968 5.320769708737346 1.1531937610031107 -0.6562715108150633 0.24529969664690654
P 5.124863563801169 8.343682732578623 8.73974554377956 0.6337044241478248 0.11603671388230984 -0.24430493683380508
Ni 2.8579780329954967 3.530016383216786 12.744449571724415 0.6731112080802214 -0.640593180847858 1.0296882495475816
