# total energy = -340897.8831067618 ev
CRYSTAL
PRIMVEC
9.01830345332725 0.00000000000000 0.00000000000000

0.00000000000000 9.01830345332725 0.00000000000000

0.00000000000000 0.00000000000000 13.19919868803059

PRIMCOORD
 96 1
Ni 6.421690501310239 1.986921668058153 11.295782387248114 0.008454044304624151 -0.2704209171945665 0.6876816496952286
Ni 4.534781820206416 0.3020013437269448 5.848868598562805 -0.29699429680772077 0.9188292232114692 0.41807191554804773
Ni 2.641010210060912 1.7651525641632995 4.7137374295776455 0.15362932742410315 -1.1043466575934207 0.16252148770741043
Ni 3.3972490769718484 4.345334316423765 4.8101178438407945 0.2659299713027484 0.7008716660229414 -0.44610748152902524
Ni 5.278602483056387 4.902611369251164 2.6772069752312087 -1.4471824382152882 -1.133959081143215 0.2980222238516028
Ni 7.215977591121114 6.114977995781226 2.4894350722579452 1.5275872618266015 0.05633287026377395 0.790611136771619
Ni 5.113233849893038 4.72987478204438 11.535162434418389 -0.7646743623011992 -0.7254624679884281 -0.35419697127095773
Ni 5.503149224460882 7.73950815186708 12.258360040589626 0.2817569110326761 0.480641767860469 0.6245011603820018
Ni 1.7283218122497304 6.418741516032145 0.22464504091376575 1.5935715391372103 0.3325544533005176 1.24078070418516
Ni 2.7737866940039773 1.6408172123923936 0.46553565393749813 -0.22324554506034458 -0.17372738372555885 -0.5644008526559957
Ni 0.5211289864965574 0.07227629239375848 4.6331958619319815 -0.07941006379821162 0.0992083294710614 -0.11375254583382345
Ni 8.483500162485504 2.233833802397432 1.3417513264881389 -0.01896240003511573 0.36886357214419696 -0.006468124222846925
Ni 6.817675194202726 0.6100278160908769 4.878991530285242 0.5767717155165227 0.9840575961926601 -0.8153235519166346
Ni 0.6147516035179893 7.286311340918844 2.397806402163078 0.6757082793834364 0.14609265272742583 0.041493748368412416
Ni 7.563579085184928 3.8683472205715135 3.9411095995294594 0.33481496719992015 0.2414039611369262 -0.7605364288734258
Ni 7.691485685182517 3.714467906198048 12.638998286241337 -0.179350129228975 0.08519556013173714 -0.1087311813598321
Ni 7.955649834313828 8.857408048158494 6.9660091536908695 0.00992137287877001 -0.4943411197244325 -0.12345511783356804
Ni 6.807709968721704 0.6630184662301868 0.1821093101411064 -0.09206786177153821 -0.7176362870757899 0.4917463624140628
Ni 1.9022488155320754 6.452118257665868 9.217502598203177 0.8612154293527425 0.47212807396250306 -0.16469869786438732
Ni 0.13885121324986796 4.6797690872275854 1.4895036053939061 -0.23115065884003416 -0.04082654709805872 -0.21049955824858588
Ni 6.498192770772239 1.95868535947799 7.023689321703602 -1.2752265445678552 0.09415893997261203 -0.25214603014477865
Ni 3.4012532037714625 4.175844318513965 0.46479795670279445 0.2638275802477649 0.8666602545173977 -0.48158407716908025
Ni 6.094596629639045 5.632615990981745 4.7789415682861405 -0.49478257813722526 0.40227685749732006 1.2038501497073977
Ni 5.4524843948207184 2.8048276950045907 9.29886212598561 -0.8455131881261374 0.46224166808672645 -0.7968152086998019
P 0.21503513659469145 5.402937834827292 12.416658323728432 -0.6342541260037077 -0.4913072179941151 0.22556545144277285
P 3.9343161114255194 6.167726053553622 12.754345996641758 -0.6442207502981163 -0.10694297911115774 -0.5639352258734868
P 2.4043338503107377 8.342084143691016 1.493502321211359 -0.23042097976286122 0.35324206355685617 -0.4633387578056472
P 6.341283306388255 7.757517704161741 5.862120995707024 0.20213755943713574 -0.6614062609384673 0.24415349885760534
P 4.765830758508484 0.9213008777517934 12.39159285069499 -0.03937413092224831 0.02866085826980225 1.215800122980422
P 3.9587016043673144 6.155641526725957 8.1566425703687 -0.33971574693564716 0.4783910241530793 0.5955461679105485
P 4.567184585051042 1.0860382296629516 3.7390824640513527 0.9622798381959363 0.6787079854417085 -0.13102393131976145
P 0.16928708607873794 5.552506400078651 3.6275756491553373 -0.13619596243900417 -0.6547278204770273 0.042987559305119515
Ni 1.3749846770945773 1.0922428225416332 2.430592444910821 -0.29892776638500773 0.07687598452244825 0.5991950775170455
Ni 1.7915130655940936 6.55850718526733 4.760726398669337 0.44481858751427267 0.25081342737628415 -0.11411635693114541
Ni 5.913536148206937 5.458066724750811 9.175805569665572 -0.07764397303672435 0.4913617253811345 0.20157834449955608
Ni 8.604688126299054 2.223038892984958 10.202663887426656 0.4721365586029353 0.36647064643198823 0.1757963504394456
Ni 2.358529886312447 5.263776391933491 6.828103960488928 0.0018517084967581015 0.27283955393838816 1.257248619933196
Ni 0.5065779536335446 9.025518245617075 9.147770369255749 0.08824951646671254 -0.16975142979694638 0.051051567260176595
Ni 1.5721789036719782 1.1897397027907999 11.492951362575429 0.11067647801166101 -0.10060161027416223 -1.2492584026388678
Ni 4.21364904721663 6.94203760088444 1.8117880157537622 -0.41052032845303493 -0.08091827291262192 -0.9438152037328456
Ni 5.768332441899302 7.691215136074435 8.00762412163711 -1.2409578531929726 0.04445643054116214 -0.20446595045999624
Ni 5.297595030443747 2.9140032784192993 4.960259071370927 -0.21190595167780926 -0.40002225713518846 -0.30895224050054537
Ni 0.8257582638933392 7.375105558191372 6.953086826458511 -0.43227134697688135 -0.48515611079105475 0.5695528291705804
Ni 4.931993002388874 4.625415771413902 7.019730286422001 0.21260554884799515 -0.4009735653048643 -0.45985311324989186
Ni 8.18084589357772 6.958523059870239 9.286969689024684 0.07390018972357595 0.9752307419296496 0.17316225525070822
Ni 4.513642916561605 0.5079911218080932 10.334325709044423 -0.18432289985321804 -1.334865596386727 -0.7591416054084281
Ni 8.172621200692026 7.122602075618397 4.779865944405421 -0.02260462477339333 0.1596423663874025 0.09660354485836267
Ni 7.471087363435279 6.1018563640392465 7.164947520185039 -0.904264695133733 -0.2739775241975733 -1.1523897770445766
Ni 2.368251617596195 5.424563726866651 2.459749522288823 -0.13315100496509327 -0.6683464397017264 0.7767852866321202
Ni 2.458633056302804 5.152833221012646 11.28441752104795 -0.15614592319836978 0.18351917300500006 0.8770223144780122
Ni 1.114734471726854 3.4493297802776426 3.739279964900253 -0.6987397072816031 0.35132299215727236 -0.08124274613157623
Ni 3.7577377268839705 3.0103187608965083 2.779262607951558 0.1475476400063975 -0.759679223079453 -0.23952962693234875
Ni 1.1129217927027042 3.319403080273041 7.998793398749312 -0.508482187111505 0.2700673905098897 0.5652991961005489
Ni 3.6037952843852854 2.6132067800536802 6.9737441526909345 0.02765709959563624 0.1909864279163227 -0.0764923759307844
Ni 4.195882989119242 6.998618437687998 6.026305525607334 -0.27913387158753217 -0.8505816037879802 -0.1419205236276072
Ni 0.7135335920305459 7.181022646356914 11.323816685827577 0.6558899591059285 0.4068662766402154 -0.3766632706942739
P 0.30891297160808084 5.489621769056781 8.200886367843717 0.030951968296824114 -0.3501004326040809 -2.060549693467658
P 8.373404712103316 1.7035846054674284 8.051973433264278 1.05065148206281 -0.4561016166272597 -0.1293339452118482
P 1.7648279052336011 3.2395099286564126 10.20445943167396 -0.07877294443484498 -0.6602808890847726 1.5409562269343398
P 3.9248108194282367 6.310088994226396 3.904745093912151 -0.170620462665461 -0.5912735086771237 0.05919656496481419
P 6.9067399605833355 4.013072956788203 10.497930362023078 0.29885500416554334 -0.4865571049036395 -0.24935946853857702
P 6.322092356321636 7.708034272293535 10.1679894119045 -0.30075016430572726 -0.2899124502602749 0.5130078428960003
P 2.2647665837548123 8.559939303822283 5.847891916282629 1.0539864599733137 -0.2716671308968418 -0.866492618591282
P 6.70761581703495 3.83720701823127 1.4761321666421312 1.116614162106864 0.17644581109798643 0.03667807214732392
Ni 5.138728594177969 2.557013730305039 0.548434606144918 0.3289639077357818 0.809406157990935 -0.0977289167120575
Ni 1.2647088606403352 1.0259222178471208 7.000709782293472 -0.09076431246876626 0.8309034086327626 -0.21584102506615732
Ni 6.778625939602883 0.5713636430548715 9.097085699347659 -0.1692991727508762 0.353335651711927 0.7073778425725753
Ni 2.6129001577311874 1.585796542112108 9.08106197750632 0.07715957720113809 -0.3987079091991391 0.5113381685030612
Ni 6.310440708066903 2.0917865023507543 2.7529967987085926 -0.12976923297705392 -0.8074428636169771 -0.3167581096982093
Ni 4.12191486296961 6.91193450345851 10.37573144637566 0.03204597269195126 0.06387520138740613 -0.37197280719714004
Ni 8.085883156640921 7.059753517810938 0.2970493932186831 0.21717311361401953 0.474063600422319 0.0030773533737430874
Ni 7.674125450747252 3.794748844869594 8.303523681146444 -0.17410507877995177 0.39138669294737755 -0.2512515433549673
Ni 2.9879804228725337 8.410037061337626 12.425237435945713 0.8208354828737993 -0.4964797633339901 -0.06381529468374816
Ni 0.05881917975775748 4.7358088258149795 10.233945677133462 0.30835523034649476 -0.45101366058139103 0.5188100514000742
Ni 8.580050120856383 2.3810756453192843 5.624759244883042 0.25931375153781144 -0.44663327212550824 0.5370096051272365
Ni 3.736616859846365 2.63384967700034 11.463583256893122 -0.5025953893134247 0.6496918007150166 -0.31244816946894577
Ni 1.2008863260437803 3.375415763949627 12.510293566374907 -0.35437437738908645 0.11304060736846337 0.44199320225033556
Ni 3.121063529138093 8.436018794017103 7.923321019558743 0.2104576492670569 -0.5892341096495917 0.5173722905122832
Ni 5.686401153668456 7.884982407282797 3.700580620480197 -1.016988799703042 -0.04001407849909238 -0.4910282533011156
Ni 3.0018776287243485 8.56783933777828 3.628103219916097 0.33172244431752546 -0.7763664539271469 0.2895972330127013
Ni 3.3694276103574112 4.238665821410616 9.264583553991613 1.202928923444709 0.18097686619912057 -1.1239903999662773
Ni 7.276499426599068 6.03561692407716 11.43799021309892 -0.16849081791696788 -0.0053946886530100635 -0.2759259061731958
Ni 0.670669595006747 8.889386952733792 0.2048841340594531 -0.13155203590908957 -0.31593252847312037 0.4430175297497918
Ni 4.503109537953611 0.3385624483627923 1.4758949852573795 0.46961070685728795 -0.3562155443628833 0.5253514520630178
Ni 6.003187104321724 5.654728871415651 0.4175131872529349 -0.43105701495380605 -0.11682527122187622 -0.20473848739509254
Ni 8.041585249344289 8.73802374506549 11.203955314473989 -0.7486972701466525 0.5601294789741514 0.35992230379050916
Ni 0.1105138996693544 4.774578513003137 5.938293195257165 -0.3163703873414874 0.29108924417719545 -0.47734947026244245
Ni 7.830151121378169 8.729239917356425 2.383920920105947 0.19148702170182505 1.2014330556254729 0.6215986420232263
P 8.425737927909987 1.6475538851836364 3.4729072332166324 -0.22432643682934916 -0.12316921116203304 0.895227267521813
P 1.8837162016284552 3.18278479899521 1.7095601334346004 -0.5097070606575416 0.3893323815215101 -0.8459641596206269
P 4.608777001266856 1.0692010568366455 8.13859965035071 1.128697061413327 -0.016508539177984474 -0.5248655135655348
P 8.632166897376587 1.498472308326826 12.4193899678897 -0.5540837870007038 0.7777489360969703 -0.289668709680585
P 6.234199969409381 7.7495996335985415 1.3911166185791495 -0.10888107667413507 0.21201650911374456 -0.5377950771430092
P 1.7967436816836797 3.305587039153651 5.911630580655679 -0.4405880943726928 -0.2652630271427109 0.08470165121445412
P 6.8063121316632795 3.980805466497617 6.129919521190237 1.2390642357146855 0.4369751802104539 -0.2534025282596991
P 2.3660691881243334 8.468430577165332 10.194612345970135 -0.16820619679701354 0.20824881454119618 0.19227275082791404
