# total energy = -340897.54805584945 ev
CRYSTAL
PRIMVEC
9.01947438224299 0.00000000000000 0.00000000000000
0.00000000000000 9.01947438224299 0.00000000000000
0.00000000000000 0.00000000000000 13.20091246086240
PRIMCOORD
 96 1
Ni 6.4502408552694686 1.8984189175596562 11.291426464373432 -0.6792569159666431 0.588198983516858 0.36541520858428034
Ni 4.413129483817211 0.3779736912144716 5.8624065494392665 0.321944024774523 -0.5757409602591632 0.6460819718765712
Ni 2.5525833381828353 1.5447743558977571 4.79907278238419 0.27373378361788336 0.48935729335659595 0.3501773085886034
Ni 3.329719269267856 4.189031629267196 4.918422072030316 -0.4302180639922784 0.7797428265985474 0.12071175076047598
Ni 5.231385197518891 4.726898950294147 2.5091500604485684 -0.42594026255253103 -0.7548386071577 0.06393099432600602
Ni 7.287717068369285 6.177897833530046 2.544356675817261 0.483928666141857 0.19225423888515275 -0.6074516610988828
Ni 4.924272102959283 4.504758321633101 11.416241555350044 -0.02532202370455639 0.019513387442579296 0.2057389036351489
Ni 5.606532185537034 7.829922756458884 12.425437732758274 -0.5328130505473856 0.5094175544415808 -0.46991255436842305
Ni 1.8946307384197139 6.471454658453146 0.47618223541747573 -0.2262038563577201 0.1433953084009208 -0.47237952785167675
Ni 2.864413617719086 1.6299001528567463 0.33908171871106396 -0.1796612327114906 -0.3057373331076735 0.8140210310551271
Ni 0.5688185484951076 9.055461844549217 4.7421770375445 0.11053506733779028 -0.0792506554022119 0.23324327970300476
Ni 8.672188310328483 2.233257875633985 1.4298175501591364 -0.041600706259921905 0.8400544790044113 0.008199505091656846
Ni 6.726354017200549 0.7885906632462745 4.909854473542146 -0.0861448114188839 -0.6115212031825662 -0.45067427496410123
Ni 1.1004389817308105 7.475493500546568 2.703309574476654 -1.4316992549780247 -0.8290324168622948 0.27328769721940027
Ni 7.693755755326244 4.025959536766822 3.60780949993102 -0.2673744170587589 -0.983331516659913 0.30561494859719623
Ni 7.59492035767032 3.7828756891463824 12.510953171000228 0.4672823158344275 0.5096931767004705 0.12687905591345247
Ni 7.925294676044002 8.686628488430978 6.8194990286198305 -0.20154851970288515 0.40402829297078807 0.3373037950600449
Ni 6.9011694650347435 0.81027708687503 0.40618570438548474 0.014848892087374428 -0.41383602308982925 -0.42561681777484117
Ni 1.8512019704225184 6.398279664733261 9.223529823777243 -0.008603682508610988 0.7748559308198913 0.4757211906304001
Ni 0.10227001340947088 4.773926488474287 1.2595343880816585 -0.17657539469731526 0.3646942712578558 0.21877439666286835
Ni 6.263393428928887 2.104640174358801 7.0404427730621375 0.48296373112542634 -0.11909889774740133 -0.4426310929446506
Ni 3.4891835721111417 4.111364937424236 0.5907286550826025 0.12884029340488135 1.1406220949856873 -1.0768078287432035
Ni 5.994649177372408 5.501121591231069 4.799561637882725 -0.49321934741516354 1.6189174741011665 -0.3956362122523509
Ni 5.121221340339711 2.8216793492308794 9.127532854634033 0.5526036029107515 -0.03990120707031193 0.5281264437049936
P 0.1813329198497238 5.673700209477868 12.192494479916492 -0.3835399432094491 0.11507023620398248 1.7386714889340638
P 3.8914701578247284 6.019804490756454 12.665522605226261 0.21090759232028194 0.6067955155721227 0.27895749391066793
P 2.2965565451675922 8.566867910763944 1.3312725795706088 1.6316958568127578 -0.36796188626553405 -0.02270438357605122
P 6.151542930085019 7.714780149552923 5.731070378657466 1.2681660381766484 0.15196968033349312 0.19313381327662865
P 4.766828162323967 0.9673836991774085 12.59534658665883 0.8021667028197024 -0.2599303020758878 0.1131442228258632
P 3.926366503282911 6.142279930140446 8.229567538196068 -0.7131561398172492 0.08404524857737783 -0.18466768478714649
P 4.748680980348815 1.1260633077702773 3.8271820519776645 -0.252708587516468 -0.7365655198801251 0.041251807560935404
P 0.22321394608402875 5.588457159355024 3.564998565912601 0.6698019412013303 0.1789348960684273 -0.40932065171797893
Ni 1.5368101602297355 1.1267487878051239 2.635443443237173 -0.581552681844934 0.7105451845569634 -0.3165917593236741
Ni 1.9078262290905128 6.412629648094328 4.934461402898314 0.7018484281139138 -0.24168009761644826 -1.2696691050847357
Ni 5.809930346929508 5.612250532143519 9.100906465017312 0.6157833208930298 -0.2150961764803328 0.6047753998183004
Ni 8.60691437595762 2.120126611461851 10.074672344098108 0.2532102097432349 0.35288930820312775 -0.022413077587877528
Ni 2.201680696660323 5.118380205984756 7.189494093007652 0.22376696478145333 -0.3322659755258213 -0.7612933616441082
Ni 0.6847476535463133 8.886031022778226 9.014770486954337 -0.4975066619366078 0.15128473845132653 0.38128997083300786
Ni 1.6613059618216963 1.1198037927152298 11.36796572194855 -0.5219257142109205 0.053351676148262965 -0.5488166250644936
Ni 4.193748814243839 6.8500200271713805 1.5765580808292872 -0.29673230139558576 0.288628955562161 -0.07956895797357909
Ni 5.5250231977092765 7.842017871284271 7.960982029384502 0.21061448655989534 -0.6323527952159367 -0.007193432424645675
Ni 5.316880792917733 3.0098255798480142 4.89244328065704 0.41385350659132597 -0.3520159044592389 -0.19592011777251422
Ni 0.807703830902112 7.199822292848481 6.934756182847404 -0.6082353333424428 0.27736855215699324 0.46867816774068966
Ni 4.94342946603842 4.486493886494094 7.117852409892029 -0.0008332945345727585 0.09900649787290046 -0.43125730389007016
Ni 7.952226825834164 7.265484064607481 9.006295789049839 0.3828940820953341 0.167335364156286 0.02760053532608795
Ni 4.683479201771094 0.24254267917187722 10.460363097389092 -0.930971772111274 -0.24039017516043118 -0.3558221655792066
Ni 8.127096390513215 7.1572233164724155 4.743008633060459 -0.3071684091272452 -0.06021086516194147 0.03580055463837705
Ni 7.423730738441499 6.078602442692844 6.978609768076722 -1.0410378702324459 -0.09674161309812372 -0.1466240997508636
Ni 2.402742814249832 5.0855493201052555 2.5669306157016596 -0.16224817944136574 0.9099301209496264 0.7058693763478489
Ni 2.170428218755799 5.251516663805442 11.436544391645308 0.6490834777070563 -0.23351273131430753 -0.1827586406898917
Ni 1.0845647072396236 3.4171811100298095 3.847511044747941 -0.2820595298747594 -0.47674217569574673 -0.08927564373838173
Ni 3.7792228021185807 2.7541866242209077 2.8506706449678236 -0.6480138987919614 0.28963939910454634 -0.8087528406776523
Ni 1.0256945995100917 3.2162903624490125 8.400268301926355 0.10222320503798525 0.5683320693896018 -0.7841658953669076
Ni 3.5671659455490965 2.5505810149231514 6.933541259680379 0.3669013062115036 0.01789204978907241 0.23102467478513117
Ni 4.130116424166951 6.879847428161355 6.097422477439043 -0.02755656946202996 -0.8056104383939288 -0.5404001188660242
Ni 0.8573930159017694 7.658904507238774 11.496700676387592 0.43977999664910067 -0.5885861916529476 -0.5441788691821661
P 0.08007849922872316 5.493644447166754 8.30163133270157 0.8012819862219039 0.39897453259696447 -1.4776973189746938
P 8.518622743574538 1.5531263889539153 7.882132884481431 -1.4476634916167648 -0.18144892073953267 0.7923844266219578
P 1.9256938073672407 3.1234619345721404 10.439109608519185 -1.5313924945053043 0.09066841032085031 0.6521706012728123
P 4.059917856914162 6.0661555683758905 3.8087534624092596 -1.0063410901812087 0.44258661285996037 0.03109852117701741
P 6.765967547635375 3.9550033336860464 10.449393612936715 -0.11190083733706535 -0.5232966264165181 -1.2346496515867573
P 6.274730907926286 7.7661280158474275 10.229399619121637 -0.5728024464561297 -0.19766126883333698 -0.031822800937551646
P 2.4278440107890207 8.314620277414502 5.859422907392854 -1.1807834976959213 1.1728459880163995 -1.0310794734681532
P 6.947583678973181 4.009129198016508 1.4223187593568793 0.4356955421670819 -0.13424989445622684 0.4890513320804029
Ni 5.290796473696987 2.694820445413526 0.5660612952496782 0.5583896134649092 0.4171257495846945 -0.2353585262737947
Ni 1.439562190022931 1.110360403287802 7.093509751128243 0.16644010603552625 -0.01688083491573867 -1.4639362606348594
Ni 6.671461497567957 0.7353036100110861 9.083547585082233 1.041704043061535 -0.08792864279218406 -0.3408822564399226
Ni 2.814995918891124 1.5781554296999627 9.08782461972071 0.22168694232397304 -0.5413473132706419 0.6372972837054057
Ni 6.406505425151421 2.0501084336919173 2.6949268752084103 0.035286848226752134 0.26967246906431624 -0.49556367927762396
Ni 4.034582154047263 6.749028975195347 10.522579430025571 0.2976692113875583 0.4262405674017691 -0.2237628510163953
Ni 7.984137725351106 7.492432072986595 -0.09539356632306133 0.8663537790205724 -0.8836429051183234 -0.07927970886793444
Ni 7.600187730569669 3.8550765796588538 8.364731573804038 -0.6458487728198425 -0.4996831007626362 -0.6535420276990421
Ni 3.169280863217157 8.402217410288594 12.42776114929744 -0.16464676158052932 -0.6717683208990817 0.21475396264956562
Ni 0.015039973132985208 4.650080089020602 10.239023398031918 0.1526883036670725 -0.6842831655366409 0.9919544824422335
Ni 8.532629986918181 2.355715276069691 5.787213899353653 0.10096465004053579 0.500316363471261 -0.18860250106517842
Ni 3.7696711790014406 2.457590236511711 11.332401935403809 0.4015487210820439 0.41725944694908135 0.15534502456362922
Ni 1.1688877709999106 3.355677315850603 12.663582516338161 -0.2063546828422769 -0.11397314648506178 -0.3955860757407058
Ni 2.960416900494195 8.402226429762738 7.961417669985596 0.9342751254528942 -0.914411810870064 0.08893780078298875
Ni 5.613071304290506 7.809060712766773 3.484816342731236 -0.20537792075130437 0.03854906391779168 0.8459795862395947
Ni 3.052568867810363 8.481742113804955 3.544920314523492 1.2671908187475724 -0.44626483304249603 0.6076303527685923
Ni 3.275647521782251 4.2866584173879945 9.338932191538513 0.9101041846336455 0.4421130156576515 -0.4296441937666794
Ni 7.171600358255911 6.005355293179817 11.123960084070726 0.43210268260950097 0.32914131385391054 1.1592643926772228
Ni 0.6216185501265892 0.24787409033763885 0.18300422840836977 -0.4136434474630489 -0.48377697105534107 0.6750886435215664
Ni 4.7069117955938795 0.3340254015066552 1.741781317912699 -0.44094804881527283 0.05973315419457455 -0.8676434443662734
Ni 6.070214331740115 5.725453952108794 0.22999568869193973 -0.15773486495204447 -0.682973702696598 0.4897488723680598
Ni 7.9787260408654745 8.968342743804687 10.996821576554947 0.17430948148127398 -0.2295077239199725 0.7194427441569093
Ni 0.1319954943416324 4.930342209057334 5.718832756140624 -0.4023233944645394 -0.7126149226017985 0.2566277200652161
Ni 7.932420060616751 8.771889577502108 2.6018864896891847 0.47191030152474217 -0.2934788274552945 -0.17884824989189196
P 8.350806407675094 1.5880137149379556 3.5851165029879373 1.0326468179552732 1.0449356626249553 0.7923934254830225
P 1.8580838291934134 3.1801132516625628 1.6273025443036429 -0.7715950006804324 -0.5517003743701918 0.3593990842971875
P 4.71135839634624 0.8154254027156943 8.134454477518846 -0.24840481793479158 1.9515446896211488 -0.37749733655979506
P 8.565469892271823 1.7842594333352522 12.302404889872264 -0.5038745131361645 -0.7292347905466667 0.05396437003159739
P 6.435268528192554 7.82533184412024 1.322070912050206 -0.9454470829093136 -0.3978363052274632 0.6660848973610592
P 1.6531884350932486 3.2154695903020247 6.094663420298786 0.0909751429279917 -0.1831707885266458 -0.4649014743070768
P 6.860969668780642 4.104735623929337 6.074888223240872 1.1620416983120438 -1.338015197759302 0.4435772589080038
P 2.4698386823975245 8.394325370413716 10.13658472045598 0.08386809956956523 0.4516304682297834 1.197182764989551
