# total energy = -340867.51459922746 ev
CRYSTAL
PRIMVEC
9.28596320938194 0.00000000000000 0.00000000000000

0.00000000000000 9.28596320938194 0.00000000000000

0.00000000000000 0.00000000000000 13.59094579647865

PRIMCOORD
 96 1
Ni 5.946795721191165 3.7725524812720783 0.18751330850093373 0.8150846964329511 -2.4464928468019607 0.8751862897105379
Ni 7.382693469284974 4.1926773062878135 4.102617393916505 -1.5775756779295862 0.7679190944907419 1.5868799860496479
Ni 1.7166681260346113 0.5369988842100978 12.461334292966502 0.8459993837339365 -0.724408572802617 -0.643766179259201
Ni 9.035975611729695 4.615383629023735 13.458012490281918 -0.3227626640210764 -0.1808071733904757 -0.0819063478575041
Ni 9.350593324886606 8.360198938748347 0.10300175903542068 0.33859988816364905 -0.23666258979719887 0.5149035172568164
Ni 6.816166151260418 5.864633520370282 6.59395955631205 2.094609354155528 -0.636406139349704 -1.0983233342174763
Ni 0.5515091300286683 2.403179372269682 8.270457534908703 -1.5583587386815032 -1.226496940572636 -2.7082478607914133
Ni 8.088380229160993 3.6224077451652903 1.7641862560120778 0.21101300754989466 0.9157816946343971 -0.44611725172103817
Ni 1.0571047444901152 5.494086451930349 3.7103281716562715 -1.1570406455530267 -1.2129518548983496 2.195628254472767
Ni 0.3804041181880534 2.318788540323458 12.763270166423922 -2.8810370489734187 -0.24652148486914963 -0.050792400061518986
Ni 2.722272919603318 6.544691022304889 11.288285942776854 -0.5740219206855276 -2.499789501342572 1.2681161587753191
Ni 5.0754752388872415 0.5889854195938719 2.5773190368259686 -0.6820108245626965 -1.060771086995315 -0.7421149889434445
Ni 2.5759725721877422 7.162402568508096 3.4950879061671962 0.4673859312918273 0.8878253186307871 -0.03319911245978798
Ni 4.459416594101994 0.11941005569573948 7.757535295622699 -1.0545541595513257 -0.6873188670391712 0.7956893226254749
Ni 3.965301215724957 5.143699209211725 7.68550315186279 0.6877675245408156 1.1113901947037634 0.09176498581913874
Ni 8.88333295156992 8.089030246572552 5.203252875862332 0.45919876749534466 0.15139015368093928 0.14929187639101385
Ni 5.993541259045181 7.359812856398145 0.7166181955458152 -0.3196889101917591 -0.0823992283335226 0.40935356183844335
Ni 4.268970778478634 5.270044022092482 13.370392000396553 -1.9757775940265843 0.4421803785604772 1.433773363898234
Ni 5.99275195218829 3.0483773690187546 11.447463135115386 0.1492751642204655 -0.05642105910220605 -0.3466600394639643
Ni 8.034521643631935 6.007609493023892 2.6230932629478563 -0.20442481280941568 0.9762488987815187 -0.42829487882763656
Ni 5.6253435392498785 7.022453819799741 8.10383207163002 3.8066010198055604 0.3769687177498346 2.2475586247934713
Ni 4.849399183147501 1.9873168042811604 6.360304297553546 1.1005493953345176 -1.4885895404071654 -2.361324026143101
Ni 3.6988312208384215 7.062318459054267 9.418973299389863 -1.2419114753554934 1.2172767075259487 -1.2432368790351365
Ni 7.3530712472439905 5.203621528594315 10.048044364158192 0.039227835152371146 -0.7200847486162825 -1.8838783966224264
P 6.362268278732753 6.140630913317649 4.090752718962974 0.8456648832126531 -0.4472819614531006 -0.36397976168933444
P 9.284523697983284 6.133220714825892 5.8025865726482015 0.5797264272694725 -1.0871431492309407 0.5260847306846165
P 6.247958073928833 1.079196050520052 4.639866999128204 -0.8357735922408703 -0.3880038925180737 0.9158835103195839
P 8.885812303696861 2.881285750396357 3.8665292128461726 0.801714188663316 -0.678271155014606 -2.061647554517527
P 1.06665071447699 6.2090498888656 12.866072277254364 -0.1189410320132984 0.5247829811540575 1.0766419925893007
P 3.2758184613227663 8.635304879245576 11.471328988678874 -0.19730517104549888 1.1634928289362736 -0.39548863093089304
P 2.815104691936769 4.958629966178248 2.0572066763718357 0.5277639181592523 0.7113836212978587 -0.31729109938354383
P 8.041829696530446 3.349771870831979 11.35702899843428 0.9122438566844676 0.9563560165123336 0.6480779192606775
Ni 0.7415593636272811 3.1362782949873895 5.5753321282009365 0.06811726449321173 0.007515334540438671 0.2439673509887282
Ni 1.9456878320524056 4.026876436525509 7.37136180860892 0.71323378713272 -1.0214846306908667 -0.2501745082407046
Ni -0.00980783414410228 0.5500493766415704 10.308432981861452 1.4462578695184898 1.7084350586470252 0.2771551505946066
Ni 0.30825589989036634 0.8661277717818815 3.823485988449129 -0.8294335089554554 -0.5873870291385239 -0.01557214340664415
Ni 2.470920472517008 4.756177400367116 9.596281334529342 -0.3301921237159281 -1.6028419086955428 1.6292751631864069
Ni 2.328668804979134 2.2374713621375997 3.6910560839998903 -0.48806325713552073 1.6858268343292064 1.4275646639843609
Ni 4.123979751849195 2.134722181296384 10.619108803715418 -1.460486354413046 -1.4085295017297805 -1.03993846652068
Ni 4.9058021225446575 7.2721440795050665 3.0353612346504644 0.41023467889181603 0.24647829033604002 0.7746206748806337
Ni 7.334035023048375 0.06196058826597469 1.2851624247388043 -0.14514802942596938 0.2938192415138488 -0.8601936729564477
Ni 2.630146880459559 5.909976877807938 5.778733719432943 -0.5158530256542794 0.29717530247027535 -0.41682544473545635
Ni 4.529219178140261 2.6663992800984295 4.018135559532663 2.0625644099048417 -2.0494492126791224 -0.2562204573244684
Ni 0.6321558616843201 2.8245670882564435 10.440700381957802 0.6782580423884834 1.0967385062288595 0.9787040451902307
Ni 6.746140704109617 2.214609321176816 2.847656635311272 -0.07642861257238451 -0.5581386737963678 0.18593163910123464
Ni 4.849844909372568 5.249698477110728 10.003927682435775 1.2298645714932883 -1.4719933266113812 0.4594031701966668
Ni 5.725836231076686 4.681824694447946 2.2998730336471316 0.052156884509213394 0.7881958424619071 0.616677550572525
Ni 5.07740671919587 6.890648860661899 5.583174123973229 -1.2715735211963004 0.7106755394872405 -0.9231926423864873
Ni 8.197081712299473 0.498482566786402 8.094005665559875 -0.22189057369434687 2.416388828327729 -0.35129393869154985
Ni 7.661448793249949 7.495647923487644 12.176101081197203 -0.4631320411114798 0.009495083974628808 0.5405333020097788
Ni 6.235059871290926 5.257554401827553 12.173803733945498 0.8230147499133051 2.054085683009869 -1.4355199142756956
Ni 1.7315720966853252 4.045494792385123 12.352293872177711 2.6708362529121743 0.8145835884268163 -0.29241207675367703
Ni 8.202792579558158 7.664411015454047 7.5752666990367326 1.2296509128205855 -2.0373308321490335 -1.4227518159767498
Ni 7.8930221390988615 8.29546649052023 9.743335702142325 -1.7723627105389217 -2.220778785596466 1.1741955600657585
Ni 2.5941637737483334 7.582926689933788 -0.14232595524205233 0.325391102782859 0.3789114432985023 0.19176830038766973
Ni 2.705781049275799 1.1125233718069134 6.7569969234789315 -0.42097674789966855 2.9694853117144993 -0.5908217658516857
P 6.101797015958592 1.0712472661730046 8.848819812805116 0.6262973330504762 0.35318704194920464 -0.3562194010176252
P 2.4425147116319406 2.2235517035672445 8.969439829482656 1.7003787640014523 1.2714637350913136 0.13731464942447966
P 6.333296074103328 4.260455550387229 7.985930984925398 -0.6038842554625986 0.19414040016427211 0.133320440663422
P 3.8867698264457746 7.314645932257913 7.272405943662294 -4.204894724285416 0.785276611932583 -1.6221953735214902
P 6.268461480281966 7.02096806571618 10.59910312498028 -0.5947771509550079 0.13213850454017886 -0.7275807998830114
P 0.9509290432936888 7.863771355578769 9.233701622362501 -0.7661463188610355 1.1524393993355897 -0.9193470433881523
P 9.261912378024101 8.531292807433335 2.330181488355459 -0.6573678292030356 -1.4942603655396975 -0.00904822624519732
P 7.218601216718763 5.601209321355046 0.46666978606846976 -0.059274469390601145 0.05048155368931951 1.3483186365678392
Ni 0.9444381551411348 6.325254430126058 1.5992461950219359 0.5228852499107124 0.8876710524411099 -1.1438634847411204
Ni 4.060101612219126 9.096612950264998 4.815340127974486 0.1288760317388232 0.6019155617720021 0.2352942486947625
Ni 5.008319154310317 8.876609914341811 10.012082615161917 1.074049035051144 0.1764211285076381 1.6916894637575703
Ni 1.7881143255278162 8.466123918943172 7.089893126248843 -0.45089101896059763 -2.248874258281101 0.46716815885406643
Ni 3.875747388338362 4.755935965328536 3.9519480008989594 -0.4743122260980153 3.164153559357783 -1.671406545138818
Ni 5.198597822599277 4.227638957066591 5.852043611704714 0.6375636499929149 0.24504747142678443 0.1244691609203792
Ni 0.14901556300328248 5.406259813665892 11.114838082465724 -0.03839814016222419 -0.5938998905563772 -0.4452353633367171
Ni 2.4251778186693964 0.33038249257978775 2.703211623307542 0.6568695494103785 -2.061697691029172 -1.411355144104034
Ni 3.841732905787854 1.7904729601354679 13.037984239281613 0.181759510001416 0.17508055531934363 -0.5288736062836634
Ni 8.438163884283172 4.225763192536096 7.332383050226716 1.1469130702007215 1.2217260015465539 -0.4371009071550408
Ni 0.25832620531602096 1.254375742934831 1.5286821620158448 -1.1592754484208163 0.5062964923140958 -0.12445836228710179
Ni 4.568257366685807 2.9871271569239823 8.246129240386704 0.010875766372239333 -0.3626805832619367 2.2067212790621347
Ni 7.2633688444490385 8.548666844247968 3.573507863890112 -0.56773248813239 -0.2018105151150202 -0.08879407611627288
Ni 4.82951793631686 7.328482017161068 12.201189896090723 0.6206956705929827 0.7749163517441816 -0.17440718340140288
Ni 7.48701197787695 2.3635561680537336 6.406418389922049 -0.6461722175975323 -1.024224912440165 -0.8149466281931901
Ni 6.351542991442052 9.09822870783087 6.751260984120087 1.6198728960359006 0.020248722946707064 -2.192522361853934
Ni 1.1555452384890057 3.6027586474102056 2.1955628824218754 -0.14755406776430072 -0.5923741979404702 -1.0324907519933832
Ni 2.658023341452359 0.1682133629554857 9.34851791215113 -0.9653049981755052 -0.900833557964997 1.016944576728668
Ni 0.8118253172203578 7.8238881443981985 11.338789509865974 -1.0665270156424858 0.24383648183781878 0.5023084542006252
Ni 1.7000555381878029 6.241894340075303 8.019568457377202 -0.7855365504621891 1.1374084731443959 -0.7389782430866756
Ni 7.653035710751788 2.662991331669263 9.131933039216435 -1.0699519821636347 0.20539617558374948 0.7394538971715136
Ni 0.35462257045307366 0.8616621521644806 6.2052862880526805 -1.0975450612905548 0.6434306502966531 0.7992042777572687
Ni 6.118028879321487 0.8000869313639294 12.166002596410504 0.16132463918583187 -1.2032405411478566 -0.3996754153187311
Ni 4.094988975293726 2.918838184858343 1.4869176147269656 -0.7654842597970042 0.12562461468106106 1.2416859896082486
P 0.14736637597053057 5.1303738522747935 8.974685469993927 0.6683017025067199 -0.5522333640555264 0.5163150528923623
P 3.8031775873194644 8.157542081750725 1.4712336231823824 0.4064618421129451 0.6393860479136344 0.6976513593134308
P 1.9176906535403169 1.9161120398265339 0.5855997574759589 2.7416228367074336 1.1037766440225636 0.15743070344806437
P 3.0208630605838227 3.5674905598516933 5.439844356128471 -0.4738167745188356 -0.6850241574677234 1.3588015383770342
P 3.9055181857877006 4.025678547295638 11.668968639855574 -0.34373952338305963 0.20719260536253994 -0.3445908156397614
P 5.924026539860606 1.5830338321813864 0.5236809560435842 -1.1199141730143747 0.5178857398135919 1.5405865022997467
P 1.8179965545334222 9.09447717876988 4.929558401744484 0.9138464252848971 -0.576616163775265 0.05378670680315253
P 8.30396314668559 0.46831897310122167 12.363996042778352 0.5446264982425459 -0.6548226941836787 0.041181102224000045
