# total energy = -340869.99654329126 ev
CRYSTAL
PRIMVEC
9.26156476455800 0.00000000000000 0.00000000000000

0.00000000000000 9.26156476455800 0.00000000000000

0.00000000000000 0.00000000000000 13.55523620624046

PRIMCOORD
 96 1
Ni 2.3040550391827166 4.422452750827983 2.981176375502071 1.3004799198180053 0.7486296501335108 -1.0330656506602465
Ni 6.191809870689158 7.634696832129945 7.8228890499471015 -0.2936840014875652 -1.0443448231184917 -0.18889046461924242
Ni 3.7547031919073692 0.8803024705730378 0.5287547732035737 -0.351078223136318 -0.1895412108293639 -0.32473881391084075
Ni 1.6792606177019258 4.169500893614432 5.1700351458209965 0.7707331669007694 0.23962218664615506 1.4813896802246165
Ni 3.294523822788677 4.15730341280196 9.465635022355745 -1.199914047877785 0.37009615899971743 0.037471771693212884
Ni 8.063840697677948 6.819947717054766 2.1800204590513914 -0.9747190924005535 -0.8110395798293 -0.12694616170596199
Ni 6.964854159569529 2.5304262054837428 9.5835930898363 0.7931716984099437 -1.1556098266437709 -0.18399534131047024
Ni 4.710246614735932 3.3017015354915373 7.027671648832001 -0.5483437991931331 -1.9206978794436211 -0.7773499008863387
Ni 3.5170699628364375 8.825484000316745 9.588201644469777 2.2269363205574293 -0.2079595654355515 3.365420286154191
Ni 6.415004320271371 8.752678839597804 4.30960243632243 -1.7346420560596965 0.2763920471763369 -1.627899622995119
Ni 1.3036485965700872 1.1252430742537196 0.15426710603577018 0.5167184589783682 -1.0852819276524857 -1.1902569844039954
Ni 3.2747318588583405 7.33883614530046 5.8010857543092476 4.569861018257736 0.3894856192699228 1.1512242959815657
Ni 6.570218884383918 3.4251026245920553 2.9886310089917894 -0.21899551153473898 1.0540651357300492 0.014374009333484922
Ni 7.798126404200475 9.16392010043016 1.4576082186552317 -0.9039422787973078 -0.40590005607220414 -0.9004790028390557
Ni 0.8507423342714674 8.23492958381979 2.0276603092033874 -1.982854555478024 -1.5476182123355475 -0.739758830006442
Ni 1.3761573872161363 1.7132598220015358 4.341402945143771 0.7386499132129795 0.32888291798620134 -0.8113550541871898
Ni 7.731776554131718 8.634019671663562 11.459448016921879 0.382036104970413 -0.5049273798807111 -0.6588613830294265
Ni 2.336665008765644 2.131715841795863 10.670045026174334 1.3340037626070638 -0.8196864568710207 1.1878257492546833
Ni 3.9213928347797142 6.6237507288000845 8.898565155666068 0.5170707001114643 -0.6019764969169246 -0.0344466117136439
Ni 7.851713818005308 4.5223202038279 7.930490835693029 -0.3056895105888735 -0.47299067907311443 0.16152981321810247
Ni 9.073406827855905 0.683743355135541 7.417153789375198 0.8114247310828606 0.19205369283857246 0.44108637416534996
Ni 8.753132656271921 1.2265275466646524 12.412625109949692 0.005277703459171556 0.5382807585301762 -0.16978613968962372
Ni 8.383355420950148 2.7648456715767487 5.942398709690193 0.34943374555435947 -1.1890236262175264 0.22421048007677516
Ni 6.504591436367836 4.374718645962773 5.165019082337295 1.5990582732833944 0.11460872318653165 1.2619521960564526
P 6.573682709610846 6.142556869200375 9.273692796960024 0.11109582493726672 -0.4499152853108897 -0.592715897550605
P 7.499153831605621 1.6070852433878806 3.501927304424598 0.21674656759956218 -0.62728463666441 -1.0598467754088328
P 2.829787763799267 2.66293141276092 13.057352271145444 -0.46009736805021406 0.7071739540918852 -0.8199317401126072
P 4.544381251128819 3.782765733184356 2.1480171219614155 -1.4253859111654872 -0.04906230474428969 1.0484616735003427
P 5.9971317790580505 7.193290654816023 2.5220333754820246 -0.9179576192397932 3.3460120568309084 -0.33578350176077654
P 8.910116179257043 7.233365445609923 0.2416518220280555 0.4111895866059177 1.1533115175278976 -0.978941100901701
P 4.580390214985229 2.063726694761421 9.822937856078184 -0.18578251511788005 0.5985047363182402 -0.07004096387848584
P 5.344673063585721 5.546501083225356 12.742301622096186 0.013921752287414732 0.15036582618148298 -1.0840673385190944
Ni 0.9426420630929708 5.929281555495276 1.3627623860778835 0.7442502901188924 -1.2356084159556011 -0.285011927634864
Ni 5.0844230933271986 0.4940739177363115 7.853755066882354 -0.36551599582820277 1.2868649001377321 1.5792854615318415
Ni 7.424885343651774 4.846678725478932 10.826675683541419 -1.3274942436233201 -0.9980531391408036 0.21867052409515245
Ni 3.93397003974808 8.30230746757889 2.984659650015033 1.777645813314732 -0.05225561487060678 -0.6728319862769058
Ni 1.3515957174251896 6.534358105563954 6.076541361620101 -2.052763878874652 -1.8088764891942395 -0.4439865785312805
Ni 3.4697063205623415 6.792811332255567 11.449768755572512 -0.0690441471828553 0.17363173868795903 -0.2619866703842843
Ni 4.178317903282977 1.5278896029721998 3.2552353388444186 -0.8112239279259641 -0.40137388606707647 0.3143155616949877
Ni 1.852535233131346 0.35665545034446683 6.166290555100178 0.05712168471365647 0.11546207232576244 0.39213565529826017
Ni 0.49638375199191564 6.167424170628991 3.660347296106771 1.2143950151027796 -0.8256282762767523 0.8476006667827855
Ni 3.179810081449814 5.023380119876169 13.128557959627246 -0.264973263816434 -0.7625801987763318 0.2601856126198035
Ni 9.343251779224316 1.495714926933833 2.1145217467857225 -1.066008167024538 0.2794061514123124 1.0009024356641407
Ni 5.245657674545369 5.789561589256127 3.8735577788584243 -1.536444197996599 -0.2285265909536258 -0.2725091671821629
Ni 5.776669491085314 7.231226024146233 11.030099470792283 -0.1078202395097885 -1.01072224996804 -0.4922261302639587
Ni 5.550603956421958 4.13888216045875 9.049014644700394 -0.017003476536532006 1.5287596848681477 0.12350551145552924
Ni 4.8911527595423285 3.1726138456173985 0.10557628152900385 0.49436683075604543 0.23520246031190462 1.1264470890368858
Ni 7.7338418830771865 2.882310097654644 0.6085885354324506 -0.45456358271617847 -0.5740342619807016 0.36644390695911083
Ni 2.044657132883759 0.8697674406381954 8.639483994882513 -2.0677824637706714 1.4537413223797286 -0.6280870779610475
Ni 4.730973996708834 8.055255227128852 0.6497552647136645 1.7763047259058053 -0.2249105914675933 0.2034825035008044
Ni 1.1754314937850696 5.265551515688263 8.08994163953498 1.189360440731655 -1.7322614716426616 0.8680795034624276
Ni 0.11923523726342627 3.5888470898650335 3.5009242769591533 -1.3540676232364743 -0.24689558037911674 -0.5419805759792666
Ni 3.490822688255916 6.306106841613017 1.593851393476763 -0.19558870257502445 -0.8581745856438897 1.2534482723504994
Ni 6.828940696454091 7.269059516263886 13.168261361673553 -0.4792870536047874 1.0674343579481036 0.91480390410216
Ni 5.619361813332964 0.3608750192572705 10.792543112709009 -0.7167600551184237 0.730485118014 0.2612829594490403
Ni 7.013310666487414 0.06131341114254358 6.486736065632555 0.5372410044117522 -0.08089101921911229 -0.6460832574281519
P 8.222898811173318 4.512243621349563 1.9364737208697809 0.3835944505964684 0.9686808566262736 -0.6835300894207003
P 2.1208612878761834 0.4504223106251916 2.165123232106166 2.9625844708296074 -0.7368678816118922 1.6038024728365992
P 2.68376067194638 6.316498317293802 4.056851555064559 0.2805780602332265 -0.9534753525304289 -1.7022129889967137
P 3.3327648237565577 9.056810103773937 11.729400402441714 1.3747909718267548 -0.14858610857324087 1.8647409044620273
P 1.874151725322926 5.586427688982812 10.611961122669838 0.08943119547963953 -0.7531974720098512 -1.2537352074632988
P 5.736724362198302 7.0470690701028 5.548727563397959 0.3030608147167748 1.299335521800917 0.8291262621276818
P 8.903910930855861 4.691621607967608 5.4099763568345764 -1.3967232531234721 2.7874715196104316 -0.1075710996134599
P 3.104791406748958 8.633149084574441 7.614898385104263 1.7427312608257342 -0.3558005683126517 -2.3352263006147846
Ni 0.7139999611084082 3.6734051762871087 10.078344954114353 -0.5864753159575319 1.148775320220441 0.04826423432302656
Ni 6.194162308142741 1.925534886710623 5.187371868928716 -1.4329022741471904 0.2814398940128895 -0.8144370355466232
Ni 7.335103734694973 0.13416487968537427 8.900748106484214 -0.16116188835572245 -0.34232541664435234 1.1519452333079905
Ni 9.03645318439215 6.156199154118196 9.890089757656707 0.689479879246232 0.34235447011007486 0.44261798031852806
Ni 1.2736781729488567 8.765052290141055 11.635151014636062 -1.5185657750542816 0.10724534084292497 -0.6433609734009823
Ni 2.0638285719739775 8.379048793328431 4.131785023369458 -2.2273181293768802 1.1597577873738736 0.03857683183193356
Ni 5.887076604802462 5.464489927117199 1.3698104368738528 0.23345950947886893 -1.3371963014024326 -0.6414563001791017
Ni 2.1970747044333856 2.38989122154414 1.8351623899209923 1.6330418293176907 3.762627442438087 0.139784708231527
Ni 9.281106679564719 1.348946909898715 9.919708241816378 -0.3514476906605947 -0.30793974007563096 0.33060401444236615
Ni 7.831551391483856 5.228764580390511 13.20700248713944 0.8956237316292833 -1.2155191014048936 0.4736931044567777
Ni 7.823215983183761 6.903838970812833 4.6541771015706255 -0.31016580119267223 -0.46117851692953477 1.3267797340547989
Ni 4.357260596356462 0.2512514339203316 5.670941319893953 -0.32785781915579665 0.0780113836784721 -0.902817164053929
Ni 5.8765091593908965 1.4962706208205059 1.7084067620579246 0.7218798928434923 -0.8373332234185062 -0.8927114430784948
Ni 8.720133700968322 0.05721702104128576 4.22100538150072 1.310240855859511 -0.755176450113093 0.15354319546820008
Ni 6.724034952215005 2.4513509654101746 12.030610569086903 -1.2103177597096124 0.27843504574829464 -0.890944323875743
Ni 1.1309667212864516 6.188836908395459 12.536858813723741 -1.1828246964956661 -0.3295714594127937 -0.7815217728758411
Ni 2.1276037070344826 2.9806957002900987 7.699062855023279 0.28069375987548434 0.7864287232591552 -0.09278957042891116
Ni 2.487183959535805 7.749808820754258 -0.03464843999053953 0.0036658788873614287 1.3789404752187542 0.5047299191579243
Ni 4.223838494166274 3.590338201794273 4.424456027289439 0.47912661676752316 0.17100432836744095 0.03307929905247206
Ni 5.2551322553131445 5.4802345872396 6.885246379521232 0.5396516707357738 1.120114976171271 0.5912629671541624
Ni 0.6847269333149522 3.68049027334219 0.27593720867930194 1.056579931732103 -0.07194846531384382 -0.20853317855083442
Ni 1.4416644348901053 7.657054249503756 8.55015527644335 0.6418535356175205 0.07080586706896838 0.7890659037716863
Ni 8.856686212053434 6.748837422690177 7.602318401666464 -3.318842952615284 0.9846895733497041 -0.5378462420959189
Ni 4.69021385012137 3.707043179560381 11.440876727229268 -0.3630420803664135 0.2883944709538517 -0.7809705283580615
P 0.04083609141864342 2.814626582257872 8.08085882295731 0.003588488682206723 -0.2422827641974537 0.7782731840315564
P 9.242485954440944 8.198059294439036 6.079333723400632 -0.49332270576224724 0.9267297090054685 -0.9012745021571575
P 2.944362581666462 2.5373168096784875 5.789400438028992 0.33773856860461837 -2.289164730370032 -0.6157997759532621
P 3.191340729598279 5.329067326934988 7.286685200192677 -0.7666039752237442 -0.8402907633849335 0.16343782887409272
P 8.65266320156144 3.3984756258556406 11.997346733030657 0.7843219613287976 0.19247612508797174 -0.3416001084425536
P 6.720154356573072 2.1463768988392524 7.31721131770058 -0.4709934461374275 0.07237681110051407 0.7936694639819687
P 6.640162221586493 0.5514344930316545 13.020522732649713 -0.4822862454424274 -0.3701462955113625 1.2683724977604995
P 9.128716892709425 8.332944723864129 9.851444026308032 -0.21593384189027973 1.1870842431029685 -0.3487058662493994
