# total energy = -340869.80711573234 ev
CRYSTAL
PRIMVEC
9.21600432951538 0.00000000000000 0.00000000000000

0.00000000000000 9.21600432951538 0.00000000000000

0.00000000000000 0.00000000000000 13.48855390423611

PRIMCOORD
 96 1
Ni 5.333532035145033 4.074275652202966 7.673746454023009 0.6049036978660486 -1.7598530081076853 0.9094621801742724
Ni 1.0088114685957592 3.102494088514051 3.7872349067480036 0.4833064591768257 1.4917573966121858 1.2179968735214248
Ni 5.932443284591549 7.911322140093578 10.303299168204948 -0.47822467377854416 -0.6954695211707635 -0.9440340046118709
Ni 8.127750782908983 6.35080379560353 4.002835952385551 0.5534716073380016 -0.35681152607566935 -0.044997390646296695
Ni 7.298347268225995 1.7633257330863614 2.887265369446497 -0.048374277538329596 -0.49748377911847225 -0.012574237120584798
Ni 0.4356045764851503 8.131916416810897 5.021006273254307 2.292862490936593 -0.7663777181455511 -1.7265245691588844
Ni 5.229861203811763 9.028264986059169 2.649219667161332 -1.336575122878666 1.1164550108211806 0.2776858262870959
Ni 5.954755230778574 7.869582857036561 0.5644111376947075 2.174544437219274 1.1055499338729022 1.5801670928058464
Ni 7.876338188120861 2.5384377669813425 10.070042101706141 1.0402570262023632 1.6122711724292424 -0.06264904228978889
Ni 8.254821048925796 8.334364381243109 10.425155019041 0.5162487184308012 -0.9677611730254817 -0.3842588236533447
Ni 0.7703132605039923 6.731572225451994 0.9139778636973256 0.09889568332664904 3.4360433477883916 1.89295876165714
Ni 6.184123143501696 1.507489456278506 0.7675023792206207 0.7349117863267859 0.5455747210884281 -0.37674914553986083
Ni 5.392855454230484 5.045209343504768 12.067264491983327 0.21613927303286645 -1.513961957733683 -0.10144647477296077
Ni 3.513509444172435 2.613879977426195 6.228744271074485 0.21327377855961335 0.3375015128931478 1.3837759489341845
Ni 3.055722867159589 0.4219307910420734 3.7006523904167916 0.6574768439770741 1.0545441322489968 -1.3824256055538773
Ni 0.4365897673349615 8.749314970698213 7.23940078371264 1.5461629679462598 0.9082586467844744 1.272840303723866
Ni 6.633744340786453 2.7328493757443724 11.987587527605003 -0.7053862660638432 -0.6423824115377968 1.9231424843293718
Ni 1.5512286122486099 7.884079631655393 9.06421385367244 -0.130179323931279 -0.46389231631627204 0.3910815030021329
Ni 3.633796731092324 3.472608817498326 9.383312469764153 0.22070426669572957 0.3161901530098813 -0.16528336672326374
Ni 3.4095989967297626 8.552544064857992 10.51895458826732 0.9229126492522234 0.6937047159608568 -0.10833805968647148
Ni 1.2184018362889955 3.6495468822834125 9.824334213522633 -1.6446470176567871 -0.4637390785678594 0.875532360196047
Ni 8.036659797319327 5.414199719975693 0.26935523338024164 -1.5028159684191926 1.6666160657287106 -2.1200918146973486
Ni 8.077956712174371 6.030750401475893 6.468004642714235 0.3230128323586695 -0.44219683362070944 0.5564391746067578
Ni 7.370803493307529 8.458623765976549 3.0783979239123997 1.6233940218152814 0.07361042639729903 -0.6684091746188617
P 6.699085810619584 0.8344695521960026 10.32734925278556 0.1956468095064695 -0.5113384256133774 0.771596286232013
P 3.2128465228979577 2.869614878187765 3.9844380431855684 1.048932442489174 -1.0172636506309833 -0.023072565548747363
P 4.215345028611391 3.0082235814727123 11.551664998974685 1.2582572637033687 0.449713967933361 0.23780570226270656
P 5.8953304356468355 6.883636294880294 2.673566507077434 -0.3886340699029049 -0.29322608801454014 0.02683280392212798
P 8.079477352868654 0.21545266796980272 0.8610743131430096 -0.3442416598304588 0.17520036872665956 -0.10771019629448547
P 9.205534826995736 3.4891238970386595 11.843206840884724 -0.0829350462323346 -1.0870284780299473 -0.530840500202047
P 2.582610075149212 5.805373018574737 0.6953364582716325 2.0236101401288313 -1.0768841905070938 0.35167394773878785
P 7.30677991207611 4.3782471189880345 8.40346321599175 -0.012993584046190526 -1.2314779387269954 -0.8472882777486892
Ni 4.821472409352595 7.225006306740515 12.318893662870334 -1.538285879191028 -0.15220056539737659 -0.41524164518810425
Ni 8.453877523809545 3.062938998454277 0.53350342438309 -0.22798948750323314 -0.9388933409511958 -0.7708285548280531
Ni 5.5000283671627095 0.15249906482690723 12.086984897787127 0.03273579967012427 2.4340852171662273 0.4971590487892018
Ni 1.7171996320264435 6.460750725802295 6.54954231834211 0.12162526371368085 1.061154952697295 0.7806481120216362
Ni 1.1580646567406876 -0.004581275691685335 1.2358357514488452 -1.6275077868733392 -0.38076418023652486 0.9394337868356982
Ni 6.484187024502668 7.351578908530108 7.893663354431059 0.5137210669129411 0.3836762116769973 -0.0677007457810834
Ni 3.780275901970712 7.408662838593072 4.156295324850909 1.2317363345947043 1.3324716422332537 1.3493470778323535
Ni 1.8429335774331286 2.693478605768754 13.219861293427542 -1.1686933993006068 0.8792717726338213 0.11678259090939888
Ni 1.6714513871390446 1.403625088856873 5.454190727034495 -1.903987508667476 1.4022747790693204 0.7017242438312237
Ni 0.9033665564524926 5.192646978820764 12.747371503301611 -0.7408263520390079 -0.6653359350101767 0.19237122407899127
Ni 4.888481975947332 6.060499663058593 8.857434367262575 1.1852610738513008 -1.6998966821587111 1.0533804509581988
Ni 4.9683294364035016 5.705001516747851 0.8069192292172777 -0.22760227936714353 -0.11610150568197423 1.36805905241956
Ni 0.08449601297857137 7.593065866786456 12.504145485051255 -1.101774011770238 0.7547419336788357 -1.1301268518813181
Ni 2.687515851046323 0.3723698852139177 7.62832998528709 0.7486494476278526 0.2527031881998293 0.1360409249183786
Ni 4.039181108179756 7.27810892298572 7.187618820870411 -1.7598568647624273 0.3165380232676032 -1.6606953293689013
Ni 2.9671939307396946 1.4493917657526874 1.7310135007334786 -0.3460252340934428 1.605373416868145 -0.5659959650572576
Ni 2.593448096097556 4.522274832747155 11.420865937655405 1.7118548829618518 0.7656853200642167 0.05876899050909234
Ni 0.18361505983362056 5.0186396033737495 2.032117868609508 0.7316919938379076 -2.7105862791166024 2.093425875370388
Ni 4.8219239935587765 1.838390087358695 8.222689450255386 0.48078857785097845 -1.5893973531548626 0.3763485676673325
Ni 5.098726679939322 0.0547458297954504 6.4995132395001995 0.6507148426628921 0.9141310464048515 -1.1972856091160025
Ni 2.8742136642874447 4.958357719850689 4.749940549493101 -1.277573190423161 -1.1607862286383879 2.3165253817711715
Ni 6.284955445538972 4.716962921636418 5.581522727570809 -0.1501987044759994 -0.38560942414396815 0.19884423339784463
Ni 4.080459591026385 3.473659441978012 0.5117951264716741 0.8247106495584894 -0.8063534872075403 -2.753339610923729
Ni 8.725906320010463 3.4011387048670247 5.627141026798878 -0.9158205182921324 0.06250814583655041 -0.7252287547110672
P 1.9308819055879327 2.462147684149375 8.233696124080732 1.000385386818406 -1.5194893153098155 -0.3747873938277997
P 1.3674614883455611 9.005455375644924 11.005202951075042 -1.6224668820153219 -0.012512530644713932 -0.3077991007327086
P 2.598867106571728 8.79573598389278 5.4310180060544635 0.2969428747444951 -3.154063007891 3.2430784559894597
P 3.7651800870783756 6.411187055172876 10.545081960196365 -0.7158575979088123 -0.8378443587269699 1.0715236975261286
P 4.220174214816265 5.212783948014754 6.507661108820294 -1.7124063845899478 1.629599636405361 -1.7459906483032963
P 8.698894211677471 1.2676613787795572 6.250218482479023 -0.2956066724315748 -0.5232498323389828 -0.02786304495885524
P 4.728814703047618 8.769709988010021 8.625309947680906 -0.16843759608152928 0.7469772021317521 0.02345386014756606
P 6.920795223846046 6.728881152223322 12.089898998317626 1.309476466889661 0.421293507809139 0.04652848257884245
Ni 7.835686393560362 8.330327771400103 6.176179869475015 -3.6259748520776394 1.4708790105012797 -1.0604178174209544
Ni 7.549861239060404 5.438400947025312 10.240132675364851 1.06420428104658 2.0936122803495816 0.8211992939711212
Ni 3.526181449958126 7.75050286666789 1.3857865911123024 -0.7682101433685996 0.23989652335346429 -0.1586406645957655
Ni 2.2219693984905304 0.46094398005442977 12.799126739731639 1.4899928485125953 -0.9113964210825078 0.10031544649231111
Ni 6.714117113482466 2.3278336388252505 6.671600921270734 0.6226710491517986 -0.48152468468605464 0.7726021017887081
Ni 5.246809435549863 3.3336959860745217 2.5233576192961586 -0.04147240821217374 -1.3340904087835992 -0.04793770422154325
Ni 2.7307942068060385 4.128069468763754 2.1800605409560907 -0.9680730478389455 0.10826092659163289 0.7130795209430428
Ni 7.028696201110684 4.934875341129277 2.3218524520944044 -0.4280827628168305 0.33124756156363594 0.5063373728543603
Ni 5.30382885358337 2.5468704108314575 4.91230166042275 0.45244345104938205 -1.3156247458792438 -1.570679207920069
Ni 5.9586536005584625 3.9143687631938495 10.13879257149573 -2.2890757702006517 -1.0019211067366423 -1.8216530721336175
Ni 0.13738666112699652 4.918203589517409 8.312213715129719 -0.08236271866863235 2.184391248106367 -0.561228368465285
Ni 8.556470082650504 0.8700700548502195 12.28642660164676 0.3948340280660297 0.5803635466328392 0.025683777919349317
Ni 4.5798932910541685 5.356323213550862 3.4846734886067248 1.9099817785776976 0.15508637158560387 -0.9440985393012192
Ni 0.16399326527484515 0.9780760945628268 9.502861554746998 2.531366761928221 -0.7200965756908243 0.06164091274024869
Ni 6.088820443989088 6.990670967749401 5.301352513252741 -1.149075367959363 1.0519658299988592 -0.3802759277461967
Ni 0.28151482933198096 0.8525421364474508 3.496867183774033 -0.030770962634269587 -0.22304191368997073 -0.5830765746886281
Ni 2.1879715589680457 6.341200719219027 3.124637381824073 -2.402185283133837 0.6353561008186349 -1.8962703425288763
Ni 0.7509080420440997 6.0031392528693965 10.401725171543571 -0.4068392800570219 0.5922934653012057 0.6650366586022031
Ni 7.356177694629788 0.4237352846659559 8.26443702771619 -0.37015555148274315 0.5518572116630301 -0.07994562458670747
Ni 2.5602704809495633 5.55559165653139 8.924809809224362 -0.2322598327438129 0.22856618594230957 -0.7416894713702517
Ni 8.925930475336028 2.695045326484076 7.928827940086247 -0.4650765664323603 -0.6694615271427761 -0.17160262407307222
Ni 2.4888280163308854 6.987168886150447 12.317045854026675 -0.45006389507361205 0.34737943412849204 -0.12480031900755281
Ni 2.482957421650532 2.0104897499347 10.899951575020138 -0.47531649899281364 -1.6310337977487266 0.10174523696030219
Ni 1.6933670451451355 3.9673054913633132 6.700277439963649 -0.29028140356391946 0.3196038066771205 0.24481041571531384
P 0.8644068202645414 2.6167277227263974 1.8187157615759353 0.5699307813352895 -0.6832351838881008 -1.0367657252196532
P 4.359464902412588 0.4887320759417153 0.5272973671495738 -0.2598338857073397 -1.216633674625311 -0.9727169743688603
P 8.655127407694744 7.049920658801192 8.439653542915265 0.49901152861690834 0.6697736590665562 0.27935961444509305
P 6.392248166525897 0.22602342479612153 4.692020727848494 -0.9234111861551968 0.8262641100885383 0.5800976945659623
P 7.055717525447883 3.5562901357049297 4.011981914961348 0.5415447739934286 0.011985968717282584 -0.09709205445900698
P 6.397777769050563 3.9048670628556326 0.43360193877080067 -1.4610789936917223 -0.5338234940897709 0.16701371915080915
P 0.539540828739604 5.318592892324228 5.214836352151826 0.3410493781454062 -0.2961075233273932 -1.3064330520776468
P 0.22897070294176822 7.875379723683252 2.84860699659614 1.2892724811379601 -0.8860386590440095 -0.366456248254285
