# total energy = -340862.251016619 ev
CRYSTAL
PRIMVEC
9.33024193289125 0.00000000000000 0.00000000000000
0.00000000000000 9.33024193289125 0.00000000000000
0.00000000000000 0.00000000000000 13.65575218409686
PRIMCOORD
 96 1
Ni 7.78506055993485 1.9491341893756997 10.481240162556587 -1.3809870733351377 -0.08700587386759855 0.7736441698999773
Ni 5.6244937582930845 1.825685758463898 5.725965737374362 -0.04479350216560672 1.6722292981504296 -0.9714908152712431
Ni 4.7040280714082785 7.008103324100943 5.876875869344489 -0.46483925361057365 0.4574802421423411 0.45185595397702827
Ni 7.136412811055752 1.0281646694269355 7.096116429205176 0.6180551476463421 -0.34587328189661076 2.681177486937182
Ni 8.305697389600743 4.416236759226696 5.117151590346352 0.5526817644468546 -0.8830075855271695 -0.6228952493474628
Ni 2.605591350746157 0.06314427827691019 1.2791948284233847 0.054340265313777385 0.3433062925003829 0.9166514988338601
Ni 8.45001757169913 6.388929809463427 12.732760028533203 -0.19893139379501223 -2.105637844055548 -0.2621941584094
Ni 2.886282348822692 7.228623592002116 9.77265680559864 -0.03481016570064972 0.20554992755279436 0.3188342755009477
Ni 1.301456785656818 0.4494265572446815 4.118219501895138 0.88290859805546 -0.05661826271467668 -2.132074955201154
Ni 6.656390524490083 4.368540562505275 10.279613634553861 0.39936148362273804 1.1634164671723835 0.7768806745594039
Ni 2.8776985262515447 4.464119560786622 1.1630137229470907 -0.5998062287384831 -0.40209790871729456 -0.2597492964133333
Ni 9.06773556859632 1.0179014033092588 8.636512313347627 -0.9935519088363405 -1.1989126031964643 0.8710959216912482
Ni 2.995623453943651 2.2193100048025785 4.265975079070368 1.295774543922536 0.2381818546552027 1.576121461981563
Ni 8.872453605102706 0.8918395716342198 2.140566495050992 -0.11496482097436975 0.8308478728044787 0.42775623271534724
Ni 3.526420917066044 4.398677243923544 12.36615709583398 0.7925003833745319 -1.5465568609505689 0.3122854186388364
Ni 2.7806733404717985 7.131318498964615 0.5394605927499049 0.364180821956547 0.5718771064283827 -0.6163610477733709
Ni 3.570739566210557 8.294547750500177 7.621671229389821 -0.7799014636635988 0.9645593782587325 -0.44597249861305777
Ni 4.6208582948873955 8.881280013963908 9.495595271630993 0.9638734079353012 1.651985460299729 0.46654312367555784
Ni 0.5112590035069141 2.0817169271322333 0.17933937911609169 1.7743272904644602 -3.064220435905555 1.7770629442280685
Ni 6.741090460686693 5.142092260036499 2.8652771751765784 -0.1601560727990274 0.7551360837934608 0.9371313639547667
Ni 2.8496144980568108 8.797475780992116 12.114332000225508 0.6979858598347141 0.08159575859562077 1.4524256888920986
Ni 3.8798878021588323 0.4024954403611231 5.577651278707815 0.021039337168802477 -0.5049294367632401 0.8697905726162634
Ni 6.389032442124603 3.9815874391430843 6.800141561831035 0.37708570294367316 0.38674456618967584 -0.7908790457210251
Ni 6.83788239041831 4.681719462965219 0.5515871081800363 0.930015835955908 1.235602759528646 -1.3361447202094667
P 3.3078973209368545 1.9227016140017192 11.472457073959884 -0.4035706366080791 -1.173292845745831 0.5503875690960391
P 3.5289960638373885 0.21756164818670506 3.512436750468613 -2.1955806890642835 -2.1218483923771396 1.8259956653730292
P 1.4075323061039702 -0.08084841232990264 7.938785625893798 1.5902229343799517 -0.3807616091333636 -0.6178749133147359
P 6.140269531915969 3.167057319076554 3.6045318364151044 -0.07314711360763532 -0.4756042054365616 0.5113772492711128
P 1.3373782170686868 5.311389499768541 12.188140745022878 -0.2255402546317922 1.5584271300255934 0.7011539731500505
P 1.138382817288859 9.102294784687116 13.530050660594615 -1.483692360215864 -0.014312302857614062 -1.425719640355822
P 4.1067153136014145 4.943488730417528 6.103137968126406 -0.17218549315973572 -1.4789162789834593 0.779061998481439
P 7.78704790146491 6.759592330424286 10.617538202647719 -0.004824417971836853 -1.1955442009448636 1.0387842983115787
Ni 9.452468094380322 4.245400029577004 0.9603123510745892 -0.7589086634620156 -0.3682035699626949 0.5353738692960264
Ni 6.741202423589795 8.671386891615493 5.676491196542004 -2.2469366749387563 -0.4813688758344806 -0.5662762153018377
Ni 1.7090297436736137 4.346166642368739 3.6990975704233784 -1.0541903484540038 0.8395590274252315 0.2633102742917142
Ni 5.878752180995639 0.5174104320081726 3.75186288758274 -0.354799380741647 0.5570330994370148 0.5839106405541492
Ni 5.6614135255909455 6.648170581354017 9.531277848849578 1.1319788174883922 -0.5702915071088178 -0.7790810246448324
Ni 3.510391561438618 2.681912729693972 6.523080027863387 0.01816047295911066 1.834602433205434 -0.17307380930195998
Ni 8.49523192406846 8.031630863291074 7.028669976376574 -0.38620669140833486 1.4626903040429002 -0.6768503634076795
Ni 4.917839895365262 4.1868994127062455 8.55086349154723 -0.1295918268589252 -1.3226615981213672 -1.8087219658942464
Ni 8.913655953444216 6.360537883285162 3.545579635835169 -2.1986163905668135 -0.8693779105588768 -0.3051999725469647
Ni 7.616481748831046 8.34089106214245 9.2160211035129 -0.21806914306572764 1.1923583470177141 0.8711036350007321
Ni 1.8398583959482173 9.489322549984708 10.28705543551337 1.5724172736570983 -0.2682966717627121 -3.4464776557478385
Ni 0.36459039951596517 1.0091962875930838 11.489239380110673 -1.2301386510902816 0.568694080714711 2.2666848040999605
Ni 8.941124185671889 3.3476628120218894 12.471962039265305 -3.0677006811446716 2.3620907291057964 -1.5064257972576378
Ni 3.5581250791277403 6.501228601274661 11.908239085413213 -0.3471336366662731 0.8511081657154116 -0.13336080698305422
Ni 2.2844350934402002 8.093266441448685 5.577446013385461 -0.26776882428370014 -0.5322268390266124 0.28966408169489466
Ni 7.136114243314148 8.26020312997366 2.792560068684453 1.7856100624671312 -2.105481263873026 -0.8272431861723559
Ni 8.297122897271521 8.419768927377758 0.11376923793863973 0.7796883192115281 0.6031995706907483 0.8779250287979395
Ni 4.803320505975839 0.8041474268522117 12.888763539570276 0.5167169163164714 -0.4917705307837789 0.04971947871231437
Ni 5.026042710971351 2.6984272579015065 10.531561889355748 0.25325006184223486 -0.602417183998769 0.05060059576568705
Ni 0.21387153750530402 0.4418746594304565 6.028564143491175 -0.5243332952111486 0.48871271779406156 1.7153307573255945
Ni 3.0975190260083307 1.763434384339226 8.558920155449606 -0.7840730785427852 -1.407910380088543 1.5649919277273048
Ni 0.8395986140710524 7.48696866066789 11.409490070279553 0.15259522973263398 -0.6409091694263801 -0.15211237655894447
Ni 4.472722043841619 1.2239131450168073 2.146342847826859 1.9551547755699101 3.154390309323432 -3.8793084747726154
Ni 7.936947568234542 3.4230698272610387 8.755331078216164 0.9264905964114689 -0.468557068781793 -2.911535217562276
P 4.71918038429474 3.2170580855534903 1.1917378057378907 0.4775181346298227 1.259535873305476 -0.04762197275333734
P 0.4097926225707913 5.235441330497733 7.893106627476596 0.952831548298843 -0.1523579169108473 0.12058242427146332
P 8.515469218804132 6.579070809656278 1.4320652442219879 -0.9055844423864209 -0.6223059525028959 -1.1071237061179255
P 8.40100581086626 8.769755632232462 4.432739158119728 1.9752613165117978 0.3364866984753882 -0.40521537130035373
P 6.885168056495024 0.4725161069368768 1.279446744955364 -0.6825561555432053 0.7399292941460354 -0.8255485720787524
P 4.142235544610502 5.328146614266129 10.003056866674365 -1.8272778745195628 0.7817652563452149 2.289142875993161
P 1.5775013232546231 6.825305224303193 3.980856881200344 2.3114461674760514 -0.20759035502159087 -1.5478071884179023
P 8.283687348899289 2.680233286147443 6.560059508709569 0.2248457996679289 1.003954592226903 -0.32335581752038506
Ni 5.999242925217165 5.709828150940604 12.182269223779375 -0.2844609402274004 -0.08999580973385791 0.31809225512860057
Ni 3.514664812240341 6.285569389416496 2.810053339269937 -1.2755682441779903 0.49431309469997453 1.394423658456018
Ni 0.9563031461193477 2.4778789992745573 7.474462404391406 1.2285707923825293 1.0003401354027674 2.1900844418364023
Ni 0.6768577353398216 7.288645038306675 8.533971088541726 0.9805123020435631 -0.14923428368020106 1.4507236185993275
Ni 1.2966423808234353 5.947516063984073 1.727316084822736 -0.49547343355666285 0.8422473728906721 1.5577524725560719
Ni 7.289456769354163 2.7594750308178333 1.4114444765431902 0.023646178664030244 -2.0779694316060016 1.6067522994935424
Ni 4.8121749055628165 5.69308036668494 0.946542780041437 0.4225361219669885 -0.08056654600015803 -0.5246891358886706
Ni 0.5650646426409309 8.164176280079905 2.375541173742625 0.658996108835078 0.12190679950984165 -0.515200479671945
Ni 1.5441643688560238 4.467291843041176 6.299534895530077 1.2084621945581124 0.9852343901095808 -0.3182028125645358
Ni 2.937402744330648 6.018892414711552 7.734207942370147 -0.21602280205966023 -1.1174063189908563 -0.531895938049755
Ni 7.6039605641674815 1.174024341442973 12.757271507094794 -1.3001916991536253 0.6218148717990903 0.6749248642501925
Ni 2.1927841270093467 2.357742804246188 2.296187466169133 -1.8228537773099383 0.010545122505697967 -1.7125467668225538
Ni 7.01121029466202 6.2604803688797395 5.771918111879971 -0.32029029122118385 0.05455212421426734 -1.0195763579245603
Ni 2.6172261624268325 3.8665548864477777 9.515396844068762 -0.7547018244695196 0.35040973631438366 -0.29396887971783564
Ni 4.026801791512414 4.172670793770376 3.3655143638972995 1.8810440124974253 -1.4910071487097225 0.13445481137818135
Ni 4.803749697104397 8.122208851900533 2.256736404236976 -0.33717421146071613 0.4730984082955723 -1.0837863169435658
Ni 0.35570427710644215 6.6097019938965795 5.645205962342748 -0.5555428880447336 -1.0178933137951824 2.451450190807236
Ni 7.805353836122075 6.148265549245831 7.963078776794339 -0.7229826389893678 -2.665411482352177 1.94559335713372
Ni 5.479930989904644 7.830937359480866 11.439410290085158 0.6214988832205683 2.320992159293273 1.1261444701948025
Ni 7.7839036099361305 1.805653729050578 4.487867825558733 0.7105467272188601 0.23124296144352435 0.044598869656297384
Ni 0.9233412674461399 2.5549281370925345 5.320308278024801 -0.7011480596127796 0.15837764074236593 -2.938921837105345
Ni 9.302792353416894 4.782383443095779 10.0590047293544 0.6368949060606645 1.1545641589880762 0.9828450639417976
Ni 1.623527406671441 3.2753441068599694 11.696097374760832 1.0916199540553717 -0.9168330187170467 -0.34530378254638594
Ni 3.0178854111770845 2.3816842050261506 0.07611891269803868 0.27126886701715863 -1.0278684227300232 -0.8069517829131715
P 5.645104262705765 6.91537004960677 3.9169885761500414 0.22630078694690062 -0.6420191146611073 -0.30046142942071474
P 0.6272647004350149 2.6286463785432295 9.92807344441862 -0.7587492550660159 -0.3145194501756777 -1.289474055625805
P 6.83902067993318 3.4927760646839143 12.356639316046126 -1.0373043713319425 -0.016717312754680885 -0.850999150941373
P 5.991974666757463 0.6452328803344893 11.006699794273596 0.6534713223621068 0.10080935540959413 -0.08176827961774305
P 4.862371607120181 7.537174692467181 13.529669053699877 -0.33650109665309147 0.45612141412160156 -0.13406708902145945
P 0.09861692505217871 2.8556325040985393 3.1244908893655854 0.317541267721137 0.037688001469077026 -0.5762125005789431
P 6.189925079441673 7.658691763300474 7.714230028359993 -0.6366740482991099 0.5436175973620573 -2.1217540328911197
P 4.96332482475042 1.2668602485983222 7.84681369914072 0.5895786374732039 -0.35661689356636 -1.0227218455320775
