# total energy = -381177.91700228985 ev
CRYSTAL
PRIMVEC
9.18235979988540 0.00000000000000 0.00000000000000
0.00000000000000 9.18235979988540 0.00000000000000
0.00000000000000 0.00000000000000 13.43931173429442
PRIMCOORD
 96 1
Ni 3.0963284034340646 6.709586925727111 7.650933053498932 -1.7225437301342656 0.22701812472889935 0.009385812090274158
Ni 0.6093165940059881 8.89612713503463 12.34699103573679 -0.4864036100449106 0.12049809208777311 0.1309138881044584
Ni 1.0550623061499194 2.776497634463317 9.677163955092091 -0.853726320064549 -0.7886938651442482 -1.4478426975071064
Ni 3.7949315079692036 1.4653393176736185 2.16135024207955 -0.36811126735920474 -0.18185875458344164 -0.004319453310960303
Ni 8.153310968784522 4.347737105980914 10.820325492668411 -1.3439644733642016 -0.10033781508981429 -0.4938176431207947
Ni 4.868615639489415 1.1374005251318806 6.100587123129049 1.2402394869697093 0.2321924698409872 -0.6876240569844158
Ni 9.032420899320261 -0.06633152964000129 1.222953488227323 -0.7520145074453436 0.38217057366574825 0.6101901430759684
Ni 4.3104199963631284 7.402028666937069 5.663621583282492 1.501769529432549 1.4355129722971598 -0.724394688845546
Ni 2.5436238113785037 1.4725658347182047 12.763381662315492 1.2422747722321832 1.0174382285356347 1.9927815847837487
Ni 7.083005945615525 3.1175121071467204 4.18951678508694 -1.2503341522015499 0.4579620668747661 0.00454596749946959
Ni 7.439391688353106 5.894716783303091 12.728062634157554 -1.0574224822380562 0.16804421729785254 0.5279333538575811
Ni 5.47017956724287 6.630866556447267 8.167405890847341 -0.19558793124407606 0.2609140061453958 -0.4718429386219164
Ni 7.915588859804484 2.4162185712341175 2.0379374919110034 -0.5582075793610902 -0.5859983763211133 -2.2340950430893978
Ni 5.926285735779948 5.759938108359718 3.692303028868536 -0.5654303223617746 -0.6694599844808794 1.3787126754786643
Ni 9.152636351858662 2.4170082541640214 3.8133375478877203 1.8021525402068448 -0.19616437257283637 2.2073296020700957
Ni 6.183979476998836 8.997436109053586 9.270920754162658 0.1756773083630781 -0.12666051214474316 -1.3889793475119951
Ni 8.570630850159805 -0.15155760073190194 4.0220231991823825 0.1659359127055981 0.9418359685192876 -0.4612016568579864
Ni 4.614631571569147 4.1988267795361205 8.40326581729035 -1.0529791017547219 1.8753361634793704 0.04536942927373477
Ni 3.509194840379076 3.0855850426435105 6.227091573791766 -1.3222540782703034 -0.9246412019075559 0.4270167834461614
Ni 6.408231064372255 2.59487056058541 11.3243801068261 0.24648137565983355 -1.0122895944551598 -1.0591662044020402
Ni 5.77445541896644 3.428491081414823 6.371940542563344 1.8645940944715178 0.19080696491566493 -0.34754758427524013
Ni 2.412086509391597 8.714481696437423 0.7775787434132536 -0.9205117531202147 -0.6852321597134715 0.8311661753758459
Ni 9.6507518157947 8.87987435845405 6.198505969965208 -0.6344752408755783 0.1464181543876446 -0.5109100798267072
Ni 5.885314047021444 1.3541776717501632 3.182671049459411 0.5039760717110353 -1.7807918151428814 -0.08035185888619063
P 0.9329552875236096 1.9998352905431382 0.9384481750662671 -0.227101428471325 -0.37045379944945234 -0.4913802373238957
Ni 7.641109765145313 4.918081010924213 2.230992930609357 -0.19967469971893997 -1.201287274076228 -0.10752816219066642
P 3.257864474397671 2.4914496438469436 8.3805128483135 -0.7435571207066097 -0.7969275659079501 0.38990445197489626
Ni 3.780864132985333 8.224207967642526 9.51660488719525 0.47235304548911555 1.6012470534045973 1.3004938037750764
P 7.2788289475124035 1.7225463938310532 5.786013255057953 -0.4507791759730817 -0.3127397325674356 -0.2906277311597446
P 4.667962716416613 8.542936853455267 7.676924640724351 0.2550680888875801 1.3408639800620068 -1.9378103707541916
P 0.849948592759125 7.418455908351001 7.72264544589386 1.2524468276691787 -0.3344843233333788 0.1428417498902959
Ni 6.954480457593833 8.20699104329869 13.270662039418239 0.5780122727918432 0.044616096047477995 -1.702495810344455
Ni 3.6038466036517494 5.993564884935835 9.935051444099596 -0.05369131887586883 -0.8192182589853504 0.6094710055217568
Ni 5.521784428476128 4.747895157170263 -0.10021076380481049 -0.8297297000396355 -0.3840122548601773 0.3083351757418368
Ni 4.701762982288433 8.948622685153943 0.510348203461829 1.0872601344247792 -0.09860232045594633 0.4522423907821695
Ni 1.3103043573422442 7.606216798475138 2.708652851952988 -0.3647462075417138 0.1401300073860877 -0.7409168548702852
Ni 1.1864343256631256 5.5004170775704715 6.103006674896836 -0.07322116137868034 0.8445683077143648 0.3877781496605128
Ni 7.077395523869347 6.514278135970635 9.925577085412678 0.06407317633082514 0.9992409888013178 0.4502855241661148
Ni 1.9380196453790293 0.7572480809120871 10.832837375927562 -2.4136773429338367 -1.6309844325680296 -2.6224774019928128
Ni 2.301338069652394 7.0108968752837155 12.312290898619267 -0.5676124176147579 -0.5384339962785888 -0.16964627167764978
Ni 5.5968410362556025 2.1439432428909577 8.487745362542702 0.6746186458636833 -1.013321378153784 0.1763627644658769
Ni 2.03028399514269 3.250940975221537 2.8585282443970015 0.12456634861987581 0.595277230519878 0.5067479780292176
Ni 9.00604916240533 6.904106032553682 11.330145710450363 -0.07961369516858548 0.16238393368828163 -0.27249039812908554
Ni 5.394324094173842 0.2938474458690126 11.394749120004226 0.6534312131527907 -0.40194544229983037 1.5130985812921232
Ni 0.3112930109681347 6.932047952968772 0.3234201533579503 0.22710374246417014 -0.6581954673106536 0.8122685671403945
Ni 2.9163817013721154 0.02071907631436348 6.3854064729901365 -1.0321773345180223 -0.23935839146180715 0.3619460190887573
Ni 4.0165110286844605 6.607616821813351 0.6174044163857485 -0.6991086605852476 -0.026875741344921458 -1.2665349303311284
Ni 0.3619447432697177 4.124256836818098 1.1983016072748447 -0.5346637306028792 -0.3678796109643729 -0.5195410160288279
Ni 0.16301534910322918 5.735173284383544 9.00988922521098 -0.06496817734126875 1.0858020618220139 -0.615545750960927
Ni 0.4272395845052288 5.591294891026975 3.7182275848685102 0.05860803945119584 -0.815284214038267 -0.6885470830193174
Ni 5.878840483468162 1.8419170692816493 0.23065077381353696 -1.1417268980140918 0.3792004352938308 0.12393925655883818
Ni 1.4084545996415845 0.32084725618400745 8.32240136703222 0.6606565272566364 0.5394454682622387 0.9788259154800755
Ni 8.216393779580336 6.963304705217528 5.142942306978395 -0.09590600457070579 1.3244158618083126 -2.2434397175290908
Ni 3.1593744847912792 4.848910295680417 12.531647370063249 0.24966311582192485 0.2687396728374017 -1.058271974722545
Ni 6.849581180951709 4.841959249425333 8.263927182544764 0.8328489623949076 -2.298218613042184 0.4967237610239961
Ni 8.024151897946977 6.556296613729245 7.27025078712733 -0.3163945557112035 0.8704045520511783 1.2973670852206365
P 3.4457539175569094 8.758694758152394 12.184147396759018 0.38782700062057723 -0.05043604516336476 -0.8569594822898661
Ni 2.5134505775684537 1.570780353535095 4.4862438189422065 1.066277618635841 0.5146924296872749 1.5334547763509718
P 6.748235477494154 8.711286235279209 1.858858522835984 0.1381173478314331 1.648446336798219 1.4931972143825056
Ni 4.16063734575158 5.213009220524036 5.979580151188815 0.06233408215253136 -0.3567917285813275 0.12053768707645693
P 6.294039239764285 5.819458163611315 6.007197934308258 -0.34679656504182854 0.08859250162842806 0.1236237822009484
P 3.921776624174937 9.183186062414364 4.160448189142789 0.846124339347575 -0.27400117834665716 -0.17114985280636977
P 4.509493553576122 3.1303123164988844 12.080341739151214 -1.010342240920802 0.06984324604538293 0.3145613591572067
Ni 7.955899418668185 1.1808422686362476 12.892331375353015 0.5326675261084569 0.20605977730967737 -0.5492025476490026
Ni 1.3383931955117345 2.1260376415733684 6.562617750112336 -0.43764983767997534 0.23529604846697538 0.30434148120141136
Ni 6.07266173096133 6.690294788102364 1.5043964844450886 0.04825549257227818 -0.5103709194937855 -0.05438320273657085
Ni 2.1447329258208616 5.503989015474339 1.526477304695554 0.23679114495526316 1.2784270537830242 0.4576255094709538
Ni 2.132731581758252 4.326727867101609 7.8713243768754735 0.7822828194115817 0.2099989644630835 1.2457303348809514
Ni 1.9696987861716875 7.465644054592587 4.894839540413982 -0.23531353196847218 0.41257155455510874 0.2778228660855925
Ni 5.745365703595095 4.865163072260999 10.75587083734088 -1.2142343211551991 -0.5166924908364391 0.07756169773556319
Ni 1.6832458945288569 7.5299113897832575 10.085074672533974 -0.6070156020027287 -0.060016232652632125 -1.1120419693551493
Ni 5.011208502494978 7.047203925339997 11.753685722252587 0.010497299986898051 -0.24218223406384742 0.2004259760626677
Ni 2.964974748640158 3.7993574053205257 10.305600058361406 2.6725216110343974 -0.6372052382122316 0.08186032511091708
Ni 5.68834325016831 3.388593728735374 2.1000534002356686 -0.44522327915185905 1.333150156357517 -1.2767278117037304
Ni 1.4683878610774337 0.9179751859905247 2.7005889037083177 -0.7658406146951585 -1.5900640402045843 -1.0784433074640976
Ni 0.655538756012389 2.853666184962303 12.199924527109728 -0.15308528199517507 -0.30528019096559683 0.10907648051439281
Ni 4.664491784468896 3.2726572557938947 4.143514081476175 -1.1583241402511404 0.16066129457022008 0.025125848533350276
Ni 3.819457590594476 1.5984927149589334 10.45449385655883 2.1842053573478064 1.2310449649546347 -1.0818819008320013
Ni 6.239496023443013 8.22500683293208 4.023864262292217 -0.5547695002138188 -0.2771474372851227 -0.4755440416225875
Ni 8.367241583911289 1.2755399437071706 7.574342073421935 -0.20376352507633297 0.7441479602130732 1.0059795930767321
Ni 8.153191598109071 7.094291065625431 2.48272456570747 0.30672566516287175 0.8725717349058263 0.5944735036716601
Ni 8.114451222745528 4.719604307088472 5.470485339819217 -0.026352521851599777 -0.8907046970611111 0.5011843678985111
Ni 2.684150643462806 3.380531616962634 0.7162910839290225 1.178145545852442 -0.8815268872165851 -0.3647852883097653
Ni 6.759805250653211 8.846074092582231 6.397314156984316 0.5198163811774015 -0.623823417588687 0.41192312233783246
Ni 2.835944230837714 5.453816602346488 3.9078827957884528 0.22688879823988667 -0.8901305697251961 0.711576196924639
Ni 7.56261895485672 3.499130974202626 13.094001703875042 0.7862693148631555 0.7903059468263743 0.9868477573432877
Ni 1.152881983501858 4.873188454595138 10.719087222818759 1.7370154413878793 1.5657930834723615 1.5826201823320292
Ni 9.028867326135694 3.9305825070793308 7.6765619375181755 -1.0119509801688185 -1.2151051537959265 -0.36864554259612
P 7.443505385476326 8.591291159372409 11.018931667775218 0.262611962673109 -0.4035734648215566 1.4217657979143967
Ni 8.602576279382316 8.343900025680874 9.17407716164152 0.19278131503321638 0.0325229123283698 -0.4796704050861351
P 1.4395277046973396 3.779266402406225 4.872583337094201 0.10321282264476417 -0.6029134069088972 0.46610243659371337
Ni 8.521661326146111 1.3225719898347055 10.432789513054017 0.0762000415013462 -0.6959590592126723 0.3435400057777438
P 7.59251671787727 2.8843260838338054 9.290690374489207 -0.13016518286389195 0.1316700495441926 -1.2759582805275573
P 4.241699216742185 5.090865472459126 2.2714448978116697 0.4597384420488986 -0.19986007625686872 -0.32884795098320785
P 0.23657982343957157 5.018398290100964 12.625884090679738 0.041999227249921216 0.21367487065277393 0.806278925215863
Ni 3.740553574121632 7.373287881232426 2.8424416685260865 0.480025988653341 1.1921809408995856 0.4423732112975737
