# total energy = -340867.71015819145 ev
CRYSTAL
PRIMVEC
9.27558373528666 0.00000000000000 0.00000000000000
0.00000000000000 9.27558373528666 0.00000000000000
0.00000000000000 0.00000000000000 13.57575438696269
PRIMCOORD
 96 1
Ni 4.537875282191017 4.83022313052369 13.061640495968536 1.2429674274238336 0.3603359942891601 -0.4985518153716704
Ni 7.200301736725469 5.017460063909161 7.480932667677157 0.7818537022939631 -1.973947482796381 -0.19847373743230334
Ni 5.885534119430127 6.797620819799703 11.225696379462704 -0.20428160236333207 -0.5313824887484461 0.3694371852594799
Ni 4.590402912913396 7.338795477554681 13.58294963602651 0.42897107895905473 -1.631676316428732 -1.2029669757714958
Ni 0.9509977741609196 1.3303877003143225 0.2366887805395052 0.22891739863414123 -1.7358980399539845 1.034076094202632
Ni 5.9840964722565415 8.449324016468239 5.966951483270626 0.47118576465389167 1.6723470546752168 -2.5773535130709804
Ni 5.458402763764437 3.677991567112902 8.372588967299937 -1.1714827891202857 0.38883770127327877 -0.8435033567849601
Ni 6.25960913610023 3.292832227872916 6.02403713584308 0.08232106679741952 1.7164563862896052 -1.334159828568954
Ni 1.7699112358573033 3.582109857987487 4.385131462061294 -0.9901809354815786 -0.9644390506307843 1.3853677189013367
Ni 7.913019040177016 1.532038890832512 4.411088255600673 0.9401256706964002 -0.5637704181608484 0.28463294702889047
Ni 8.2025285598851 2.7108635528272753 12.406719354803963 1.2331900363220956 0.6385671515567648 0.5918154972235227
Ni 2.2679080513003145 7.161195875675575 3.291265581779148 0.4508547664060235 -0.8611794339084845 0.24556991958915772
Ni 0.3497915384375086 7.71925209583824 11.783564305275437 -0.6632813664739932 -1.7185623768890146 -2.602627457146421
Ni 7.372790491963567 6.9619192345949505 9.448765381830599 1.3673126611718387 -1.1270258443584913 -0.1756503117798846
Ni 4.086376968039067 4.2568065436867775 6.254376779312222 -1.0989545400435718 -0.4593466059271186 -0.5464779496289879
Ni 2.4520098373815022 1.8366861632050697 12.096282263060594 0.24895066313593253 1.1757906724670202 -0.6722830557519712
Ni 4.9264480362475025 0.4896738341526722 11.456036022931846 1.3123882412198171 0.19512101890998657 0.24422189020169552
Ni 7.369135911969814 1.3998710981143112 0.817114926009103 0.4128597752194889 0.8304218410106536 -0.016172238884488276
Ni 3.3973402298769844 5.388381382107499 8.264674970946361 -0.3047410306326752 0.172761934488496 -0.16698697967793175
Ni 2.43560132974458 8.61674830298403 8.716231721275877 -1.5648163213813888 1.1138612819520755 -0.234183532129087
Ni -0.014900297720718459 6.798242283910315 1.0222119958868834 1.439266011581689 1.4696055431054946 1.597818230228706
Ni 4.847030488261451 2.4429475920670463 13.23181221038826 -0.14808705744963527 -0.3630125126800587 -0.04644106507135873
Ni 2.5060401126698397 8.99415325421697 11.09422889331691 0.12482345893600438 -1.4339664537456467 -0.594591260196447
Ni 7.883893707231886 7.334380299694209 3.450983713323343 0.39570228960359594 0.274976654886049 0.4053135874411149
P 1.0716452918734352 3.303684660849286 13.373788005353651 -0.13905760025751537 3.1478805332293724 -2.1068832864268745
P 6.4257441164760944 4.00206191183804 0.4572436107208072 0.19013050767393064 0.23144479304168525 -0.2178022625575862
P 9.436886141734158 8.971066326286897 1.652984154783097 -0.5219251999902882 0.24359196992718046 -0.20918983829822682
P 6.395487162314626 8.326385429571822 12.57793642751124 0.5479013123390758 0.9550121008899295 0.6398755859555432
P 4.400309099735853 0.4431419407601447 9.400707654912763 -0.9123078771531836 -0.04702779081276417 -1.2873590661653311
P 2.077665828782924 5.204530036787306 6.001461292577108 -0.5102603620578503 -0.09054088360405052 0.5165937604750458
P 6.27712143820227 2.470273461766521 11.67487765279628 -0.7435242105861453 -0.27019363167510885 -2.1453986688932534
P 2.3011610190099607 3.800605508578401 9.58579914577906 -0.21782283138287648 0.8342512420590729 0.4407541876369118
Ni 7.418277954626916 9.059147269486562 10.521046978748632 -0.22055925647743305 0.23844590694986678 2.1828586135119243
Ni 0.6115744832285276 5.561222609527736 12.545544233972711 -0.33973862975378266 -0.9596670831634376 0.8246168042931025
Ni 6.398956230633567 4.973326836471924 3.4654823782680984 0.4560558509909888 -3.35692150465456 0.9430518432042596
Ni 8.198280342531955 9.346541956101813 8.430217241521209 0.5928069146025146 -1.1487408674380797 -0.9910096020304608
Ni 2.5015136278044814 5.125010457380109 0.549559785456379 -0.39970781121856325 1.1367052764297843 0.5442151217367401
Ni 3.4160212555303255 0.018516847821134372 13.136673475520457 0.702636728343164 1.0533585965813277 2.3980591767806057
Ni 5.524463471164186 1.595836355799582 4.347798165064208 0.6788794780225663 -0.5848984583887152 -0.21799586662563103
Ni 2.446694927898203 9.11453178000101 1.9167743358955573 -1.2901219736224492 0.9263838956302756 -0.8677378038522927
Ni 4.075283369885446 7.820689879624207 7.2557521038844754 -3.60413898714947 -0.685003331532117 -1.8414778201690285
Ni 3.9278665174978835 7.415560208590953 9.799698744626562 1.875489401227783 -0.8483390876107068 0.6360364147151111
Ni 3.4902723033729246 4.838589707057609 3.7153174436429963 0.6841782645276604 0.9449886552156566 1.1289744834444297
Ni 7.5881973731688985 6.409159372748103 13.243895513326992 -0.833877660769738 -0.1248093178686173 -1.9222621386069474
Ni 5.41067060983589 6.181508721005329 6.170017200309239 0.7080576422484194 -0.9795507094612421 -0.6585554217532336
Ni 3.3543386236560857 0.15617764123045133 4.1612262910329285 0.13423163962378173 -1.6486566530368123 0.8967172218037782
Ni 7.197268620842329 1.439394360432527 6.652227899784316 1.389901087995316 -1.3560198618668389 0.973482391779975
Ni 8.616256697045785 4.448820402698601 1.1657108417024626 -0.28581385471086906 -0.889056619934727 0.21582302734402828
Ni 2.074614161732304 1.5726288452808832 9.624829874600655 0.5988418079426848 -0.01517439374759322 1.387239482002753
Ni 4.815484227960055 1.4477516613827057 6.957329675760158 2.725938850313273 -1.127880993269935 2.6682936889959783
Ni 0.40581513667167657 6.320744508533781 4.943800798309205 -0.3593191229888715 -0.309473403111338 -0.0705307590307108
Ni 9.009819715154652 2.043271964273198 10.093315492814932 -0.6410400385772895 -0.9565503919113267 -0.13102624531260662
Ni 5.48456918549635 6.9339255228661605 3.7461207296867793 -1.4457523906369811 1.5678265689626223 0.25272787079017767
Ni 6.456232960231076 1.5268260127703581 8.929520059154882 -0.446068914981606 0.672678491418177 1.093598160827665
Ni 0.7251846155571355 9.02365888609546 3.794097759026075 -0.45130368101798407 0.09034650820505731 0.19052542911950412
Ni 2.9295910930117013 2.828292442981842 7.884214642429307 0.5410462370904553 0.3618902261501574 -1.4528051837187044
P 8.258562361261381 2.9783064588167396 8.303216876504834 -0.5982807932328922 0.2273701087516794 -1.1325951109161525
P 3.7405924817774494 2.2278189783739295 5.5137381136850605 -1.7717536162000134 0.9195373050220874 -2.5930801797776177
P 7.269785134525457 2.6601168341830705 2.643728732830378 -0.6782724405661867 0.5322813464136317 0.4353358448348181
P 3.749061089732514 7.301656040257771 5.063688645713375 -0.21401245649785078 0.6060352403673305 0.608523811117139
P 0.34685952641714063 7.779255847055452 8.974415739575587 0.035972304329550946 -0.5233380211774148 0.6078869488640886
P 3.4190729225809453 6.226615884735318 11.66422000707846 0.4691311961177082 1.7479698835168542 1.4401018772194232
P 1.0802344824171262 5.419705028399124 2.411312286161741 -0.35216117178785156 -0.49314889918854427 0.6656326403149891
P 4.241650239854821 5.8068122402246125 2.0759906583593923 0.180461874235915 1.857882229668981 -1.6694316808006346
Ni 8.806517470730656 3.9821750602984354 3.8212084351827706 0.020836991350009278 0.1053406676210444 -1.8799970592901492
Ni 1.376385320083398 7.256817868456256 7.13126263938665 0.7647882621712441 -0.10446340722241364 -1.5003613362311128
Ni 7.0707774853733065 4.155127594723558 10.09846065911578 0.28791290333174285 -0.7768593344031652 0.27152366334044203
Ni 8.591064211606621 9.162542201441772 13.08527561089767 -2.2395586373071303 -0.6104184570366906 1.1146243853703448
Ni 0.26119765545699425 4.3459356278491175 10.506018677972294 0.29427175567023517 -0.7055104503465334 -0.8992343317986772
Ni 5.276360157273637 1.4038039456202778 1.8058337165674614 0.2367206967286439 -0.014435201588723526 1.1028939843072942
Ni 2.0326699720578216 7.4976305735267825 -0.2840526937935544 0.7093550209036041 -0.8586060167543537 0.03475360143110144
Ni 4.419908408179502 2.6834449272903953 10.21248355492084 -0.3965972906140396 -2.6871820412600496 0.6187575730300053
Ni 0.047650528791630266 2.0208065004537383 2.408420159151457 -0.7610989862451151 -1.8212015864184956 0.5479733032275917
Ni 9.336895349011707 5.720224666007166 8.233464486776372 0.27394461407710885 -0.8779846783912815 0.6083687735965135
Ni 1.812810810657056 6.240353024254979 10.177159349361943 -0.5618904275293162 0.533809353022384 -0.5508938193084963
Ni 4.660702562082546 4.810512515075154 10.555895346861643 0.43617736689950687 1.5483031542177141 -0.798214917260806
Ni 1.776023845542284 3.2214751621573487 1.8018693320767774 0.9909034154698999 1.3975220948756835 0.8882716621395863
Ni 0.7621088593112665 1.309276471720974 7.74419414051641 -1.2222903586904563 1.0917698493696746 -0.22343066448795712
Ni 6.959479756071202 8.180990654439688 1.2575233522409264 0.9005345386673395 2.042596708533663 -0.34303606955813176
Ni 5.843163252903582 8.354777991401454 8.214037704190295 2.1259798980470097 1.474038639176184 2.715885579842329
Ni 9.145280340100726 3.8157154344916546 6.206875587418812 0.389751985557432 -0.5834010479075824 1.11352292477605
Ni 4.640852812877905 8.47468346241473 1.9185255661057612 -0.6064394177842846 -0.5918530353296774 1.2693741995521364
Ni 4.554014797899464 3.6960418530718897 1.7923933957274956 0.18054774908150195 0.5075118527784357 -0.9267538773751846
Ni 6.345760757881874 6.086879215684879 1.5600038482517062 -0.7851436858991445 -1.414030634053668 -0.6604883771098883
Ni 2.474781395464398 4.282926587499989 11.639865106851063 -0.24709766908759379 -0.8204238492576773 1.0169957416815776
Ni 7.674265514696878 7.143637195654834 6.9413914402188786 1.3404250927523753 1.028286226993732 -0.3729176876089126
Ni 2.7151024945966777 0.6820262519710232 6.748724580111726 -0.8045539721049564 -1.0303755054225932 -1.3739977865014983
Ni 3.44810549968867 2.26516247851313 3.2979440020722985 -0.36962461867993757 0.22928018129019867 0.001940154445506336
P 8.041003544628257 5.692629804379217 11.266423612550435 -0.34884779114390246 0.8522494784087065 -0.09042055597610234
P 3.169466964124438 1.7422236183919493 0.9869230375462001 0.5719007605774666 -0.49080071067134184 0.2584503750962517
P 6.273142212777601 8.977327345311725 3.331354654705533 -0.05090372882840266 0.398571640731591 0.12275912020780794
P 7.649777973621991 5.081155497455087 5.177439766914838 -0.6822288541107734 1.2233213710581317 1.761143959004967
P 5.592221610388444 6.064154035520686 8.413465537285889 -1.0939653143590966 0.16187974035835345 0.9510317760859428
P 0.5341344896959489 0.5186043798392515 11.495161362707593 0.34380122985893047 1.8978693115848801 -0.7043105165011612
P 0.7422127321879217 1.1288941947197215 5.57090539139443 -0.16933902484987612 0.4852769526396352 -0.15091090005167557
P 8.540512280220968 8.46361769101233 5.47282073113065 -0.07897683291553495 -0.11584619513805855 -0.5469168369386195
