# total energy = -340867.4141411929 ev
CRYSTAL
PRIMVEC
9.23448403035155 0.00000000000000 0.00000000000000
0.00000000000000 9.23448403035155 0.00000000000000
0.00000000000000 0.00000000000000 13.51560081437299
PRIMCOORD
 96 1
Ni 5.335047753362013 2.226378717861879 2.3230342163982036 0.7024210127879322 -0.1113310808765244 0.25277106532328725
Ni 1.9314754670347365 0.2480299328101238 7.91987220737878 -0.675455797052998 1.5307630884514218 -0.2994216753022908
Ni 8.830475453372634 7.189156712320037 13.517898676467434 1.2750373113751847 1.7560310632584337 0.5606688964173893
Ni 6.811438607776977 6.7533075301519 5.290695449513644 -1.2875488135786342 -0.8534774372785366 -1.0031976594562206
Ni 7.460973752811564 5.9155181915565755 12.040103257015652 -0.16832395332180045 -0.7708349825859564 0.18183458621372556
Ni 3.2304164743260317 4.511165547872863 6.721322047456112 2.3642980211697604 0.9193498716016295 0.8934750607173967
Ni 4.192926755638481 8.860487526808933 7.344201854037198 -0.10184910952801814 -0.7084337946409154 -0.5306741498275118
Ni 6.740905617959608 3.6788245549167438 3.818643879193361 -0.7979462369804516 -0.11447939669751896 -0.8983804684388139
Ni 3.7167598157402257 7.50224266240751 -0.09230605650909508 -0.15260757102780814 -2.159619697588642 2.375231637363129
Ni 8.594220411282086 7.871114131149962 11.178347661746718 -0.543812744091999 0.8082756439309177 -0.9884302713390589
Ni 7.909751212767647 4.26139122100978 5.713828747028924 -0.7267176805517678 1.9370223276352576 1.5956657026620777
Ni 1.762770676386198 2.4834667561592845 12.880516112553513 -1.1763154346222389 -0.09001869255199335 1.2410051614911402
Ni 3.7585366219635543 8.789538985205521 11.716593421237443 0.7161897844372505 1.2012592490517697 -3.79081676038811
Ni 8.928083950671612 6.216553139848857 4.6177942892741735 0.6375747057365084 1.1027813699888296 0.6994801849920534
Ni 1.8288064724301905 5.745077317890799 0.8082140562585749 1.1620748655428244 0.5080898367690927 -0.11561659562575571
Ni 8.839008116712677 5.09286417245728 0.6028105022121301 -0.2960093071866321 0.5183459672794621 0.8244082878267223
Ni 5.094240110593282 8.220112990035517 9.51117144166982 -1.08471448518479 0.26195915958045857 0.667246007548696
Ni 4.797434556034486 5.18629868292758 8.819348823439281 -1.0701553564236925 0.9242002577153954 0.07086551666231021
Ni 3.10474437974308 2.136933504537573 1.5649846483020928 -1.4515980507844806 1.0907763751081538 0.48538442475177696
Ni 2.037930600134323 8.160199656972528 10.07443434212863 -0.47131946201827857 0.34367164625960167 -0.8680332236055244
Ni 3.927897060985624 1.6725128284580788 8.34403237952979 -0.7229718403560903 1.1816463599168487 1.3535233206972301
Ni 8.767182299116513 1.0668784209976963 11.408761892622355 1.7401185057932356 1.3857377006462457 -0.6137166681719882
Ni 2.9547486539505234 8.41917153003332 5.162810772532125 -2.1934561865221127 -0.4699128114787391 0.7856815606804856
Ni 4.427547294037266 3.546263535169644 10.610354858514349 0.8684998788292978 -1.8785045339050228 -1.3307140361121985
P 1.8944636546246787 6.155854875634459 4.458823568351544 1.4480825814320544 -0.7321313953681714 0.793454262647369
P 8.992531415444514 3.7981710278677374 7.726206606115375 -0.6789630388753081 -0.43421304408428446 0.8933439344561712
P 8.824149831740675 7.687292489973663 9.043207494028016 0.35143174982099473 0.05891580049960175 -1.1238890985017225
P 6.0206712623932335 7.473006285638488 -0.25113641327288416 -0.28494225073919316 -1.4472330889475655 0.49293164097141556
P 3.4130191635966103 6.796303288280948 7.772268212976994 0.6801174641947255 0.06871967396390101 0.07900382949872845
P 4.036032870197643 4.021959516377053 0.747425294099661 -0.3334548536275999 0.28978183821968156 0.5263305281468355
P 7.044609332166686 1.3785607294967637 3.9841960169584674 -2.004592461375748 2.562145437871975 0.42766007345711515
P 6.383466440575352 0.39383504970255906 7.134791457324905 0.07866752920523226 -1.556413184919358 1.4287558560789846
Ni 6.577187448743563 2.143092905455115 11.523590855934875 -1.6806743435939893 -0.02575371192533629 0.603004938181439
Ni 6.607642777418304 -0.1758448937811371 1.9934831810993707 -0.7105318148205247 1.7802814511653662 -0.23959673272485835
Ni 4.081688159757355 9.319164353756925 1.7147375071619182 -0.36969712378908587 -1.8174742581655796 1.3030265974992592
Ni 0.006286836798594602 0.8783194894605295 0.32545554158529505 0.7648972769452825 0.6528750835390046 1.1693896540366828
Ni 2.1774267174662416 3.5852330582161613 4.872184934755966 0.7593166975337116 -0.8417933160723889 -0.03527013605620377
Ni -0.25319200944116727 7.725384737027428 2.4687460650008832 2.2624378558981486 -0.05309919381782468 -0.4782804667171441
Ni 4.3651406502580326 2.356843509710505 12.887328391499349 -1.3280107782484227 0.8251238258365081 -0.3667583528757361
Ni 6.969883886552368 6.748311674235272 9.70882356973398 -0.13123244778614174 -0.7469648608365781 0.03979090674469276
Ni 0.906879901990925 6.281360749502995 11.375594395957382 1.8468344564952517 -0.5197916985870532 2.518961960505965
Ni 5.078218280620367 5.7505441324982725 1.458631094527983 -0.3871214899131204 0.6277916582078156 -0.3821466624063483
Ni 9.044613905961661 5.364625806044002 9.76968436086914 -0.9312666776438735 -0.13406657480082718 -2.119736231130143
Ni 1.6636661926574714 9.342712288299252 2.8925276233023878 -0.15879673055765556 1.3132243639678673 0.6046424737848619
Ni 5.231510717248848 1.9030978972901986 6.311447622260782 -2.046655709094385 1.0937922791163421 -1.5205907759041102
Ni 3.150159572715301 4.530170116221141 12.173069670616245 -1.3502389935190036 1.405994651123069 1.4856821369523834
Ni 6.3492896147945075 1.9930140693053509 8.790330380495826 -0.7345217499772188 0.3871271463400752 -0.5109440183884362
Ni 6.95087931820409 6.923923859016226 2.292529944957549 -0.1338598581066598 -2.8214622747335794 0.07850015038943255
Ni 7.502085676177227 -0.23765221954005827 12.90427644023093 -1.3908467397380369 0.15299400783294942 -0.23361326144791378
Ni 7.027599412391406 0.3024995374759732 10.183288594206294 -0.2978293911145064 -2.0149938592147296 0.1874987264780384
Ni 0.9982939073326521 4.6528410034604635 3.1621366986374175 1.0728048782313977 0.04022773717179524 -0.7730407319880235
Ni 1.4885896079563035 3.559302626767199 10.644346994612508 -0.7611722626852117 -0.004934718297456017 -1.3438084074023116
Ni 4.2754553403462365 6.672127180127744 5.675443766828105 0.04988197243210764 -1.9514061071607556 -0.11638818368445762
Ni 2.8058518317699424 7.330749057550429 2.806419752544199 1.7067697551294605 -1.0392818067732874 0.07094033576430364
Ni 5.174026053513167 6.324051769655614 11.336670121883124 -0.4825456697514012 0.656918657480759 -0.14336111272887567
Ni 1.3143810647637546 7.305428102054327 7.603755499598448 -1.2292930152605346 -0.3689810715586678 -0.4838471621716442
P 8.313815300545711 5.065040671760797 2.920586603344294 -3.8759639837804145 0.0221924769366392 -1.3974588457379158
P 4.928065568597528 1.1703692846901899 10.34832821810195 -0.029966207344787103 -1.0313244995994237 0.30726971059179986
P 0.7623445266669487 4.370893733873668 12.479305480372934 -0.03626823830341496 0.7602826609914067 0.6975225470450503
P 0.7913214144317989 8.309345810224734 4.941222861592001 -1.2761125467172345 0.18521327287797135 -0.272521251367021
P 4.499548566831981 3.554426819144317 4.487868791298987 -0.006231839842324751 -0.7059179701975972 -0.2321212502834196
P 2.933213836949462 0.6261100291312459 13.37065944418895 -0.3568899447220886 0.42367692043965094 0.6796461809852619
P 5.25248223071772 7.448137819864963 3.553954013556644 -0.3935381920727416 -0.2638193527176489 -0.9281710694376853
P 5.84125447014897 5.2292667376042266 6.629672562768962 -0.4666601088693963 -0.6958369318125114 -1.4081759750451037
Ni 7.94240434866634 8.171659651783129 6.773329738651771 1.369716642627641 2.1778796722400946 -0.15565201428108677
Ni 3.309703755102667 4.727141662804606 2.9375752838060665 1.2439380188672189 -0.22415031626280105 -0.47805678074211216
Ni 7.571528996866756 2.0646182592822937 6.489799678484366 -0.2377992745048034 1.562013047604639 -0.03995905689144086
Ni 8.217896713843297 3.2709096872547003 10.190316960080867 0.4412648087247432 -1.1474743420208302 -0.5777592762407727
Ni 8.403325155258955 0.926144882791789 8.349491806549956 1.8759627413197757 -0.894557495148298 0.45766150491521174
Ni 2.1630393911850865 5.698609393727273 9.270986203131738 1.0701335020468214 -0.28967668010038494 0.16067543563760717
Ni 8.118903043924183 3.2341472059162673 12.909805125882102 0.9230689723244295 -1.1287875642446044 -1.7893222212113957
Ni 8.883093543969567 2.7008742161318353 4.469731341010915 -0.3476303737970336 -0.4225878011405303 -0.2991519665806719
Ni 0.9827615050188505 4.9899181433287065 6.500936466350266 0.028274678574977112 1.189476654594545 -0.9317742134079114
Ni 0.14550684305489908 0.9423606369315247 5.970624975627688 1.9357105508023698 -1.3463571419660942 0.0782839206135684
Ni 6.907588056582746 3.993600415600784 1.0960298405126836 -2.004830545528483 -0.14613481881927087 2.0814496768451187
Ni 2.7962664372385952 1.7020631776876658 11.054491066744559 0.9321686206328527 -1.2993648323769558 -1.5628100895846375
Ni 5.51288544881932 4.286610597180405 12.530651982504581 2.01175555478309 0.862191677223083 0.9855020419486704
Ni 5.304620128139672 8.779307176784776 5.2447963695727875 1.8151504951284094 0.8388185497147811 -0.426610034926046
Ni 1.7014537017348055 2.76804585372434 7.124695395820934 -0.3894547660319873 -1.2899923900231203 0.841183707512848
Ni 5.184608772331013 0.3894551338776862 13.306163036650137 2.6529711997062955 -0.9639376855143333 0.45301912104719394
Ni 6.852624407015714 4.22715898832413 8.166910356592886 1.0461034576808113 -0.8425155389503942 0.28566473072751447
Ni 7.91073930257001 8.803030566525655 4.23082877231908 -0.3545672101261829 -2.9431677568658925 2.4192640929929947
Ni 5.971414524021165 7.075895764413511 7.571047880243362 -0.7597476144235431 1.4997913226602557 0.4754368266207618
Ni 8.670044760508379 0.9387684226033031 2.72709645727944 1.2482996382700242 1.1187360935458732 -1.9938005129665664
Ni 1.2607379464279203 8.859166995577736 12.310657943526028 0.853886242681181 -0.5121447235647567 0.616695548294654
Ni 9.134724002143633 3.03738805246789 1.6790840873680082 0.11009052360120396 -0.28248299056542314 -0.18556937066580945
Ni 8.18090337040151 6.045188817769656 7.426065555887289 0.8637579932689382 -0.5165104567326201 0.33392562261643133
Ni 3.740021481274391 0.8443153485329958 3.933215200398536 0.6085160978076553 2.5503348183902914 -0.3766473298546739
P 6.432021358153216 4.418451327165034 10.29638793864047 -0.31673265577691256 1.2923783737567935 1.3587930537366018
P 1.0875451964901386 1.2744880933038123 9.690280725592414 -0.4844320881408367 -0.31031466806571073 0.34391255862581416
P 1.2910824612930523 2.415205449438939 3.2363782572831012 1.6481151787110455 -1.1981258456291106 -1.4521719210100796
P 1.5784042006459789 8.067559312137774 1.131127344361712 -0.8745985355278679 -0.9762920933146283 -1.3099801459989568
P 3.0500300612476727 6.7027487295169035 11.400936590766994 -0.0959527986482412 -0.03863365321179798 -0.25250675591830707
P 2.9464560871979706 1.3280019288617673 5.984600443916455 0.4479897861534027 -0.043778430637531056 0.565936829684548
P 7.161314742655286 1.6050826253098152 0.7046437760025267 -0.1196974505633487 0.6997303533296465 0.14366013202653322
P 3.0398444252475993 3.6165564283995235 9.007986248091589 -0.8402074596425079 0.6119523771827138 -1.5951699939725816
