# total energy = -340890.65185823746 ev
CRYSTAL
PRIMVEC
9.06516346692922 0.00000000000000 0.00000000000000

0.00000000000000 9.06516346692922 0.00000000000000

0.00000000000000 0.00000000000000 13.26778305461520

PRIMCOORD
 96 1
Ni 6.272567226127626 2.0867733968351416 11.489713749553099 0.8752968471464732 -0.018064056590562438 0.37754490196827883
Ni 4.485959516577747 0.7783757144209134 6.042215080986906 0.41838713279562134 -1.369364658604861 0.019236736742424935
Ni 2.8139173408497777 1.735362341398649 4.624458894551946 -1.1425419377162194 0.3311182350746233 1.1717599540410721
Ni 3.7771181372716436 4.291720262486744 4.945566015583211 -2.360386601930496 0.47369207601551316 1.0344813000608506
Ni 5.0819124172729735 4.443924354342251 2.929075736351698 -0.23656154544296037 -0.32280508722323764 -0.678131029892316
Ni 7.023362181199501 6.132700821527353 2.5852939223509166 0.5822432801540554 -0.6534888058636035 -0.6401656063921362
Ni 4.907634652774932 4.259257912699098 11.726517571416487 0.8775599321490369 0.10357303419766034 -2.4736264697939596
Ni 5.590522469544864 7.84866371345782 12.755115362421725 -1.2496324981488351 -0.31456110204689053 -1.777317483441036
Ni 1.9181432290748002 6.358595625872044 0.6023229909481664 0.2974961761448038 1.1725441405052646 -1.4715485257644785
Ni 2.477971454008014 1.5405791775094728 0.3616982027526109 0.964141059774391 -1.1309339211636458 -0.46507373821888287
Ni 0.620206745112106 0.1279040151057822 4.659791275041285 1.1547631623727594 0.16972263344153996 0.9334192052105021
Ni 8.492054613717064 2.3847997055809205 1.353221288881693 0.692531264478046 -0.38689163329050147 0.6866017863674885
Ni 6.964764965609626 0.6365847756514356 5.061221182034129 -1.1773850135373334 -0.2990694341691946 -2.8451817298377065
Ni 1.0104393623932206 7.567081610943481 2.6831967795057876 -0.9821069002241924 -0.5504420764830584 -0.4291325442375835
Ni 7.530911609364954 3.784188964647897 3.625845944203674 0.5318763976657291 0.5278621343000135 0.43156429360752774
Ni 7.548289527416592 3.8151555624905655 12.841303309040272 0.4008918042243354 0.05275338044263173 -0.8902832932529764
Ni 8.045459343600237 9.02515873723336 6.947196679128627 0.6065764575827811 -0.5479774169926499 0.9312059996092672
Ni 6.969723609936306 0.5942513695432741 0.3243479169120476 -0.37926394154191456 0.20608728811350313 -0.12490676267843005
Ni 1.8248083077082549 6.4112188988453145 9.003861949085884 0.6679466331601465 1.512372501759376 1.310494366631214
Ni 0.12552169018978296 4.74703621970095 1.3393026371464374 -0.684675258768737 0.2644217621883381 -0.0614791903514038
Ni 6.554647912623625 2.001026017153114 6.8244298920665925 0.608215792958417 -0.2066642436628957 2.154055830347619
Ni 3.4968232879463153 4.066197129837471 0.3144424129709808 -1.56279466296567 0.12078785541405003 1.2392069319401369
Ni 6.209600601825761 5.7750619989017755 4.7406053928538805 -0.3248087479168277 -0.5927184686537663 1.3758939750829466
Ni 5.333108092396028 3.0670982867361647 9.345295885791217 -0.26905206187149794 -0.4680155944560262 -0.23122624927297594
P 0.24123849975116116 5.894776545479728 12.493182907882728 -0.944637956744457 -2.598762831984692 0.6666040030893229
P 3.972735296184686 6.034425386160733 12.600984016848022 0.1580912198501987 1.5817033269447147 0.4243922013391207
P 2.4566955157361337 8.421690816160039 1.3038705398607653 0.14959115279898752 0.3663734587324916 0.055687523370291196
P 6.437734501506265 7.726483442461481 5.7541713300702675 -0.35474898711968583 -0.4540632460409922 0.8302369786933572
P 4.67800500114945 0.9948382163489485 12.760927038615206 -0.28612598663464917 -1.2550197306026774 -1.1898358377061766
P 4.19550261918988 6.338724787912111 8.192656745763559 -0.12629207306173088 -0.5451779998706416 -0.7456263445308127
P 4.767877030134292 0.9098885710375757 3.819555792757788 0.03571390846184171 0.6816058758147938 0.37504938923993475
P 0.06434180957491532 5.707136730273229 3.3348442305013037 -0.04967859817204993 -0.3738939354792528 1.0060623825985253
Ni 1.4508612563007803 0.9469106979665743 2.615186298342193 -0.5904908648748283 1.1464338165714578 -1.025416618755421
Ni 1.803387326823528 6.473750395308643 4.77373493866062 0.7494804281695802 -0.3359755631669246 -0.34283989438692564
Ni 6.108233945772856 5.7665951363768775 9.34561407302315 -0.4738620259344742 0.018139389913188114 0.11917705928350442
Ni 8.681725025503411 2.5362785843721958 10.311137364283214 -0.5094936590951548 0.7344235338364578 -0.1334677648745637
Ni 2.6055545623328737 4.924187640966007 7.353244380307962 -0.24583294344255727 0.7774992819800094 -2.138943657296529
Ni 0.5083390038891343 -0.13355886397412436 8.923233667120998 0.9774730009966069 1.4485667201573245 0.061610316612629376
Ni 1.3295421758182167 1.3638991447361661 11.266258380653214 0.7322175273240744 -1.37580475780325 0.4198032964168576
Ni 4.216107735377347 6.645988498063534 1.6945083699415189 -0.16662445413219046 0.8135124668498247 -0.37893355478568935
Ni 5.713373562625616 8.074014608004337 7.932753981288078 0.5298125731581649 0.3872549301671911 0.2726258952656853
Ni 5.555730372788376 3.045677305851438 4.93138266107951 0.5979118399292477 -1.691872526302654 -0.6236048738199776
Ni 0.6850099714991383 7.208200860945408 6.772380443930395 -0.06964167155753813 0.5151202612533128 0.3673903300327802
Ni 5.160398601149386 4.42876740129982 7.165823035537063 -0.5682598213907697 0.47009587402382264 0.35118955190320167
Ni 8.349341747839683 7.136948677384701 9.233182478642735 -1.429618718299912 0.25226764332430746 0.5392814318805487
Ni 4.667607258841037 0.4123652134851182 10.679915459575382 0.3112081264142576 -0.5991634529481618 -1.0188564490394
Ni 8.298676550139836 7.461191438402434 4.66419603789016 -0.6050268537074741 -1.8194568358132472 -0.24784920254163767
Ni 7.082104439402222 6.092596539075372 7.197520285541944 1.063154242515511 0.09963487548551873 -1.0883286848986096
Ni 2.2179644401545513 5.181638278768055 2.4775462978491083 0.8349261566389106 -1.1274349068714518 1.6451496683248181
Ni 2.2832880069151695 5.401459423699811 11.605144099954106 -0.3813431926684465 -0.7252398104546607 -1.4196999165243034
Ni 0.8816795958716457 3.325101899499689 3.672018446970609 0.2344604399395575 0.05977686294831641 -0.6113659085516245
Ni 3.784714744119465 2.442363492554266 2.6480901215826895 -0.03970528900942194 0.635156583213319 -1.4385216772164968
Ni 1.2768735770284316 3.201190182312499 8.305048453425435 -1.1836065689670132 1.0364255682714152 -0.16369365363864063
Ni 3.3772175233279977 2.6319523178708866 7.084212996386474 1.551277920575322 1.280774728079594 -0.20484904483102784
Ni 4.047695131536274 6.836012451218694 5.86365674637724 0.4511704978742294 0.6901090281897985 0.6766912121219959
Ni 0.9494942695078978 7.360006085615587 11.261853617804341 -0.4539141220576376 0.4616006920686179 -1.4244718839916497
P 0.13194435838987983 5.562692418204995 8.092670714081683 -0.135649860127547 -1.0465004360089136 -1.2243459556679044
P 8.736061614340928 1.7576989037769677 8.080292233591587 -0.8883919897675345 -0.4261639485275628 -0.242419289775318
P 1.942002738888004 3.550171773983817 10.297590384243378 -1.1674816383806925 -1.1084691644022264 1.6624519070486918
P 3.9340814398611665 6.028795919749639 3.776249694627227 -0.5585747328925219 1.5853499225583665 0.04775721277962098
P 6.9045904116050485 4.0354843565672835 10.529405646741186 0.0549231344004409 0.3227675491170828 0.6628545633492197
P 6.555554428953913 7.920831478512119 10.293305281550102 -1.0312013437579983 0.07747093779396981 0.3071617242590258
P 2.4211238149355965 8.523374752928545 5.953453534506668 -0.3724160653821457 -0.24322790171954237 -0.8407651319181907
P 6.645480848918573 3.90340492724419 1.6398717241986769 2.2094399635448787 0.2025543352595802 -0.15089830164618528
Ni 5.3717166229030315 2.664922316803494 0.47443982571798093 -0.3721730961334042 0.45422933930521125 -0.013249408810738472
Ni 1.6515639718267427 1.2611908445144335 6.9701768681014515 -1.4170413958555337 -1.667398966641322 -0.4759497617014383
Ni 6.986893029231979 1.066280768339017 9.383639713529778 -0.6315493254780349 -1.2611703235851055 -0.9357882196633109
Ni 2.8309326523693 1.5190312843385056 9.225646608389045 0.7546308620222681 0.6263734377040502 0.1394178118104115
Ni 6.3748947894906385 1.8462655492461932 2.5531724227034602 -0.6096013604520341 -0.46154901289507605 0.7018998501771395
Ni 4.180264079677724 7.064218872205622 10.276627194105444 -0.2779185111231924 0.1655826431312374 0.6627722880480585
Ni 8.056083714991223 7.105329387784224 0.46709794995897114 0.002314764176105691 -0.03262601356513736 0.0963960568332469
Ni 7.640908300882209 3.921208907971064 8.304584317064329 0.6623768523818528 -0.6523994294541667 0.6479359943661744
Ni 2.7856702919979757 8.326778556378791 12.235734989629671 1.4851972268961648 0.29374185130869407 0.7492390015827355
Ni -0.10790535834327876 5.026596790798744 10.256035675662933 0.8308555861139627 -0.4143332744412219 0.9453249555091526
Ni 8.863481549726336 2.182012002495293 5.56706907904763 -0.2577770031783109 1.3029672050162333 0.7756108067080448
Ni 3.4836606708305204 2.4432972043744634 11.564796871125607 -0.12557936326542243 0.26843525422310544 -0.4528980220882975
Ni 1.0263033981732763 3.5058068647794784 12.621057914465942 -0.09207866040481562 -0.24646517770991744 -0.23393773466686807
Ni 3.2839097974513614 8.453228519290791 8.017296600767152 -0.06700063439026525 -0.284162178040059 -0.23154326629276253
Ni 5.381461673453638 7.8861572288785675 3.6324272527615715 0.6394171582618858 -0.13987315418027524 0.33833480742772054
Ni 2.9754766812338658 8.434137285374906 3.6459606350564546 0.9522741331334761 -0.14841204488922183 0.5985682425663239
Ni 3.557034102604104 4.6030723612877695 9.479366024975622 0.8278677071302324 0.173951583921223 0.34865315863459306
Ni 7.0945871692703 6.109965391963707 11.603418999377565 0.3890655010133687 -0.0009142842841532641 -0.1398299596471656
Ni 0.5663995618114779 -0.12124202659448906 0.22267485833950507 0.07802706740775595 -0.05256003348490303 0.16288092792935818
Ni 4.596654225669324 0.1953334193016615 1.5063971662432691 -0.6850460118445945 0.10902351578927032 0.48159024781666737
Ni 5.709285173976013 5.284990205584292 0.29929361857552295 1.3758741775886045 1.5704683774608437 1.5578553166825235
Ni 8.33634230366334 8.887268538233116 11.37003908969368 -1.674160967955504 0.14232650081677423 -0.6395009762249438
Ni 9.121639270266009 4.977925929025534 5.589796349964303 -1.5170344260114197 0.05452641318265448 0.23662376613946343
Ni 7.918447340563459 8.700508043866996 2.4362436008084853 0.375621716803637 0.310191255113969 0.6702218023475683
P 8.297724707993032 1.5074188101475048 3.4874363113461735 1.2980903365399064 0.5728626102701038 0.2598022611384558
P 1.8094972468896753 3.0287435808016414 1.6498089562113036 -0.5046802968669115 1.4262762841902403 0.010785263540962072
P 4.969395610357514 1.274942697244916 8.146869512436995 -0.7360551559026098 -0.5461053967809176 0.8322884619057473
P 8.547388370517899 1.618485190934501 12.52488015788761 0.34788131346557505 1.3152336810884122 -0.389584092521
P 6.220868599811252 7.813028556514163 1.4785090978582613 0.1924229032525331 -0.6630774779933032 0.6050183690670419
P 1.7375289154280396 3.6751622456040507 5.679924923070615 1.1340259298254083 -1.4542609423286246 0.5105375269786369
P 7.046315174682416 3.9591103557404432 6.23548617563716 0.5913732674797815 1.530997315949415 -2.1959308733148504
P 2.3385764378994893 8.64413179328633 10.035021555240517 0.7134304765245585 -0.2842071723453815 0.9626192238132261
