# total energy = -381163.99053970684 ev
CRYSTAL
PRIMVEC
9.38553654116973 0.00000000000000 0.00000000000000

0.00000000000000 9.38553654116973 0.00000000000000

0.00000000000000 0.00000000000000 13.73668143257253

PRIMCOORD
 96 1
Ni 4.523490814906149 1.60192340566553 1.8711691129267718 -0.9453105573314494 1.5422456351697245 -1.7645941223370962
Ni 7.913678072077866 6.904150972475127 6.311936745824511 -1.4645857212934001 0.22191037118868878 -2.057924340029669
Ni 3.3878971862144738 7.995576265409466 12.763836246390806 0.03252676898311172 -0.8999570688973146 0.6787031003457021
Ni 2.5116540934306704 0.03392965376037882 7.976850242565642 -0.3794513749623723 0.13763835131248553 0.4107188176170862
Ni 9.243833876768173 6.6780252365207105 2.168266400374986 -0.15817863735768242 -0.49603907625214566 0.1259470310174863
Ni 6.8800489142038055 1.8506213574075336 13.170661720623158 -0.381874125471252 -0.39775480125725043 0.18729483799734842
Ni 7.508551379990026 3.0976119213103885 10.306193101065265 0.6358857480698598 -0.03207579748862218 -0.6570101887533008
Ni 3.501931457241168 5.010994362697799 7.1525664195621586 0.11805605830518379 -0.6103441521553296 -0.3191345803501859
Ni 8.807049769357448 3.1333051174185793 4.455960001170242 2.3326240871052475 -0.05847922718281542 -0.44757172477937757
Ni 6.622096823265725 7.783425593616265 1.4197961272539985 2.2134719675224077 -0.1797566206387743 0.3961931131970854
Ni 0.4117876074909388 2.296058929664893 10.301123972688185 1.380281562627681 -1.051039461529848 0.8451360072923768
Ni 8.446410521275084 6.406182551251807 8.619204821982176 0.19372362434182766 0.6787828045437019 -0.0743223648626591
Ni 9.234814375989847 2.7916809667107074 8.180963140720385 -0.6937731073049471 0.41340433486904926 0.5311140655784079
Ni 0.2996736172751137 5.453466105354793 4.0457547951686115 -0.6467666566484216 -0.051820327105401076 0.5615754673920585
Ni 0.2628062905244999 8.070369607451584 4.724525257020008 -0.451897348737925 -0.16341623160753793 0.25988093689519115
Ni 8.450286747936321 0.8864714506903787 4.359830518525245 0.1130362364930892 -0.38107708349125335 0.7373587052053817
Ni 4.80570451823962 0.7298090104804628 8.546853596592005 -1.2795814791024416 -1.1138222011840238 0.8468722732571932
Ni 6.083226233060157 0.3620104749956979 2.8867085873459484 1.1788798529153053 -0.391033680483333 0.4927994862689255
Ni 4.798214859945027 4.184588469844181 9.333923766540273 -0.23290337986508278 0.8064802425933917 0.217887880292857
Ni 1.7621814449890532 7.878059960263355 1.1403971463798614 -0.6697903712371045 -1.6870650776116813 -0.570831695883004
Ni 0.9495253634156081 7.947578630674444 10.008545821165843 0.2937305384547845 0.7287599077927772 -0.42649073573936225
Ni 3.9454825366198136 1.5600826830122787 12.780334142819672 0.689438227375019 2.0619671426404746 0.05485165773255715
Ni 3.8706422668941465 8.646669718056696 2.6468799677949097 1.1714899882091372 -0.04168143889918628 -0.06145450776105545
Ni 4.588251018205259 0.6205078656166294 5.400384325383956 -1.7255205533744025 -0.7671914722960982 -1.459950536514234
P 4.769664057273158 4.056682375560083 5.27825127473019 0.4398154778727264 0.5978195373257575 0.3255553962748651
Ni 2.073330757999503 7.294598685148502 3.342642943859789 -0.3419901447921207 -0.18958183425931224 1.7180239878870414
P 3.897888479963323 7.469047655977568 4.584659173306336 -1.0456380880086185 1.0016218303286686 1.0838261690425655
Ni 4.6001237221434295 7.006622262275081 0.9175619795959777 -1.2712133096434042 -0.6493485584429849 -0.08797646531098396
P 7.044399047532894 8.843765988967032 12.7533272609366 -0.026923049643089118 -0.32146579958652377 -0.26145985134653676
P 2.372823234416114 6.094085299033646 13.66566337369244 1.1733517240082245 -0.6717593220380174 0.7602394664582971
P 1.4708731565835766 8.894569899178348 12.09635658520156 0.5511378169985024 -0.16203503498929514 -0.6047352906089843
Ni 3.3408287196137434 8.407385459634838 10.548686274488277 -0.7520283914024146 -0.5382455344168666 -1.3289515448951372
Ni 3.539895953233182 2.408788611088895 6.695684123840605 0.6684657388884101 0.20749059621893298 -1.4104503729015772
Ni 7.851714758718341 0.8922285389083026 9.474765946071788 0.5165639356783749 1.163701345402654 -0.45253755342508517
Ni 8.977387875107528 4.908279048943385 6.579005008569029 -1.0762871803530432 0.9783083524137088 -0.3813989856070464
Ni 8.806364625177617 0.5596454757131888 0.34524978353895136 0.29991995509494795 2.705664159224637 0.8631440138340231
Ni 2.1169171904808177 2.866080116211004 3.0229762562849998 -1.127041013867143 -1.7053291660281922 -3.0943949026064064
Ni 6.779332719768623 8.423340872041864 9.88553428427602 -1.5256951870102111 -1.047420633830338 -0.42797991869037905
Ni 6.913123545569901 5.5129328659494545 2.163623375364541 1.1850723548792623 -1.188940579585417 -1.078894021848271
Ni 7.597760906418728 2.949770947054217 6.472298964605515 0.16238521923986227 -0.26423510009882883 0.24650528691923357
Ni 8.782393964420237 8.89542398301896 2.5507645634549783 -0.48871657444880345 0.20716997965472062 -0.32961722504906454
Ni 6.171178097569717 3.7780727183232585 12.026203452508874 -1.6051687570565065 1.0184638415866718 0.5187719990732873
Ni 5.450894468296249 0.08062926876840541 0.48990061386738887 -0.5955212282098841 -0.28917068699824394 -1.2836240246029313
Ni 5.828530923360453 8.218191810634336 7.327420845577098 1.1173245579103273 -0.3231416446270499 0.2251964981391283
Ni 0.48546782487924833 1.1558570024485997 6.605722815921431 -0.1436624460193784 -0.6947092459659713 -1.4739183115482357
Ni 5.581466055005992 6.238772732955252 6.050431290688019 -1.6923659209993047 0.2698563029403481 -2.212981401039234
Ni 2.4237209999945306 5.534294347501452 10.65951350762116 -1.1799879983778194 -0.9724575500598865 0.4931363007830539
Ni 0.2199885334997359 4.133700089802475 2.1455327533559854 -0.21204247725567352 -0.27331983600891635 -0.6513902714633621
Ni 9.01303414353217 0.525806861658897 11.72070047838317 -1.738317962249387 -1.0003519624773094 -0.6417046687444818
Ni 4.295891549688261 4.762746916717877 13.495712890608484 0.02257171465292887 -0.05538439030757558 -0.36193727733800896
Ni 7.326415654595456 4.747955310862891 4.502073958687563 -1.787034967839116 1.5324265921967737 0.6099541158057624
Ni 8.856577246576203 7.854455335437665 0.13007321471044067 -1.146432016799245 -1.1687026552719872 -0.2924393304471867
Ni 9.240379999258888 4.554866664127732 9.908529787769227 1.0875324142495593 1.5001924147534165 0.6361024920663562
Ni 6.825509560381902 5.589612700870285 10.079716346037895 -0.2595024705098498 -0.2615015032177497 0.5655262245096906
Ni 4.327736675745345 2.4867730356124182 3.8329734153084973 -0.5255674247285658 -1.7375011227750465 2.284828307778207
Ni 6.57200621384437 2.3027508173391342 4.4402861548645145 -0.5670496031327524 -0.09803179266445698 -0.1873496024946838
P 1.0516493883572922 5.3442935423438875 8.13810502588777 0.928918232016355 0.2888971216218831 0.4245696074572495
Ni 2.7417123692665823 4.162485530892094 4.499354030149001 0.9437424415133812 1.663590391528509 2.018709360393104
P 1.219866362810909 1.6427692614275196 1.2188874513320542 -0.7749698306899363 0.34203231088396574 0.23355823984026228
Ni 4.587087211653217 6.053408382932436 11.050775884880963 0.9285397656310138 0.38778046365335794 0.2199622463233825
P 8.283890567604448 4.344076895157483 12.011560138133907 0.2903171418978613 0.5968543451990108 0.04715737441209298
P 1.4125889736143773 2.140671983893868 4.847496436101979 0.08249230226796116 -1.2069886953363795 0.45694236736100013
P 0.5234586003740511 0.6217514492307066 8.637928029164986 -0.4047695420121868 -0.11579143064072317 1.4479825655190806
Ni 0.691810726556292 7.37644056525984 7.006120136061095 1.692068444363544 0.30902860226443557 0.9079735114438879
Ni 5.56902083332851 2.035769840086019 10.22230235829013 -0.9464639542096022 0.37219623606185576 0.5222414456791263
Ni 6.685205172103873 5.019347490369714 7.405197849739329 0.762566829039893 -0.549339330337183 1.7102528285820546
Ni 8.54428289808713 5.568551556493009 0.19853788934899436 0.006099170919202399 -1.4716426281401815 -0.356596838961702
Ni 6.103564691110762 1.0993654569910136 6.821210046015043 2.3215176927794405 1.796626211071977 0.25623768371564903
Ni 2.6720341447314233 5.447656458131294 2.1620850858977696 -0.44868141290378855 -0.6120850461058361 -1.1414561608512084
Ni 4.773990789696476 4.396664057343703 2.7833128221800574 0.11657484577396696 0.8207053850538382 -0.7156925330858577
Ni 6.465311432524908 8.79524276417625 5.129634116588099 1.4868221640940975 -1.3149305480256968 -0.9335863269159856
Ni 5.497934778286849 6.643617858941791 3.520725055949304 0.5071403283716297 0.814764594089371 0.049307330875560246
Ni 2.96909576714014 2.613909515886294 8.83059808096288 -0.49811087117950986 0.32303160141174686 0.7837354926977083
Ni 2.2699202099274984 9.332076692915743 5.223592724592069 0.11776449520669395 0.2302795690889905 0.41953615879840006
Ni 1.8763283424562678 5.948487468051168 5.561240223395907 0.6472482242705304 1.4497422285226644 0.7587027180987966
Ni 2.538721981302356 3.2781802620743865 0.6811731592491599 0.05026172436902957 0.1365453753586229 -0.22248886939997814
Ni 2.806444415955563 6.770041038425708 8.814306666341633 -0.3512093493975435 -0.2978728427579322 -0.6875453812276804
Ni 8.365826303082887 7.27664415342224 10.961500659695291 -0.8981639815526339 -0.3654658593165577 0.8646722775530914
Ni 1.3067201195253968 1.7805301692571343 12.678325559979521 1.567104088974301 -0.3914072617726679 -0.024692360540357478
Ni 5.148379849059014 0.09337858183529113 11.467808130285459 1.5626614798219152 -0.5394974045460967 0.678194793250716
Ni 3.5880437565555647 7.629484020498582 6.7951933382548795 0.006883871604026854 -0.036868590891575216 -1.3261960936371868
Ni 1.7777145082441295 0.3084603567430307 2.86466102306045 -0.8323087736207213 0.5779094286653919 0.26474006475970535
Ni 6.470041743026756 6.270871268503507 12.80179041829244 -0.029827881994709923 0.5445187690200881 -0.12738530612590962
Ni 8.24407712088056 8.697276531997103 7.615355033535324 -0.04098029906710362 1.507983628663061 0.695064572422861
Ni 1.3148198377061406 4.405467690777698 12.545560573340648 0.24248485290593078 -0.8481881638551392 -0.2360195568965613
Ni 0.6782861681571589 6.628169265517106 12.380211818905611 1.4035050519319958 0.7304948882060128 -0.7724308663181665
Ni 2.8675724165478966 0.2971986512446825 0.5742756503367616 0.2815975026366763 1.425711412825706 0.27263078036169175
Ni 7.9275592808719795 2.1062552207782392 2.112578256859777 -0.5055040783197875 0.3530235197881469 0.181633525946513
P 4.789645864928783 7.804899701608781 9.054671200038813 -0.6295916875310318 -0.2208978707637744 0.9747561162860762
Ni 1.2600364599297775 3.5641575656285736 6.555268047675728 2.4171537315182112 -0.8180898018078621 -0.5952916286975812
P 7.80452428014038 7.180573799658517 3.9797772877582123 -0.5938518109272611 -0.38510574503467226 -0.4870186179210903
Ni 2.797209047832907 1.2843262289352986 10.752552333027547 -0.11377028644563633 0.43887702521885713 -0.1410615180614216
P 6.224281464274988 3.586344974411052 1.2830113152422253 0.06572793832542873 -0.6525552383057407 -0.3656147261895962
P 3.690271022401059 3.721431004278312 11.288461786401106 0.17625117858867712 -0.05125674129244721 0.09462996607175961
P 6.004547278820092 3.063579965199871 7.994584214179217 -0.17554926742564606 -1.5360577611914579 0.6701606100923297
Ni 9.003498438234793 3.010880176573131 -0.09905964720586381 -0.8011572877185815 0.46473255282938025 0.9056070680942403
