# total energy = -340866.8791226642 ev
CRYSTAL
PRIMVEC
9.28593166951426 0.00000000000000 0.00000000000000
0.00000000000000 9.28593166951426 0.00000000000000
0.00000000000000 0.00000000000000 13.59089963469242
PRIMCOORD
 96 1
Ni 2.177569579150367 8.347569820462358 1.1099102844219952 -0.8110547493379515 0.5354600012519294 -0.22900018815593465
Ni 3.9423144882327263 0.07685872892201207 7.48620771521366 0.5256209036743206 1.9321326036431243 0.00819899087102459
Ni 5.265114045119781 7.1310477530354195 -0.371966570144503 -2.524936432921845 -1.9088438083185124 -0.2438763339368187
Ni 5.829642983017401 0.6956035796385809 1.9081215532730167 1.154628179456792 0.0246404242564995 -1.6299241096243156
Ni 4.036483122624603 6.682964399919787 3.7278066778547885 0.11399962884762303 2.297080385672683 0.033035590298730204
Ni 1.578924127816622 5.868699612171549 0.201717367915521 -0.9498616670372416 0.007511220775380611 1.4940019696719884
Ni 3.769614728601514 1.8554034612535353 1.9781012639169988 -0.08359299153130764 -0.7786051134496785 -0.016958739341525635
Ni 5.243765687909749 0.9608617930874116 9.433633832019908 -1.6060372757043888 -0.7122837645146249 0.648499065958496
Ni 2.5949350698689635 5.5596266581138405 6.472815405929143 0.15510951151405544 -0.34934581382624347 -0.6433041520211179
Ni 0.9384548396520899 4.057961482879845 5.136802896682736 -0.007607637143928833 -0.35904298650934935 -1.2143654474164247
Ni 6.122149834742488 4.213621557656596 7.548643534862675 0.3093211938041899 1.1452711637219244 -1.2363758902492448
Ni 9.067953837704545 2.520694045121596 11.718740072982579 0.9873079848091577 1.51073316638374 -0.1554321849607968
Ni 1.0623755995337183 0.5056552016873893 4.087884469514732 -0.7209332126595067 0.7089230755725081 -0.7154778459718903
Ni 7.117174570925029 6.081393880068792 10.718925653177186 0.4228960764095685 -0.6673817617956119 -0.5315310985111684
Ni 8.457598826369995 0.6675452081092944 5.7932300586469365 0.8941132085220279 2.0770399778131967 -0.12901615686111328
Ni 3.2091901725598473 -0.20168579574739828 3.3586240300641643 0.22806404949491044 -0.0055358422165646595 -1.2453181870441972
Ni 3.4973140644749594 4.725424974789292 12.566064635128011 1.741515386140762 0.5436407372905089 0.13072902578716195
Ni 8.2979179431235 3.1397685464170935 7.462790452398412 0.7522086257340207 -0.7514529785149187 -0.11668720298211516
Ni 3.930140631641882 4.309415230113612 8.1962499902093 -0.7253570527588153 1.205274026638118 -0.9629886913375029
Ni 0.8744589834605411 3.224604819349169 0.43261856229458506 -0.6269555354597655 -0.3434785564121891 -1.3521333823282389
Ni 4.400454505488621 3.2584427548312718 10.113559044406024 0.8074269227773773 -0.4392056122028694 1.4881876769830564
Ni 5.298933408738281 2.072359971847343 7.460343609368902 -0.1488409048965243 -0.6520230199513545 -0.4156116269330133
Ni 7.106495749354114 7.42382389678273 1.706419042848377 -1.001736501529662 0.589270876424798 -1.0061847671090025
Ni 1.063025614759774 6.191404314112828 8.044603295156854 1.3454644549484955 0.8633921252890872 2.7979713907004906
P 0.527967438618343 6.1186211806581845 10.202484841703171 1.0487807474026583 2.056661414156845 0.18528886331091313
P 1.0137080309657442 1.9504914028936908 5.846451448170021 0.1560991291208344 -0.023161268607811727 0.04359871052655717
P 3.204844356477075 2.257753600250244 8.350574747993095 0.1592127350491516 -0.6403142161548585 0.562194074812664
P 6.2553008108341075 4.43367028354007 9.661498526700111 0.20472820298244743 -1.0502493615283848 -0.21747881777989644
P 6.720098841191173 2.590682113104199 5.94402059078735 0.005519644266648559 0.1152170461944919 -0.5417208945599766
P 8.105049139620958 3.790600934471314 13.227207193260657 -0.32283722601275366 -0.2134262449770776 1.2732956460937297
P -0.48832858154028325 6.731464821715348 0.5125917927425842 1.711923274305942 0.6864156384986113 -1.0320099557022226
P 5.117124150010489 5.980947955779577 11.336468904318732 -1.090293007713832 -0.29410514818538386 0.9436498817995749
Ni 2.6472705814982525 1.3414085642158506 13.076226299518328 0.7844034652990104 4.080547690765198 1.0396319910238547
Ni 7.917241168949849 2.596606537593107 1.8859681057758566 -1.0995613203896355 0.751993424399421 -1.382486797809116
Ni 6.450611814400259 6.573752556010621 3.7525425429857497 -0.13832277897401984 -0.2547539000812709 -0.27865178974479105
Ni 2.9306772200585596 3.83613914402242 1.3777499869114476 -0.3920158418909442 1.1752288864262792 -0.04700053711925454
Ni 6.476705282760497 8.939027960582287 6.283806764276193 -2.211469335270081 0.8274864125314135 0.5318411735524194
Ni 1.334778408910082 8.43235037780363 10.04576802788749 1.8227072244297446 -1.1806017207024184 0.6004682878025143
Ni 3.541496527983149 8.79948826341172 11.134209237986045 0.9420797090989774 1.0647015323979727 -0.538030333082267
Ni 7.455544639814251 4.836698295558236 5.035156301411678 -1.0309802288861276 -1.6831919678095206 1.422316528211544
Ni 2.5751281773378647 6.899410184264552 11.946795129264698 -1.0924866729310412 0.07601955005942392 0.5903818501007897
Ni 8.143390752026447 2.80545642972482 4.264076668096223 0.08128414089247292 -0.6145630753326835 0.2766666409939622
Ni 5.321331076241803 4.397984447629608 0.6837092295949407 0.7964897070395831 1.8516786719614304 1.977100426603066
Ni 6.606123314268197 6.634658982692045 6.106404608781057 -1.2748457641896689 -0.606942068452316 1.2547124837749037
Ni 7.025011697802125 8.406990498055656 12.836006672577165 2.3453695596963735 0.29874547517087263 0.8596501417481517
Ni 2.0563510254227704 4.031728725542595 9.945194886332605 -0.20764691929113918 0.7226422249308134 -0.5586282118382766
Ni 9.057813600178076 5.865031669110236 3.957302910752392 0.9899832176484757 0.9474944523566456 -0.8309368329738592
Ni 7.565155778790852 0.667900859297265 8.158522177895845 -1.1134331932757213 0.43978411041415866 0.9494379492362618
Ni 1.7107657875243298 3.6101938514454406 7.3101241620342385 -0.12206337969236399 -1.5848009920334318 1.110877773843719
Ni 2.2738925497200286 1.6452813964651134 10.319027000175888 -0.4060154986041459 -0.060418867407689494 0.04810148349291716
Ni 9.523744514214837 5.240682758551885 12.169427201375154 -0.7480038436240537 -1.8141626772938435 -0.7819290356165889
Ni 6.953658597844805 1.7116758088408077 10.670038936618713 0.03134097620512667 0.5306628369736023 -0.6441937537149228
Ni 8.785095069120485 7.449248778053311 11.619539392147852 0.9550563238643036 0.1855176914922676 0.7859325003490272
Ni 7.117351003629245 1.532438753221835 13.010854268233901 -0.6986011248212097 0.6681443509932494 0.5113438249300162
Ni 6.632012492128817 8.40321112381273 10.218535574820848 0.3274652117030683 0.17223640100232915 0.49377444858768504
Ni 1.3336548111621855 8.816509376402578 6.1167751374161865 2.688984127465795 0.23833534951393145 0.04632896497352667
P 1.869870942999176 8.925721220311745 12.547947782184659 -0.6530110948962367 -3.8098442093332068 -1.9592001492838775
P 6.670771971465341 7.646611972547439 8.174695485313292 -0.550305036684562 0.08572777848612331 -0.9414459321697205
P 9.024644251785631 2.1317063619862333 9.436392682357926 -0.33418376137382444 -0.7972682370768205 -0.15651153406790466
P 6.510571076038002 4.365790122076247 2.9024452016045985 0.34000731003413703 -0.25306031442893195 0.28417297667333635
P 9.546309328490773 5.77322166139576 6.222811192649481 -1.2250715209800191 -0.39558787551291874 -1.3757955018318693
P 4.179597903538478 0.22483748091314398 5.128906140279339 -1.1127418236356514 1.7437391332649583 3.1075705207564157
P 4.514105024798568 5.786918410801935 5.625137978375279 2.0197331736719284 -1.4153388113421301 0.21855970954890103
P 7.913944663160567 0.3659362860330658 1.0482739835010288 -0.7838920728802306 -0.643684161068356 1.3211803855901505
Ni 6.259275189644849 3.6400945518440055 12.194693293211941 -1.2556015712480764 0.46772505979880097 -1.1173885783790434
Ni 4.170209826487873 4.479412783590792 3.5300051873796634 0.7020780276262166 -1.8213052018758955 -0.373546322331847
Ni 3.521048906157795 7.674042615086991 6.014815606243442 -1.010824579873859 0.5057439622447355 -1.8818122581220171
Ni 3.501771311739342 6.102983671505643 9.973015538007791 -0.3981435520552369 -0.0012603547696623456 -0.5158638242875567
Ni 8.625330612487781 7.771071316473513 9.057818243143975 -0.20249674254876737 -0.4902898324731943 0.9898508058356696
Ni 1.7804659916211079 7.21301467304105 4.104016918832255 -0.37039286430452983 0.22725106667531184 0.16256442513020392
Ni 3.2859755426206334 6.218890672243185 1.5253201579033444 1.8262918564572095 0.25341846909929905 0.03504053654390094
Ni 0.5643998634455877 0.43881227880571627 8.105041710875517 0.9095866215672787 1.1228298039992728 0.62255406395796
Ni 5.399862201481138 2.055701010196714 3.9491619343426336 -0.07885496262569 1.974772806911154 0.6123501268417647
Ni -0.02183122566367243 7.902652970090799 2.3172894233978703 0.9606492445710487 0.30473768819856556 0.608491415217307
Ni 8.894891926733102 0.3736881819003707 10.90517451589894 -0.22662808837933227 0.0702484519036016 -0.7697870009374161
Ni 4.335527270337451 9.02616714460096 0.20042940917475055 -0.561232225120027 1.941155633077341 -0.09244272861245369
Ni 8.814067176338968 7.8114279760797745 6.746740179527658 -1.8109950781991393 -1.3494123838526504 -0.5207538053900064
Ni 0.826212996196323 3.1033584078261702 2.8160888216367317 0.3801887673490291 0.4237422264599477 0.03892418786902329
Ni 0.16310274911508907 0.6721835310437921 13.245065897299948 0.6133981084903048 -0.25402010723903995 0.2971236232967334
Ni 8.030436677601559 5.557147314323028 7.970369699154927 -0.4538295327636313 0.7002126922827038 -0.30289677833508477
Ni 8.966737181075864 4.3308285888462486 9.81699238329763 -1.85218543639452 -2.132562436360534 -0.6352095479384415
Ni 4.03027083424987 3.3966267059589237 5.7392741519184085 1.393053774691685 1.4402312037084357 1.4374911790694533
Ni 7.075062870208418 5.923115172524216 13.19269974209572 1.2532369276706417 -1.8310509684087497 -0.444253459039422
Ni 8.098929710564233 0.7116886707039205 3.1757988903973637 -0.4531129663125809 -1.1198645507233616 0.510305870583805
Ni 2.7368519655805357 2.6010173551984854 4.191691901115835 -0.7905959672629674 -1.4993210678920565 -0.9800618447697057
Ni 4.504159791839915 6.9077210932262645 7.868315451477813 1.1064824729895009 -0.5963462952143407 0.7783492886851304
Ni 5.690409721596258 9.115999248841865 3.9375693770825198 2.1567652588589823 -2.8592184104364304 -1.07108198200302
Ni 8.655574892362976 4.927811858387651 1.6542711070414644 -0.5352815666925362 -0.35217248464176126 0.2865661594958613
P 4.491373063750219 2.689846578804904 0.004144311362695451 -0.2141106726386119 -1.4497442854051936 -0.747256423935068
P 2.0547352732894315 5.25635741143163 3.04994758529435 -0.7503756862903399 -0.6487263514779538 0.16162571536601844
P 1.6266538172727156 1.1269313974128552 2.0911370545417336 0.6062157318092528 0.18951344291522199 -0.646275575944616
P 7.709254868475611 8.290647058523476 4.530933919001152 0.4424536868265218 -1.0223320662928266 -0.0909751429279917
P 4.937589944573889 7.688101515833398 1.8501021227884604 -0.4030993533986154 0.21595363938462164 0.7838951582040241
P 5.51122838156809 0.052774736203466406 11.834086203439352 -0.8128372951596711 1.7933123162073954 -0.9493117080710425
P 1.9302480715679544 3.499830551992975 12.018174229831061 -1.0015418690203526 -1.470575363217932 0.19125022310067064
P 2.3714598351509966 8.108874943522887 8.134520829970326 -0.20240829660001913 -0.5893225555983399 -0.285961693142643
