# total energy = -381162.4708846001 ev
CRYSTAL
PRIMVEC
9.25980884477847 0.00000000000000 0.00000000000000
0.00000000000000 9.25980884477847 0.00000000000000
0.00000000000000 0.00000000000000 13.55266624016008
PRIMCOORD
 96 1
Ni 0.8371534013232774 1.8707592057860627 4.299271892983186 -1.1167414317133477 -0.0018308825611516855 0.022051837593716858
Ni 6.779754332031786 8.982033218486821 12.684916003121256 -0.12333273332309082 -1.7948341521685605 2.0666578632479244
Ni 4.076686456974453 1.9663482137617572 10.63235156002112 -0.007252567797355251 0.34790651027655567 2.482746944037989
Ni 4.358082791700151 2.0673079109388373 7.652201495236237 2.0066321175135955 -0.39363692243413495 -2.5888301462520125
Ni 4.6947694457732165 1.9417726807609346 13.359296778483094 -0.626238711898399 0.1250250334238492 0.3089740948774163
Ni 1.4181582630527503 4.892012636598584 5.045264326979222 -0.8752459393038797 0.9056543763924081 0.5143178199566755
Ni 1.0679522878865426 7.460035457667973 5.558232742317005 0.21216023378046045 -0.7202395290265918 -0.324257503399048
Ni 4.012895632994549 2.039602562506862 5.336877008939211 0.3696647278892537 0.4615341004967406 -0.12284910881845293
Ni 3.338133353503234 4.712418641666045 3.648987918498531 0.7529928121982128 -0.1360535233238689 -0.6764446433288286
Ni 9.233372213302696 0.16216425651224858 5.588388236201888 -1.1092644066100121 -0.07736115168898289 0.31393169599300774
Ni 4.7741167488192024 6.971321259959827 13.601185212266323 0.06160311752377777 1.547009117996639 -1.6666548893864457
Ni 7.097671353326905 8.044699795901561 4.547380140450159 0.1746990036102088 1.0608677604741794 -0.21592869968395714
Ni 6.81741397510426 -0.06523535417889825 7.235633247139738 0.027485864125094593 0.681000123909995 -0.9535951659377447
Ni 3.00506728473662 7.323064363414706 3.7949225078327307 -1.4066510537601453 0.41175985728709086 -2.0986639838408756
Ni 1.2194890616463254 2.7884062745055544 10.325166657319803 -1.8375129219840094 3.012543576356554 -1.281554286558096
Ni 0.9928552371568243 0.3958383137600486 9.04030612230275 0.6359466832147822 -0.8140904508404819 0.8515066867054111
Ni 6.302161164894095 1.9973037551414672 5.927515775918892 0.0678454988890638 -1.902802744330755 -0.8750546492286801
Ni 4.110327342954856 8.745333981649207 11.84619584212061 0.3702313990260011 0.21960100632922178 -0.3682580773497141
Ni 6.250815524167055 3.4154897976211207 4.244871441277635 -0.6914727413065446 0.377181347981273 -1.4726422730492896
Ni 0.016519499198744424 3.6162146766184207 0.5559357809106605 -0.2573494287225891 1.3697554662853764 0.5972019583464165
Ni 5.4964281473607155 0.6355330987987811 9.32945199115369 -0.09963384704425421 -0.30112503114664274 -0.39234879975033077
Ni 4.177553556061855 5.348660115850871 7.691436231814151 1.956127681006141 0.21462669304308196 -2.718636403114589
Ni 1.7567153985373316 1.0639520504124071 11.321978610848614 -0.133766269951589 -2.958144432780383 0.46458188618412893
Ni 3.3923680546282595 3.767251420693937 0.9095845530511355 -1.9453557872016176 -1.105475371881225 1.386858187403934
P 4.173534798969783 5.517855345312451 5.479966058977572 2.1250368174074494 -4.073854595015739 -0.6601284226673083
Ni 5.416525255776654 4.567234096858246 1.9843140951212885 -1.4742296721410675 2.332249734484964 0.8222709297687453
P 4.775477940737485 4.842602295945837 13.55930680022807 1.0620723223052417 0.9676223334547722 -3.0503053684863595
Ni 6.945467873321433 4.351554626377777 13.528122541566853 -0.7349051014585666 2.0480189079904987 -0.3056056926258156
P 4.016006928807766 8.802494782408091 1.1835369273475334 1.2592589654950055 -1.3740942028700465 -1.7608176860137996
P 5.853347484028656 4.429762972920712 8.92417330215086 0.6059789332080983 1.4430506754351018 0.5965874646908693
P 8.40419335946258 2.222576387712686 10.388837103783125 -1.376708757674758 -0.9639621109943656 -0.08640320728659312
Ni 8.489503979483898 3.8677296078046854 4.538097181959833 -0.020125567105281468 1.3012846751074878 -0.6349758346610805
Ni 8.372182199860529 7.791601437381786 2.469932738691464 -0.6291736261570068 -1.740405183795719 0.9384164013147773
Ni 8.941512294443264 5.428590786861836 7.062809098543635 0.4774821391855648 -0.6497090271061972 -1.118498009393138
Ni 7.271700203069732 2.228058194621686 0.10532477112455077 2.0662464867421186 -1.3571105238278565 -1.4085063618013292
Ni 1.8754446691238233 3.3694778068595954 12.67732666369116 -0.22333450522972506 -0.6900288097711665 0.3822186532948643
Ni 5.405015313229547 3.8860640295611395 11.248225158400139 -0.46961893438740415 -1.181141138145656 0.0624199569981183
Ni 3.393618128838927 6.48751476100467 1.7100079961223167 -0.4843737240990755 -0.8596730245662872 0.5755512128458604
Ni 8.604223752787286 1.759826694350548 8.140531410872216 0.017264186397086396 -0.1527135004780531 1.3345470367050436
Ni 8.765224051312268 3.9262701200997876 11.83268392887464 -0.13035287339466584 -2.226498718799378 0.6406515448896193
Ni 6.207257382782026 4.43467993148267 6.442991747525184 0.11003370222133954 0.5519824243869849 -0.4111829017376984
Ni 1.5861774967754056 8.177142843569522 1.1253399539651405 0.46222058504080393 0.4569935323139097 -0.827017443314795
Ni 7.11741326604648 1.028477722256359 3.56288743677225 -0.25075660599641975 -0.7404836239876086 1.097610881531484
Ni 2.789517451581703 2.018082766465448 8.910187286685735 -2.899588843833677 -0.7944629064175415 -0.21039182902612796
Ni 4.841342961926201 0.21348211781238402 4.163243447282852 0.8032964455487713 -0.7593418943446922 -0.5254404122323982
Ni 6.5052287755602745 2.6802239263335075 7.962381020157774 0.6839651200755897 -0.18602934102136348 2.2596813761989343
Ni 7.348899230435164 6.401092963907203 8.455996434752633 -1.1096009640138245 0.27515148990101645 -0.1031158920555837
Ni 6.805348444019078 6.804811375098939 0.949262834478613 -0.7509050764312486 -0.08974307029310351 -0.5248781119710251
Ni 7.956629752807807 5.247765237336567 10.319609845958164 -2.246252247277222 0.5696515595319738 -0.3743593051514456
Ni 1.8891677060142602 5.573830890523443 0.12249986479822295 -0.6879094494353185 0.1479433327829194 0.49988004726479074
Ni 8.849442013875374 8.02913405702651 7.6276167024264465 2.001733394660398 -1.2459301095965831 -1.5331403304343467
Ni 2.4723782542398878 8.616409661389051 7.493987473229697 0.5825698102555387 0.31952538803070135 0.5642471006869508
Ni 4.514860617335769 6.150022503551397 9.692107779477245 0.37833860151416776 0.21723456297957425 1.067021181670085
Ni 4.5891150254494075 2.3797338655159876 2.6018137159550725 -0.012229709296972485 -0.15242399426209233 0.7240776718257593
Ni 0.9383983006165688 8.84866418992207 3.260663013735041 0.7084127115949929 0.3683719772197592 2.056413559812097
Ni 6.153939402744822 1.5120619857962854 11.695192433357377 0.9293059543730771 1.006755552010808 -2.557581472650376
P 4.7920066997451976 9.1001606014904 6.2838156313668785 0.15262582586025328 0.72224730348524 0.6281436422305956
Ni 8.128778861330149 6.198664280059808 12.456146866683754 0.09468318790719822 0.5808654259699222 0.4062440696751842
P 8.461733812389147 7.811500766853816 0.2636249093544922 1.021751254088692 1.494694881973955 -0.8486072536704288
Ni 8.396794772097223 2.5870980275432767 2.5859025862055196 3.2595728541000573 0.11329540369174682 0.38282620497187614
P 3.2814818422375844 -0.0030066599718791 9.708927296486552 0.2753533214991774 -0.007058449508678166 0.01481186820185191
P 2.88248593361948 4.099548925316213 11.02260065308814 1.7726802417793404 0.3612546494486875 0.5397097776672188
P -0.014036018433552018 7.21129846917208 9.977974749972649 -0.6887892809371106 0.22957560104343047 -0.5773705254427863
Ni 7.62106353561986 5.2512006264636595 2.286469995572135 2.2446057128127346 -1.384420524496719 1.0229434746245802
Ni 5.3385206250310135 7.57498672619556 2.7286666169491083 -0.0346741543434177 1.0129030596694426 -0.9375784787945143
Ni 3.4381022511207475 6.139373723238306 11.740972928894704 0.13144045003188976 -0.5622670941424445 0.667997798113056
Ni 6.083537075161832 5.839365172487117 3.9432433499379593 -0.2578379383232334 -0.3720954488179333 1.8128940949940648
Ni 6.413269612699999 8.159326971115272 10.577083464215274 -0.6436833897374076 -1.0975183218176776 0.16580041556899833
Ni 8.558896987889385 6.176709272996903 4.583742484286228 -0.17461698541936377 0.1941537699007108 -0.21856742285838487
Ni 1.6019747308746533 1.574510137475844 6.862609250714816 -0.3115415984942764 0.555707695757372 -0.32799100229955125
Ni 5.280600519936761 7.650417130048122 8.098070556849882 -1.3717156753355408 0.8077434255765316 0.8785726896842676
Ni 0.8730768302142691 4.417984495913536 2.7712487744689214 0.0030408437088528277 1.1263144201137634 0.0564241444259996
Ni 8.902158106329663 8.595639909874038 11.676814490498774 0.03666187419740783 0.1739721527465133 -0.27495814294328774
Ni 2.249374274865806 7.352047565484252 9.976347801536988 -0.09768957883368981 0.1835914210038322 -0.8365842610676237
Ni 0.6567195417173501 5.145083215691456 9.32046719851213 0.15814726989911473 0.7018039480292236 -1.3920551582238414
Ni 2.802333027193285 3.7109980812139076 6.389445050206474 0.1297862022579184 0.3947430110141201 0.9419177295998165
Ni 8.987829858900731 0.39962835357061255 1.3751344126451681 -0.5258749286666556 1.7904277955707488 -1.1130084470334765
Ni 2.610293849007881 0.14898662237002147 5.154173570155249 -0.9831703084917004 -0.053060884380721526 -0.384083474417745
Ni 2.543197273226433 0.7584320613635208 13.314370037332607 0.7147800485739173 0.09335135646965213 2.175527112847518
Ni 8.663005020115554 2.4694521546060297 6.1208309557800735 -0.16373042041384706 0.12715082151760038 -0.123123188415446
Ni 2.0514736376037175 6.248574650396822 7.353974531730474 -0.805580870707574 -0.6712564142596698 0.43964141418870734
Ni 8.000123075530063 9.141274153307902 9.281367655145147 -0.9324439857814265 0.39969778391623423 2.3916555872471066
Ni 5.925546214551418 5.977169649547495 11.542521332999026 0.4025753625743454 1.7453612422494136 1.3770211467088542
Ni 6.165254889303602 6.8553514124457715 6.196672495150811 0.026254048600522526 -0.601853341075499 -0.07745911071942788
Ni 3.0220868136196315 0.7442654796235213 2.4214141176423265 -1.2524694533769978 -0.390099855815154 1.5715014467110482
Ni 3.5764252774833283 7.308869076266906 5.804986279731972 0.20010510238813925 3.1657023919021414 3.089117456257551
Ni 1.4240289819384027 2.3472134164207015 1.954891052125767 0.5292459020214175 -1.041265927082852 -1.0699129013955833
Ni 1.8001439025968111 7.814084253555862 12.334674840680972 0.3381046936947854 0.4878655393024178 0.1644369595625684
P 1.1222795871012474 6.424048030338643 2.0734221628003455 -0.08768875886723608 -0.9359021195333558 1.3456387757428308
Ni 2.7367087610377347 4.379102558057298 8.983534233520519 0.12344406208997451 -0.5299645253549969 -0.5586657499444314
P 0.4095632026122789 1.6988415924879188 13.210637953350536 0.5028244746050953 -0.5086289971020144 0.022014299487562086
Ni 0.9943831056365289 5.7558416955966045 11.516378114339936 0.47906285340912336 -0.21185118718047388 -0.2010767222727892
P 0.7990122481844724 3.3498655314655705 8.099032651001647 0.5932391170439266 0.44784426171447383 -1.3092941756755259
P 2.6380547562936636 2.636026858129692 3.859325405185414 1.1477211679243138 1.0027775411996667 -1.0703931834661113
P 6.581992591904216 2.9304887833091047 2.0462492533840253 -1.4576537700602574 -0.8358864636696508 -0.782029308639879
Ni 6.239194463912333 0.7736098142428157 1.3501292245082346 -1.7272681321931285 -2.007016754546524 1.2255613161322443
