# total energy = -340854.1290993639 ev
CRYSTAL
PRIMVEC
9.36584196158088 0.00000000000000 0.00000000000000
0.00000000000000 9.36584196158088 0.00000000000000
0.00000000000000 0.00000000000000 13.70785642458396
PRIMCOORD
 96 1
Ni 4.948976364142278 1.0071183338081882 7.205767729337007 0.9194172345044553 1.302856647580298 1.7465858586851337
Ni 6.400681842006979 4.770725663144079 10.550128136170645 -0.8639171445546217 -2.0371796512831497 0.45128234086174535
Ni 5.027480850048484 8.994373775494395 5.483142165440657 -2.827277595863776 -0.023250742997824474 -1.867433620802842
Ni 4.04470433905946 7.505026979464932 3.5184095912036457 0.947629178162297 -0.8336290350940417 1.4794862925543166
Ni 6.902419352682398 3.7439858907802352 3.4428103894215276 -0.15331513861779406 -1.9416235738526948 0.8089325607886261
Ni 7.204130580191646 9.2538169589933 13.837395308020314 0.3908899558166172 2.0555167590294405 -1.5483319505731206
Ni 0.742996912333843 7.033794015508257 10.773031424499607 -0.19462993820618094 0.4496054673799547 -0.4687059356548315
Ni 5.063970169672747 1.5854590645058997 3.7811476778452127 -0.6958497873283178 0.4999049869654552 -0.015234043340935054
Ni 6.841588210238971 8.02171237364146 11.684631284201014 2.385953651766323 2.8716764336941254 1.4773954714635589
Ni 6.722557726895858 3.1493017661543043 1.0069609876660712 -1.4414961864637885 -1.4664783103304229 1.7537258121640251
Ni 0.821414295911377 0.1835536406212128 6.696767944935547 1.4930267502429126 -0.8458070652174724 1.0866988626046705
Ni 2.3188981352903175 8.638209543802532 2.712729909503963 -1.0862972562908775 1.2240240535521114 0.08145563347333068
Ni -0.28469255638777763 3.591463157186515 2.3308704908538944 0.16897444242160578 1.1465975958428316 0.83559695745369
Ni 5.305562058714812 0.26688434480318446 12.281704635068255 -1.6806494038933248 -0.33469361113070745 1.1710300178535833
Ni 6.517436425794472 2.2617290369878265 9.62000919749258 -0.9006281268224102 0.14770936239524238 0.018255860886394366
Ni 3.1436728952369064 4.179778509393425 2.486166450202426 -2.502555494123484 0.538148603827686 -0.4705789843078283
Ni 2.670585494605282 1.5954617835404772 7.570657179242926 -0.3762837758676681 -0.8830376674341566 0.805967050402399
Ni 0.6551219017140653 3.3077624434445814 4.635969931431063 1.8378551358147766 0.837752570344112 -1.0663233842721118
Ni 1.1436161120946409 7.6562010318405065 4.49307902953693 0.08456615407785437 -0.12741204559878702 1.290033527673701
Ni 3.655872051194744 7.61752947107855 1.2069301391973066 0.9488005727625788 -2.1742986397570556 -0.9480205000634447
Ni 1.3523057989190361 4.719972166469569 0.8657924640776113 0.6697985987672207 0.23131160989793068 0.10028305059247891
Ni 4.092966521817116 6.000760397459736 7.17240285453478 0.10065508921991698 -0.1399070927420042 -0.32558059308584575
Ni 0.1623924576748418 0.21362361228077675 1.161617260020163 1.0041638800242318 -0.14131554305375663 -0.9160488322528546
Ni 7.703901264090603 1.1891902982577998 7.0625611985744605 -1.3410503850412 0.8024947755830825 -1.3467237812768935
P 6.2243698702598635 4.380151328705925 12.78545486514492 -1.4405453925147451 -0.3301862101786572 -0.5055830111868389
P 8.818633120096633 2.151652298398511 0.911302025932401 -0.5882995136504642 0.4918317230390175 -1.3084315705649143
P 5.082879804252159 3.748668811676573 2.455968166510303 0.8120266263329178 -2.4071343996089962 -1.163911147420615
P 7.866136375623328 7.475917943173297 8.063906427501642 -0.7782652136117564 -0.17453779544199619 2.424391386917231
P 4.073457473362973 1.353373504883401 9.470237211633368 -0.6949522152147127 1.729240425428151 -1.2560090910991402
P 3.0071095560579053 8.814203076928697 6.071347000714415 -1.5544465481112908 -0.23005639733459093 1.3722995728634688
P 2.8016323529683973 3.2158554379330564 4.4510235901352795 -0.1180552869742354 0.08675210598557963 -0.712523905549889
P 0.43235910101199576 2.2427913048830366 6.495892179918781 0.18589898609108632 0.15182261323266757 1.5876891122145043
Ni 4.489431970742863 2.755917679178349 11.207063264855773 0.5570032746403438 -0.7862459178243878 0.17466480793816372
Ni 4.571682793366138 8.953238998340964 10.289267900808511 1.2016896517209692 -1.2036179790919335 -1.3310423659858948
Ni 5.576843666239657 5.705502234945641 2.6596255865394935 0.44802681003892514 1.7161046593771412 -0.8191699222459182
Ni 7.10721284932104 5.9574995742193675 0.540843646496556 -2.6405622845189813 2.904755732746597 1.0770721381481838
Ni 1.8831336142025048 1.7121414405936284 2.625163971663344 -0.8178825708930625 0.4930673952183315 0.7960811587472548
Ni 6.356343946960453 5.662072826553005 8.163590828037805 1.731544390970979 -0.6322044425635305 -0.534663473492563
Ni 1.9124955282225424 6.088096872176435 12.560796418064013 -0.4754756502784972 0.3810832541388404 0.3414435282600313
Ni 1.787021345726069 7.293714856938588 7.599799932565015 1.8238642208523232 0.26154752596433667 0.1280432514248827
Ni 8.04478044197682 3.112924836631553 5.509270054289683 -2.272408079736983 0.2745143705376498 0.8318873698125867
Ni 5.211735055635789 6.72204260559726 11.312778330922239 -1.9879283704565052 -1.9582740379251822 -1.1477378800948623
Ni 8.708069357734098 9.114256550440642 5.1347028800593915 -1.6540510845795062 1.0934595783672716 -2.1793012351779693
Ni 6.842112697379361 8.508989024588988 6.427997319595317 1.4754774285052394 -1.3759001457305338 1.1239513191982256
Ni 3.0854548226536354 7.15324596173204 9.732851669163272 -1.9972617320422896 -1.0013359236571335 -0.36439885150462403
Ni 0.9753868618146037 1.986691726904118 10.614623195923368 -0.36210259927127963 -1.5191717840693966 0.8433442054992767
Ni 1.0456213094178772 3.061487633506179 8.647587561189537 -5.609181905799075 -1.3827205110864766 -2.951375232377349
Ni 8.158575419757828 3.390650143309759 8.166441790279496 -1.5624568200102769 -0.5269468215745958 -1.6845975899077954
Ni 2.223703719309564 4.26415537810364 7.277391131278134 0.7749906566255427 0.7663085554705125 -1.2401297008647223
Ni 8.788774816461585 7.618175714162245 13.637164849503064 1.7302444412126332 -1.8443559130477722 -0.6041454795437853
Ni 4.198116827623484 5.175966905829561 4.486471428152198 -0.14819530089272542 -0.2905541976093319 0.7395197174124425
Ni 7.5923259908144605 6.615740301250394 10.276656794834672 1.549564280318325 -0.4370931938455569 -1.9753551617771852
Ni 9.190869136304729 7.260353728473077 6.530998164710266 -0.03642044761056308 0.23154043807928512 -1.2240343379647565
Ni 2.1841705011026806 5.7323166399980705 5.5456226326237745 -1.1291835141314424 0.11958560757583274 -0.6638783766280438
Ni 6.41937606222516 8.44696842023789 3.754225565612167 -0.18986362716578917 -0.510595891020398 0.868370295229969
Ni 4.44941172876276 2.781523890639524 0.14501132847599463 -0.7779633661006214 0.24033155400835385 0.20408105631675177
P 4.973327552803235 6.854953266477118 9.078836809949102 0.5134462159849995 0.5082081075145118 0.37108423394459966
P 7.146605579901034 1.2669267851370063 4.293122053600025 0.5144936834129075 0.19965824465870777 1.4780022518096223
P 0.2633496761106287 -0.25306223548555395 3.188145658405247 0.033033790526517295 0.5161147639560981 0.8171220385779541
P 4.682714847818306 0.2951673138487059 1.975671877450856 0.7652945123837014 -0.7342227306795613 0.8268757755306081
P 8.670428039569336 -0.19116806999865799 12.112782312495561 -2.8956267738621353 0.5115538840582932 -0.7212016358295451
P 8.263575872095513 3.5061028750880703 10.216835290136498 0.2677353999426034 -0.35197836635308416 1.1705607915266485
P 1.9605048332517974 7.967296832826016 -0.07010988190743092 -1.4469713506457467 0.2716959272522482 0.614800131044154
P 5.117280541156656 7.491680654910369 13.232974454266719 -0.27806943487875985 0.3500438683345326 -0.3248599128697373
Ni 7.822660138021728 5.737608340610932 3.5081146579051365 1.252853576189294 1.1470729928173535 0.0037561246083225633
Ni 3.8279131990844 4.894926091156748 10.619887735595032 -0.03687321887726553 3.455718714730132 2.9753178592358758
Ni 2.3320852405344046 1.0679682079352009 4.759024916992489 0.23385211693159727 -0.2871238317715442 1.3217545129260657
Ni 8.651312356470486 2.443164124195536 12.263555506842408 0.3962990426473304 -1.7674891844967044 0.3800069903555262
Ni 2.972174966171226 0.3821085500417539 0.76550583991418 -0.23545082887728483 1.411597599132143 -0.9727429425107893
Ni 2.9541176231949478 1.1327704672987227 12.23291796517021 3.9089514944500294 3.382166395264279 -0.20585460327740676
Ni 1.94105197984841 9.356017024634975 9.529714989937755 0.4660607847225006 0.10602843771668836 0.06385026168674164
Ni 6.235309173473707 4.796809532536679 5.797669610859002 0.46315595237087975 -0.3481654203648971 -0.0982163978714373
Ni 6.076014936263884 7.751030179991346 1.3298127932697468 -3.349758154136902 1.2711973688038043 1.6066060037236651
Ni 6.403856862374696 2.1130088351619323 12.606498916259731 0.641666873528011 0.9945777789976935 -0.29336698446777865
Ni 3.088592379654182 8.112298795460218 11.811195650682153 0.584056164993078 -0.5214045516001279 0.8858468547481775
Ni 0.6705380773048092 4.177970901927439 11.489527687481074 1.1168381051922118 -0.22131361814495432 -1.096183662166654
Ni 1.2576826992876355 0.12188987484241665 12.114948631702205 -2.640421130955427 -1.894613009431111 -0.3875004705190939
Ni 6.819522286975427 -0.05848125273764503 8.992229934308053 -0.08216037284983914 -1.3377125789172186 -0.3100246476291177
Ni 7.9958626502936765 7.847601374715623 2.221001673952377 3.3616837019298944 -0.2536164440427181 0.6104189712573229
Ni 9.055270478830373 0.954482302933352 8.750629616008375 0.9924180523422135 0.029111572653975668 1.481530833788171
Ni 3.8858128330467196 3.0793763913301895 6.241379175539541 2.032812118343073 0.3013751994842358 -0.4775821550985388
Ni 4.5080231667013235 4.051176135738198 8.771972496285523 2.138624069173581 -0.9856100282814445 -2.834873405933163
Ni 6.930610536478351 0.8085512487933166 2.1923656126712716 -0.15128936643701688 1.002350480964577 -0.39579536353803446
Ni 8.190166404124522 4.370954072065518 0.03851702437237796 5.372896753945953 -3.1124191070979688 -1.8126986911538072
Ni 9.321016873855747 5.352213316684129 7.965772073782168 0.38627791096590247 1.1805942645032506 0.2606712940069704
Ni 1.9737855969138112 2.4465077297155213 0.5770707225506247 -0.7466920667911656 0.9627369803380128 -2.4301969378554147
Ni 4.042756243966583 5.36870656408103 0.1066263624728934 0.9105708398574188 -0.1695393137861403 -0.4527805226738266
Ni 2.6448294296754247 3.351987948389595 9.760802150825155 2.3806065285217968 -3.0321412959828233 2.892553791363767
P 8.809969716438408 5.474587405547227 5.461141803069662 0.15718413465489703 -1.6415724924965212 -0.3093808433975317
P 2.5347526910861093 4.079498441319249 12.615888172656888 1.7713882624407946 -1.7472821134212102 0.8111673636564157
P 2.0080271145078328 6.236086538342501 3.1397429880207 1.7265363962334266 -0.0049899970154236644 0.09135540908554589
P 5.531082163240645 6.810428054594739 5.612188479996857 -0.5008035875203246 0.565748882043458 -0.9274673585024414
P 9.211361598147102 6.039694201791888 1.5550191420955253 -1.3158173215060243 -0.4421988905032384 1.027137715211586
P 6.024793147499741 3.0912616445650944 7.276034020802375 0.41106591654385977 -0.4144350901264089 0.21215791978761525
P 2.001864390608252 5.226636109927936 9.113009956898036 -0.931233253302777 2.6458312462274045 0.06603364249130562
P 8.865612182528693 5.686854843936424 12.212836663782534 -0.5312433920674206 2.96446446146114 -0.8981832648263435
