# total energy = -340861.13229757955 ev
CRYSTAL
PRIMVEC
9.37972310180199 0.00000000000000 0.00000000000000
0.00000000000000 9.37972310180199 0.00000000000000
0.00000000000000 0.00000000000000 13.72817287642742
PRIMCOORD
 96 1
Ni 4.571564515992497 4.498290118594667 7.812304831596362 -0.022838852271386472 -0.6901455378546889 1.0122769960496696
Ni 5.665043263335249 2.8349931887227102 11.994276917922026 1.6115188676442502 -1.6965776450878072 0.7225175264274911
Ni 1.0648236930608308 6.923989707105948 0.22876582026300896 -1.4017505311347342 -0.5911043300891111 -1.0956822970502034
Ni 3.1344502306227495 0.5913652825935029 8.604763875159085 -1.5502173405212913 -2.8226658081233773 1.2911964376335505
Ni 4.080751741717505 4.054207125148656 10.986629203383718 0.6431429438529053 2.4002865234492274 -2.6337848565858315
Ni 3.8568202307759054 3.4315060633914727 0.8999487951371788 -0.19136643696356076 1.6511984456220594 0.5634135490420619
Ni 2.720823198307147 0.6885326488202484 2.685107088423448 -0.4568706335828003 -0.34513434684805716 -2.316380114442559
Ni 6.654294526821795 3.408385045779382 7.209006665186996 -0.6738455151430847 0.32792261095546105 0.2521938526635786
Ni 3.4060963933260964 -0.004753643702153105 12.733621403094492 -0.0059726726436671335 0.6077373106601017 0.5372554025894554
Ni 3.151577605129718 6.175975543808185 5.885981704613556 -1.100615986906395 0.371051066713819 -0.37017509186676895
Ni 8.055840901933918 0.27509883880193103 4.325774498177381 0.240781754171895 1.326841954751302 -0.05861215321625389
Ni 7.9693879934833545 8.084805487080422 2.6316633017499518 -0.16391296873829836 -0.5364845858617019 0.2274783521947695
Ni 5.488788885262718 6.723085416544745 13.25085779550945 1.6414387951321343 0.4559308953773503 -0.6197011678901971
Ni 1.3869233866913313 3.2829218686680957 1.8716993711346224 1.9022319594289498 -0.26381549606290694 0.4315110717720891
Ni 1.4508274406431252 3.766718610012522 4.312499375976006 -0.38360524922974576 0.5680168521420281 -0.6278286820933381
Ni 7.816132696621714 8.59877679786018 0.32842631690812923 -0.921709887193374 -0.997451758111379 -0.35038171128992557
Ni 7.022420522043586 6.174587344779143 3.7430685760136884 0.4597860074573823 -1.195023038334071 0.23597456259123878
Ni 2.867972295385635 2.059205665120932 4.411356030345525 0.8172652490240376 -0.6327741990240715 1.2957416338020717
Ni 1.078508709164701 8.350101577198219 2.9420983716472286 0.006184274433840962 -0.5262824485177194 -1.0369901825256334
Ni 7.38929901408387 7.481858122317585 8.39026086194717 0.35409361292387403 -0.9102625645883806 -0.3733542609256989
Ni 5.3384506823067 6.510465851745206 6.925725893864567 -0.19856269760168382 1.1608219669723299 0.1103149809071842
Ni 1.5322809566445017 2.351412181011176 7.503338626347381 1.608364895396301 -0.07112134142685816 0.07843381592787138
Ni 7.506376718681888 0.43758753515133725 11.763684865557973 -2.5700898895300317 0.12611466694360216 0.9867978779419586
Ni 2.228021922720284 0.2724950276501597 6.452186817777983 0.38911049531869113 1.523907241871853 2.006102727372687
P 3.176649605161003 4.198786178078782 3.046762012630803 1.8287747707800632 -1.2444237002543859 -0.1655420197012891
P 5.900915161871247 4.885700824652343 5.597882569499108 -0.6371949537995865 -0.752855258179084 -1.0778020743356727
P 5.366158384548531 1.4873239434945018 10.085937534171538 -0.28462960459478076 0.5218799485746496 -0.7820066829320597
P -0.22989795284953202 5.4978027992283245 13.165606429596865 -0.09505394098305565 -1.2988225867202405 0.40700845864503454
P 5.965972921772854 4.40515884724763 13.668606278185603 -0.6449964521218763 0.3747722243191481 0.12971446847971854
P 5.841532134487011 8.096698976058974 3.3754415820645005 0.9079992224755008 0.9446657246585989 0.7637531360385104
P 0.42140376079519093 1.985687394920703 5.285099754892578 -0.3582605998173701 -0.4950957385022699 0.8028426458408044
P 1.9729872497495995 3.627551657351027 10.9704304214705 -1.9663203052684266 -0.15475341372621737 -1.4639506588125628
Ni 6.20647840355444 1.7027949441374797 5.7438263721503535 0.8310589603740203 -1.8356414159929093 -0.2896833649686043
Ni 7.664856521348776 3.3099823700112525 4.464333644777511 -1.8248962616612636 0.48562867955209915 2.4787987580235185
Ni -0.11882139513517229 -0.11124633070372232 10.548096192136924 1.0193110200783155 -0.9486373077118372 -1.670850672635348
Ni 6.42086135630979 3.8070045210242576 1.9290826415391846 -0.1330075374086935 -1.0041062873134192 0.4235082560722706
Ni 3.287780565269744 3.914308554079963 6.126375567689429 1.0007134595817864 -2.323005847289193 -1.4947820423711224
Ni 8.824809366791683 4.6072543626513225 11.263004622508978 0.10725691080715076 -2.2585799156046393 0.7290959509759573
Ni 4.462384538302951 1.7419646680920797 7.370848160637727 1.7843756758393978 0.8041145705746925 -2.0386089275305084
Ni 4.941116229136006 8.114942537623078 11.200459690444402 1.6010611626460363 0.836382686579779 -0.5864640031036223
Ni 4.000517589728126 6.364667434803083 9.1563891466293 -0.3300406857397284 0.7447740238328463 0.28616918116775875
Ni 5.064740980506127 5.6825645862153245 1.6679314510898615 -0.9392622942548404 0.20997428187273517 -0.10053064782691075
Ni 6.941229638290947 1.455582960289912 2.4389887802974095 -0.061922705646725626 0.09361052366830976 1.507675867614655
Ni 9.190065166723697 6.369723105591285 9.98602378500085 -1.4853126694281065 1.70687671302097 -0.34532897935736656
Ni 7.703228968833993 1.4974446647940742 0.34952600417725593 -0.3262603927616897 1.4133711460927982 -2.090278330880342
Ni 8.728151319533026 0.3053418802163988 6.595741604938032 0.7978593336936001 0.5568546648776216 1.3237957117258103
Ni 8.23172947080285 7.203102129451981 12.175530688443745 -0.11676253630474083 0.15117520945665577 -0.19731416990656342
Ni 6.402430200282303 5.085179397291826 11.592947640653566 -0.06591074376019616 0.8122279437104464 -0.24744605356594804
Ni 7.490581264864946 0.8734510771841747 8.861206444577467 -0.07627228950017832 0.13465355765254874 0.610519244280613
Ni 7.089785693844815 3.194536737244677 9.936973460659809 -0.6817956232280967 -0.8426944877304198 0.5464913193654265
Ni 1.668052449518744 5.099267741491972 9.201225161350417 0.5642843816827894 -1.6669155992470002 -0.7907288932964059
Ni 8.770388212963956 2.7122688907768318 7.2493816835688385 -0.5789790075804867 -0.5695230043739095 -1.3291847439518658
Ni 3.395928773410678 2.753736646907887 9.013246129316379 -0.29555345059613614 1.5880189847500972 2.28759687166228
Ni 4.906692645105024 8.781259312117065 5.804380926958424 -0.5822936737760165 -0.06930948502909999 -0.7307591976109931
Ni 3.223435664328998 2.5432556589909265 12.224127972155713 0.5053721807276135 -3.1968633908859783 1.601408775793442
Ni 1.7071940343038368 3.8250604881249775 13.371844968724393 -1.120879365141121 1.9271693461005779 -0.7689771034416111
P 5.489145314743148 9.03108823872884 13.171523158971999 1.4885522594113267 0.29702412160439173 0.5506763039810516
P 3.272941843216062 7.788265539086006 7.182553031932887 0.5600914266473644 0.5328642155002952 2.0932227582206466
P 0.20612973433876647 6.477327289788405 3.887214285733397 -1.4432157402580563 1.2594422851504052 0.6908703318358554
P 4.1696621376384 6.121076024098828 11.313469409103934 0.3143533569114586 0.8206477923430254 0.3459869246563396
P 7.2602434029987775 8.13639396451105 10.381971915087135 -0.14324901263104362 -0.6219102597263741 0.05346968978336597
P 8.981900970429528 0.5010132232215017 1.7357487255478476 0.7416192802539485 -0.2157572071030994 1.3713153545733288
P 1.167212751175873 8.749265076386907 12.160978047946722 -1.491132361433677 0.8171613764563217 2.2197050929163127
P 8.208758528761468 2.426984610585461 12.096511210604778 0.6108288051012319 1.1369379612658805 -0.47336143214897186
Ni 1.5302267972704457 7.424200963996482 9.13965478252312 1.0536912973303982 1.8113714877019513 -1.5754624882413255
Ni 5.0976169102141915 8.567983166695681 8.588042642665343 -0.15611764106359563 0.24589336436684744 0.25356785019296973
Ni 5.362303318325988 1.7511192779052238 0.6176191277441077 -0.3585915007942276 -1.6791926168421403 -0.3816638092326588
Ni 7.587107995999236 7.740503988708414 5.675844014564589 -0.3793917253690305 0.9852099646295485 -0.41419392064988014
Ni 0.8231860786927219 8.401418042656939 5.219135913732827 -1.7740082165621447 -1.7860453502323368 -0.2956681217971295
Ni 9.153146576329705 2.292441861446384 3.2002292912360675 0.7104210002742732 -1.3265393359092186 -1.2965289055900575
Ni 4.88018554742885 0.9053186866515487 3.362537896900625 0.8840000313474259 -0.9995981150304203 0.6005153389903658
Ni 1.430839250569549 9.115158697494426 0.6425598116510238 0.9783356061072184 0.16004654380435662 0.5042897462967121
Ni 0.25906889190575966 2.2783628969694076 9.914376769572877 -0.346025748314075 0.9289737678446389 0.12059348001505685
Ni 4.8610415324405025 8.171980634215014 1.4350610639680084 -0.24943531608183492 0.4334393991430535 -0.061131577203997936
Ni 2.568158824005166 7.928070312923007 11.042942247374675 2.0754654342372256 -1.2175397313793483 -1.4626982744627004
Ni 0.3205914341448923 6.912096218127395 7.061112818088873 0.15771326768548968 -0.4169897382274625 0.4112469222064143
Ni 9.409550688883094 4.980633002847867 5.482977208787078 -1.2621200890928843 0.7674951195794458 0.3477113635466141
Ni 2.1048473980622835 0.9617686746007753 10.712655931362093 -0.06472417965126273 0.208082464166661 0.5739435020391084
Ni 1.7784705506666258 5.774673467736918 11.648739172036317 -1.2989051191317178 -0.8362055375719664 -0.7532015857749091
Ni 4.576413832870976 6.483893096006847 3.987059562924951 -0.3405744953915167 -0.5784421612404103 0.24962712037766685
Ni 8.690679325472052 4.401285021578749 8.811263170590717 0.05435723459464187 1.2731164402033879 -1.0637661650678971
Ni 7.606730376869212 5.756289210325276 6.589028537065833 -0.11933878167234933 -1.7547349701548294 1.3887885716574275
Ni 1.9660274951580494 5.9134370923021375 2.845355906880048 0.5265562710043963 0.5530175505197186 -0.578425706180178
Ni 5.100018119345508 3.145124355589305 4.354136905096423 -0.46493052777279925 1.3185887136035743 -0.6435036696264337
Ni 3.3172328960210478 5.992264285816136 13.278547676277261 -0.12619951334792462 -0.5003096786030415 1.9406133874206253
Ni 8.715263579898538 3.7394142358669664 0.7958798286025323 -0.22350342670742152 0.3912123721530424 -0.5126535448803752
Ni 7.631023859877453 6.122867551224147 1.022961988556669 0.017888964465278868 -0.5813583064459408 -0.15587570025611863
Ni 0.6767826696061854 1.6697783185818782 13.527549311305513 -0.8955273152607351 1.1944016026999882 -1.0366785648224857
P 2.741055261183122 7.401623970328205 1.3415696112512743 1.4594270599105963 0.19472712590567753 1.306647482081298
P 2.8077919915320155 1.5913544531641548 0.4352791852793959 -0.28644788875044214 0.261892053787949 1.26459426166499
P 0.8589969237804297 9.502503745489916 8.399830055524392 -0.22793060924083974 0.5645528048528277 0.4669966662732086
P 2.760264934233654 9.018631966360136 4.61649620388994 1.3942706778179215 -0.09981819514091841 -2.7705940271288028
P 6.626399230116579 -0.21319923169139632 7.19751650430472 0.01875131246557416 0.5279549511241359 -2.033209868002124
P 8.275185728245777 4.4518511091839335 2.8609928433754295 0.7386738244723795 0.5902617795831576 -1.4408426120401896
P 1.5644909260075517 4.635318494373584 6.881479863730793 -1.1367235312622295 0.7738591141242608 1.8164843834484847
P 6.4772053533872045 5.029013614954627 8.707437138886153 0.6280749937761892 0.6803573481196734 0.38213534955243866
