# total energy = -340891.0589662548 ev
CRYSTAL
PRIMVEC
9.09869759810618 0.00000000000000 0.00000000000000

0.00000000000000 9.09869759810618 0.00000000000000

0.00000000000000 0.00000000000000 13.31686364527643

PRIMCOORD
 96 1
Ni 6.3262881798192705 2.0084192544596347 11.54673336820499 1.0959417213591771 -0.8776617478342238 0.40087920581884506
Ni 4.869513873776227 0.39946831797963356 5.874415002038218 -0.3659931925749374 -0.6007351683106558 0.2428646048428527
Ni 2.6444000327080457 1.9666016394087078 4.8594434350603075 1.4543794701843598 -2.591092459923628 -1.0663807198726087
Ni 3.3375570278798747 4.460763974179219 5.0048633725171054 0.7074606320943687 -0.21966451257730557 -0.9566082417324557
Ni 5.078656541217613 4.172862978652363 2.9412159323312688 0.19975388969630758 0.5332192848468688 0.009199921331713188
Ni 7.22593102267729 6.205848717149748 2.7662188579627984 0.23119719580725343 -0.5247716683001479 -0.8844144931770251
Ni 5.208567748288356 4.664511113830092 11.693058626092066 0.1075826695776857 -0.8329106688707784 -0.24700459515315523
Ni 5.604506681394565 7.8529859783919855 12.811262198475724 -1.6307674314612173 0.7078941200873614 -1.0026978370016666
Ni 2.0067359953681594 6.638309823192082 0.27341768838193375 -0.792786547156383 -1.4266673489810722 -0.38151134281519455
Ni 2.653316756543971 1.5059618663052954 0.13884339869291368 -0.636076266814111 0.2800023902354145 0.7126334345445599
Ni 0.7847144614409676 9.37356945204864 4.746796097179649 -0.1568591472153105 -0.6398822708237625 -0.15574585954647371
Ni 8.432063500650733 2.605839751466569 1.3401026141290893 0.5984044632949501 -0.5005505909692541 0.05327942814943082
Ni 7.242490652658294 0.5834439873290123 4.930861843637166 -0.11909015599665297 -0.14694548764602433 0.45513359628703554
Ni 0.5376638893897739 7.475235342171503 2.12016491138913 0.19101136761698714 -0.46592374492400407 1.186605503694337
Ni 7.609131778875038 3.8598586759180415 3.8867799029443 -0.0417472591401152 -0.3811953542366725 -0.7105626680584601
Ni 7.590870692406976 4.284476704463878 12.813180203970227 0.3841924891917835 -0.37497302747604455 -0.1789824614769111
Ni 7.965564166169427 8.71640690534101 7.374813014643853 0.5067412931609983 -0.40135280302115395 -0.6910603363594744
Ni 7.022602423124839 0.4701815774776306 0.4649052426281892 -0.4713073778334206 1.334275785321528 -0.531228222558769
Ni 1.7682682249439323 6.570169675429594 9.489903582274518 0.3041211376604891 -0.6032599916150384 -1.131266621912716
Ni 0.2244721534809423 5.0474480077918775 1.4561191998020366 -0.7829855019055613 -0.6299282449348441 -0.9519116075877349
Ni 6.631649576408513 1.7379513639017894 7.060294688596982 -0.27520008375076477 0.9509299604007557 -0.15031697522141854
Ni 3.4660943315840624 4.115641268239987 0.46685236395562585 0.4967237610239961 0.8433105240478637 -0.7398107662903002
Ni 6.15109275383894 5.64304876524046 4.873998621917786 -0.3973333974491157 0.396940018665439 -0.21518513664971325
Ni 5.703982744351874 3.157621180350037 8.922218539520834 -0.24764762805379284 -0.7457944946775608 0.008097432296153796
P 0.27928543858783955 5.7384668089826425 12.323199860097727 -0.47798813228770587 -1.6564856621629278 0.8785685759192096
P 3.9735742009194532 6.044201252181348 12.787025997167813 0.016475371947203884 1.1833116634344136 0.3326619254126593
P 2.21274871076918 8.565131955855216 1.2314741710630508 0.494636025257032 0.890268380854641 0.8866348978671117
P 6.5530732222788775 7.821176930911995 5.945020896902273 -1.1185108649089446 -0.5480519789843271 -0.19890208321897357
P 4.736281642011492 1.036159704525581 12.713157309275633 0.08969447644335521 -0.8153420638593958 0.17537777484478828
P 4.152409106016488 6.114980022303445 8.340125708813897 -0.32393225884914534 -0.21877696776602967 -0.5411369970320488
P 4.505602356897011 1.1885992873287212 3.6681563924039007 0.5858816482375909 -0.195181954054909 1.6536592484577262
P 0.14041747341088812 5.699251421500159 3.561941833862016 0.3061957608013307 -0.7101641470684609 0.24232904405435687
Ni 1.371819764761384 1.1553162508064647 2.486685024925244 -0.7062470714022417 0.36749883058618643 -0.4168822661153207
Ni 1.7894317960075654 6.644415049410353 4.57747206088434 0.6637382515057537 0.11682835654566977 0.4849257399478036
Ni 6.159545444087484 5.5462204233405545 9.426768628167277 -0.7880665159728943 -0.7391312237247721 -0.7478593476263894
Ni 8.671550325227637 2.3571450447244047 10.134226956528193 -0.3717424363538888 0.021448399681763063 0.39199964394102815
Ni 2.372030514311723 5.427245851015505 7.055967347927221 -0.4400674459825324 0.19161737663210227 0.47691726782103033
Ni 0.5182126932505503 9.178948306282901 9.250306663454333 -0.4624913222036873 -1.1137702649001657 -1.2632722004194565
Ni 1.1876985162473372 0.967892174994009 11.218685278541772 1.5241646092982977 1.159538729384532 1.6320594107997635
Ni 3.9484163015252376 6.974615890971099 1.7639781889351178 1.1211323616921918 1.2286785216049871 -0.8354910280034449
Ni 5.820737234415732 7.906741084945701 8.082910071589751 -1.7223354707782015 0.22869628376227064 -0.14972639282527117
Ni 5.487051591600742 2.6040837027927597 5.072659589503065 -0.25139963889705735 1.043537496725848 -0.4415265470265622
Ni 0.929522966406159 7.844624275121359 6.743527164455989 0.7942461624210451 -1.2197375103616155 0.22173039396739877
Ni 4.9576165644938355 4.746899822334474 6.735390199020819 0.09665368137000774 -0.28010806257534343 1.6208249755365247
Ni 8.287412403157338 6.852465873116727 9.50120962415056 0.2005409043739772 0.8006425528656921 -0.5147592783694683
Ni 4.739839232848069 0.36713609537661585 10.564161354193756 -0.2695251448531745 -1.3902435589363993 -0.35079128802351844
Ni 8.26709501098834 7.229734278354246 4.805843006369052 0.9435064142431752 0.6372047239915994 0.20566871251884578
Ni 7.261879977652533 6.046967256310043 7.1855000491698275 0.20855966091339564 1.2887271501574515 -0.48061399994632714
Ni 2.4200443425588385 5.29328572342743 2.401976148483962 -0.5999715506717539 -0.9366953048586127 0.9083931154798097
Ni 2.5115772423439395 5.165603697315667 11.413657634042274 -1.6950828057098357 -1.2160765165702605 1.0336305220247812
Ni 1.0149415412751979 3.567453824984264 3.9671869150696377 0.2736147415415158 0.05953903590589746 -1.485527356542074
Ni 3.386307850648122 2.5892983188811503 2.535118303140559 -0.34940546341958534 0.9910335132898609 -0.25917825440121167
Ni 1.1730951062915629 3.3465829360893 8.226679505267123 0.6299678399235279 -0.012321754790146522 -0.2114210416215907
Ni 3.8982187858081003 2.594093332617408 7.151328979743096 0.03231799540641531 0.13183074349177293 -0.9555039529246834
Ni 4.203143444903339 6.9728052501105395 5.953304351371891 -0.043155452341551485 0.328222401584067 0.07980138569935934
Ni 0.6411770445572852 7.509328162797226 11.355329521978417 0.5954605501752777 0.6270802339630879 0.0763954453416039
P 0.3665701563739684 5.731770167407908 8.055304622489553 -0.3359061433815699 -0.3074106070450383 -0.9245612405992399
P 8.597386839527005 1.620960307695345 8.001797000515772 1.0071617863102913 0.6835054068303519 -0.3362216177394597
P 1.860738290601585 3.0705193463895224 10.404918675051716 0.33351707432410305 -0.24457104601099813 0.245786406475338
P 4.009523155894695 6.080668832930721 3.736485793080457 0.5183644792222233 0.5598309738971261 0.6294140243025871
P 6.954025537868347 3.75001919617592 10.614299728375245 0.6929439265354324 1.8738552080584696 -0.9383467244191066
P 6.258612065644162 7.55723280667084 10.143974391472506 -0.049875030453572174 2.2674260531413597 0.8925831450307465
P 2.8096778780953593 8.69943783395938 5.774658699188924 -1.9522368305921671 0.20253479487555442 0.37263923713654534
P 6.882173121406822 4.114704102367436 1.7011362128967717 0.1856750430057383 -0.14809862741386107 0.13226114616097223
Ni 5.399731388893225 2.81635632227451 0.5102622511201108 0.6216474929832907 0.1214314025353199 0.3507357521952347
Ni 1.6004154480815516 1.1438245954954722 7.120980273258681 -0.15077925956981772 -0.17643629801628968 -0.8642477884211632
Ni 7.0555397091310095 0.7745011731697174 9.284424050564096 -1.4367483873661577 -0.6277510347778673 0.7180350651761053
Ni 2.9532735266449084 1.60252634596924 9.022162275544638 -0.5549870155412635 -0.6068937317128839 2.1067809565210553
Ni 6.3913984612171015 1.6637605821077819 2.76982740150701 -0.4843652394586433 1.874376113558946 -0.416074939722677
Ni 3.9389991493107663 6.711326872970952 10.571911624972776 1.6648929123900167 1.4350805127454318 -0.3785648585923609
Ni 7.900099035557717 7.096101703886673 0.3126321659946384 0.6050934452793514 -1.0341663399235932 0.41299372969419196
Ni 8.012831901197618 4.012407443094683 7.945932815813927 -0.22166971593279244 -1.5240982748367364 1.7399025331276874
Ni 3.016764239835807 8.492533446174766 12.446194237107175 0.8687844999492522 -0.24329860705647777 -0.8817744844510168
Ni 0.2749380807829368 4.598627443119961 10.233370917016103 -0.6803900011298218 1.4852622758061453 0.5138946163763279
Ni 8.82632827336326 2.417660483737397 5.774871608717252 -0.12357801656467747 -0.8086389408076073 0.43943881125959805
Ni 3.82525632821598 2.6506326406954015 11.570663853267096 -0.6761469095827517 0.4146927146631697 -0.7532221546001996
Ni 0.9507320309587505 3.3182950846547197 12.478327198228552 -0.29257791290757995 0.2166835755721107 -0.07186156202699236
Ni 3.1333185585482473 8.231710175276186 8.291771589269372 0.9391401668546795 -0.029899358662593665 -1.2206569368520912
Ni 5.6348781346234595 7.865906129256284 3.880906693519719 -0.5589524279469147 0.5138439656440505 -1.0401647235988731
Ni 3.050356632082983 8.623436411304812 3.4877665198542545 -0.12291235795622056 -0.22328051206333802 0.282862485392029
Ni 3.4876946401416995 4.141335990803916 9.393049764020796 0.4971575061273051 0.5936407233577196 -0.64709550074275
Ni 7.019499767177849 6.349362477419173 11.607458077267193 1.1574376238811293 -1.1500140777235486 0.24113116709151372
Ni 0.26353832231964125 8.786184818706015 0.06565438352577879 1.605371874206248 0.9238058504904543 0.5401167832976504
Ni 4.492609416450378 0.5552443932630118 1.633526519215544 0.06688879140274932 -1.27669130203884 -1.2804014039005756
Ni 5.838070253709035 5.693792202825104 0.6596346628976486 -0.4706363199083249 -0.2847249925220645 -0.10267777607690058
Ni 7.806800988401014 8.874069140676621 11.390619731233539 -0.5985085929729821 0.16978562546899145 -0.03705473876045231
Ni 9.016600241584536 4.7673082014813914 5.752925549643527 0.895373306181374 1.9292038600321033 0.678529036661683
Ni 7.915166479100871 9.07340341189849 2.625153557269137 0.6925294647058332 -2.4991891487544122 -0.3000971041027606
P 8.489667356370363 1.7481601028241438 3.5178622825400576 1.285911020864895 1.1985845304330842 0.9937074605775983
P 1.7259319841188752 3.269635248864389 1.2466207732769927 -1.364545639949663 -0.16717852686344756 1.3453122456413475
P 4.94093865144154 0.986662788538409 8.383951406467466 0.4478326917502481 0.2832491793074864 -0.7232181520389416
P 8.674571092894501 1.5373614723846578 12.560133590074264 -1.5975431221904488 0.5460079519711049 0.03379483706225792
P 6.270767925893953 7.794426759404221 1.5406679391621831 -0.7445259123777823 0.19844236997373566 1.5464442466321042
P 1.8721753537258268 3.3350639846849326 6.096021065714756 -1.140415635401836 1.3709219757896518 1.6395811730981054
P 6.942342809903728 4.0160014287224275 6.1381025430016445 -0.5451240067042548 -0.6632739102748254 -0.9620546095590078
P 2.392657262205642 8.554777637768193 10.267874998782013 0.7001203896792136 -0.17342887864853357 0.49936068442621107
