# total energy = -340892.5141709268 ev
CRYSTAL
PRIMVEC
9.04861724247210 0.00000000000000 0.00000000000000

0.00000000000000 9.04861724247210 0.00000000000000

0.00000000000000 0.00000000000000 13.24356598260953

PRIMCOORD
 96 1
Ni 6.368127081774835 1.8401719941587844 11.582253273525085 0.25057482900291683 0.7118633891477547 -0.34074573086205834
Ni 4.528995678569895 9.259721224313472 5.936468237440027 0.28780131745454307 0.11681113015448914 -0.11966402622225197
Ni 2.693031291311431 1.468554342999012 4.761658242923681 1.0892684231040597 0.8344309621700469 0.4755203874735036
Ni 3.2837069111806176 4.3533077310932535 4.815876651065691 0.6699891175114719 -0.3915522719909644 -0.016891633549016072
Ni 5.096669714050658 4.849425303417586 2.4631837517032142 -0.8797811081700718 -0.7787928039804523 0.7457803536101737
Ni 7.266781429513559 6.003965491014772 2.5014847376982248 0.8648669100624009 0.5318627708189744 -0.04499353399155477
Ni 5.107672832310423 4.600298780450608 11.909077555999568 0.546772083830639 -0.7609521762546055 -1.1056543206612506
Ni 5.5590268963855305 7.865057887654294 12.356246634716829 0.07751644631992456 0.795647927864578 -0.2764730369259174
Ni 1.9346305069167495 6.551388721672055 0.2547864328941852 -0.001017642631236957 0.17602466440016779 0.5047106358842146
Ni 2.7649768449984293 1.5480464432556194 0.5460695575555873 -1.0958332208057708 -0.12765347218563175 -0.5482689800911397
Ni 0.5281279597879377 0.4682776924313894 4.756188353953263 -1.3593604962042976 -0.6472441105054724 0.4016590214076631
Ni 8.584051945057794 2.5563338344444344 1.2519051161323196 0.3109127066610259 -0.30253399567902733 0.3968040073082069
Ni 6.858724997735306 0.6295258569154862 4.804328806063133 -0.2548570013180385 0.0969799543611749 -0.2696030492789615
Ni 0.6713440403344857 7.567503166557166 2.3107109359759592 0.6924240494762204 -1.7410273907607499 0.5198179238392984
Ni 7.698834793549129 3.9765323682492166 3.740565248970705 0.3387803796055714 -0.45544701376239627 0.2663583170894187
Ni 7.524305069047201 4.184885823059534 12.769419154541193 0.3861300725341285 -0.26923101065152344 -0.2986660280831889
Ni 7.965280369434849 8.659155466074282 6.729241098332688 0.18321758260418125 0.17226494024741945 0.3415710549768311
Ni 6.927250174200108 0.8423420896252412 0.5472069687112224 -0.6790905655921079 -0.682191830225251 -0.32346946028011386
Ni 1.8328064199289749 6.34843729120473 9.222819154505103 -0.4949640980204121 0.09980174008068618 -0.5809983520033607
Ni 0.2588311646886876 4.928121125379079 1.1332840814261225 -0.22201887174209503 0.20586591613131644 0.7434774165086099
Ni 6.236270634997457 1.991093876933964 7.051191795696389 0.8016285709280452 -0.6645332366032233 -0.7057439065135781
Ni 3.2033642409269563 4.125753111030288 0.3630151309874382 -0.23654406194146357 1.544879730358462 0.5638328959676676
Ni 5.986157812778574 5.412403106680571 4.866851130016809 -0.31650717002966783 0.4416684719210651 -0.039670579116744584
Ni 5.404684636388154 2.554325041472668 9.166811834784184 -0.4996540472969137 1.4334560897681312 1.7917012629665339
P 0.1904552904042195 5.783305917098139 12.392322565794013 0.4251810157890032 -0.013569254044002435 0.1674351229589439
P 3.896660226079032 6.261624859803263 12.505290024604896 0.517719903659689 0.2787212095301458 1.6438499756767881
P 2.3567122950294075 8.608808961142266 1.4966023410827236 1.217735135219606 -0.7732219947608943 -0.2564022343179713
P 6.348373950885801 7.557115354252717 5.726543942720257 0.5241291496201426 -0.2043929311302157 0.4641558543903038
P 4.547319127974519 0.9469558652310137 12.662941363835493 0.9883377116252526 0.006976945538465404 -0.35455229772784747
P 3.951874886951635 6.2976926471251575 8.166459175833845 0.09581961550448659 -2.0732434868852425 -0.14490377462564724
P 4.8497239077782535 1.0202496628495135 3.8218544045615137 -0.6744787778517094 0.30749005413272207 -0.0002535107717027892
P 0.20339390783813213 5.691978225818693 3.5110145039997582 -0.015060750987864384 -0.7002857116124842 -0.8169436040185607
Ni 1.5266283668404357 1.2341680171086424 2.737537818838141 -0.4123733225013737 -0.06070014609353417 -1.1675888533825183
Ni 1.8093705019250348 6.503322468221503 4.791085250236659 1.3457004822187018 0.32676227209877273 -0.14501381784095024
Ni 6.067305809944339 5.447403157197653 9.446291038582212 -0.47126983972726577 0.594999294268143 -0.3314889881504807
Ni 8.6785647495177 2.302701100216466 10.042649189921079 -0.27788894343683757 -0.37066462990867777 0.9651779856793379
Ni 2.487519102235954 5.2339915254899605 7.0430073216289895 -0.8186191919487709 -1.0635833596331294 -0.324039473850971
Ni 0.6662940071924013 -0.010225842060329173 9.27152876462364 1.3216164446863046 -0.8167808531884514 1.3128150443445907
Ni 1.5154623734748518 0.989538656785663 11.40403442787636 -0.4163217656261604 0.16793288853096883 -0.05400782167502312
Ni 4.103339686746211 6.953464017619959 1.5843142050129906 -0.8394145314275673 0.3545281293581313 0.14044753862650652
Ni 5.565532852001296 7.676267542776223 7.8733663277744546 0.40718020833620844 0.19979194202309464 -0.12322577543158134
Ni 5.278809325441124 2.8974305004971455 5.062551903690096 -0.15934874640638363 -0.015359770285521934 -1.352047250372336
Ni 1.0335601784417126 7.260302619748764 7.006720557775939 -1.4442691212232353 -0.15547872192801612 0.37450534381100664
Ni 5.271253730254525 4.351742320353995 7.35747571760371 -0.9141899246672448 0.5076298664135387 -0.5022063814051222
Ni 8.202028384359593 7.4745738700705004 8.953763052617788 -1.1830306418588852 -1.8627089616336627 -0.05581505008709097
Ni 4.656970268658591 0.282353044554032 10.59338240467328 -0.19946849724540483 -0.10952282402319201 -1.2308369627088869
Ni 8.637076840618832 7.361330428441423 4.711053852407451 -1.9021586829888533 0.2936228092323266 0.045513411050766776
Ni 7.280028604786829 5.794318083974894 7.123462194733326 -0.3787391793866961 1.8876437772021295 -0.6894503115598771
Ni 2.2922318503591077 5.367232410666801 2.5649345448933705 -0.21361033596342568 -0.31556434650042425 -0.3146590610773355
Ni 2.485935594262715 5.070953544565254 11.384103039232622 -1.465898526567553 -0.3991419114127642 -0.06032553636293482
Ni 1.1819032053747596 3.476180043173593 3.817603364299641 -0.9189994302407463 0.1358015552140629 -0.09806573122618595
Ni 3.59383920989376 2.7998140204096917 2.704772776717575 0.24462529628770127 -0.06289483975200781 0.6651261329922158
Ni 1.330173843371887 3.4056822682049845 8.345458917128804 -0.8756709426564403 0.38327897623857865 -1.6455625874925206
Ni 3.629536003919066 2.657515469625923 6.776136460744742 -0.5288725778423988 -0.25209666496408195 1.1839073880368836
Ni 4.068927796333476 6.796560999014431 5.989482274660678 0.4899923558374335 0.2997461485212451 -0.5630944751397463
Ni 0.8756907675416585 7.540420655906281 11.254050886683038 -0.49045489729614894 -0.43976199892697165 0.3215912694207946
P 0.14400331022467266 5.362355206109224 8.064973507121493 0.8079581126904988 1.1888652462627913 0.31339202143945377
P 8.605126174027362 1.163362589162376 8.159016688359621 -2.4443228357338356 2.478631122097402 -2.2068521482130445
P 1.7131656060880118 3.200731093382884 10.343449649932497 1.498258688065813 -0.2963021558367026 1.360605167244676
P 3.9376052179585024 6.156869020910749 3.818146281319037 0.3428252390989064 -0.08701872938340498 -0.10205839732534683
P 6.924318422295368 3.8403144880826865 10.693318045295253 -0.31723607777589236 0.004150274722947691 -1.2275662623774148
P 6.237392663504209 7.60351666217712 10.058779254567343 0.02148310957444042 0.5407099367969591 0.6128301518019769
P 2.152865051480079 8.569320796598175 5.720571855506898 1.5719508755436409 -0.4393380240156756 -0.42511930931313235
P 6.707468316131498 3.8647638511895 1.4914636314941376 0.5328500744329082 1.0034059188122848 -0.26996506060407055
Ni 4.928664042398475 2.6487202139117034 0.6736116237521643 1.8018144401411356 0.4590103056336224 -0.0928582188833175
Ni 1.4759380144628018 1.1205807280339484 7.1261641117665215 -0.18425090896470203 0.6418594491547914 -0.6061545395540141
Ni 6.580199518168017 0.5992908081053068 8.940691420514122 1.6950321549775582 -1.5183577728085336 1.2338204708172429
Ni 2.768062423391999 1.4978899592803916 9.24387619110239 0.456056365211621 0.4572321306872771 -0.0407427291350008
Ni 6.426517807210907 2.1088887729089794 2.680007616877813 -0.44322270378206247 -0.6245695517260922 0.21929298817049972
Ni 3.911925242941058 6.622999476530426 10.295985129511777 1.5384943956574084 1.577305454987335 0.5198030114409629
Ni 7.999230780381098 7.4856946203511345 0.20825120543833098 0.5316439699399489 -0.2871030058359378 -0.2498986288714987
Ni 7.542456594729017 3.851706696873019 8.355868446114028 0.6375155703637988 -1.4013162718107932 0.7565303930378261
Ni 2.9875818715678997 8.342616746532263 12.265355991637996 0.8321614494095797 0.026288501382883758 0.5899324212681968
Ni 0.024692770903842386 4.8870946959467 10.359858411982053 0.4087154140338123 -1.107828445494434 -0.5095517660265999
Ni 8.56423547384983 2.3310775630969123 5.93007177008984 0.49403670111013626 0.1871266878506003 0.1906601549251555
Ni 3.6403400526050524 2.7727767528437566 11.614819246071873 -0.1591757111636291 -1.035517711745165 -0.8892594799741524
Ni 1.2252822752245234 3.0697433138365384 12.462354336987639 -1.300213039309864 0.9279921206576598 0.8322825483684763
Ni 3.0406067671289376 8.364206746670256 7.8549578213701245 0.18208012656562836 -0.15866174764168803 0.01597657793391442
Ni 5.7754336203168934 7.642633833424623 3.6139570000474897 -0.6865984439333789 0.34219043372838487 0.2480654323175018
Ni 3.2836435708616882 8.234874864033069 3.6470396486244026 -0.44753830043828086 0.935184524641041 0.22375822303070497
Ni 3.8016045045997306 4.271553476589162 9.28551430704329 -1.184410038704915 0.22651753094339697 0.3118323902618178
Ni 7.391724732910626 6.207677005309251 11.335644980666407 -0.8318112651590126 0.5525028156668292 0.5108650855213847
Ni 0.5244189316837621 0.23774155307023861 0.5785269466984956 -0.08530123247166599 -0.16269298028826817 -0.5688568315448204
Ni 4.523810821034659 0.2945822504159335 1.6423076961632037 0.7916130956735721 0.15565638515646094 0.3576476488237195
Ni 5.89893819361256 5.978774141314784 0.4451186621073415 0.7168397593164235 -0.8530717171996857 -0.14854342826076355
Ni 7.802568138721781 8.831133480585047 11.157677686570002 0.3196968806115591 0.3177310151344399 0.14627314416934806
Ni 0.09316094108160786 5.112043314316563 5.704997375943816 -0.07294913866421629 -1.6292854475990521 0.3505699160413317
Ni 8.06341262069073 8.99202693928314 2.6207563679659986 -1.236908108603631 0.3558309073299549 0.24363773556345136
P 8.495592665364159 1.8573010261207374 3.498181755384628 -0.3765033480776419 0.5394914910088257 0.7955072885216558
P 1.6755233594098689 3.2462275396082934 1.6724902629948415 0.6050767331088032 0.20286003942545708 -0.9207814618418336
P 4.577686286592751 0.8610709170710152 8.141971808535674 0.14848892087374424 0.4468158204499595 -0.9600648328224886
P 8.582613214956394 1.530066841296612 12.420252931856856 -0.7194188328975094 0.18306871573114278 -0.8121058163102852
P 6.361078209139674 7.905523302833298 1.5309165064319672 -0.13949854444967588 -0.07477847856347122 -0.4921685375531459
P 1.6360713893337382 3.309395934815052 5.927992397905552 0.7591878852653312 -0.8129126284822968 1.2008522434213382
P 7.022423527700278 3.8280988551462705 6.110872186165796 -0.24704727546563263 0.7359633675197519 -1.0093076290087002
P 2.530889123468728 8.458665259428221 10.027908992844468 0.7444724334320275 -0.393986849574386 1.3632873420625296
