# total energy = -381174.73270002694 ev
CRYSTAL
PRIMVEC
9.18737624356050 0.00000000000000 0.00000000000000

0.00000000000000 9.18737624356050 0.00000000000000

0.00000000000000 0.00000000000000 13.44665380666797

PRIMCOORD
 96 1
Ni 1.7660342122763577 7.498222002164535 4.625177857087336 2.162545612986185 0.6576344526008608 0.7751742333912585
Ni 4.574394634865565 0.9388947284905635 2.4102181228952793 0.17410045079426145 -2.0769813566611197 -1.3454752535817731
Ni 5.638164181345871 6.791602520025992 9.761531222609742 -0.4992305866062499 0.494991865934554 -0.7642239050273419
Ni 1.0063668196704243 2.5975836366621423 0.509581498655699 -1.9745673757685671 0.5798737514806143 -0.5944508779638407
Ni 2.434388272333729 0.7571748574293133 4.322332536283961 0.14440523772267388 0.8629627510611526 -0.6459040515378102
Ni 3.270448698458255 0.2983278879012597 7.81124142342714 1.8798114256419043 1.0325295756511186 0.04004544595766006
Ni 5.896752073277838 3.741072046863534 9.752333740245886 -1.9153322442563336 1.3716863647595021 0.3448821216279351
Ni 1.8557121918524226 4.152501130090186 2.0244741874506995 0.2585581043187095 0.25786493490642687 0.7638387537737813
Ni -0.06421332882399257 3.8148283033983823 6.719386986488266 -0.5911146145017562 -0.5759363640994211 -1.1512119546863915
Ni 5.456024447189997 6.733620988512363 1.6143111246712956 -1.515649629848751 -0.9421804963429 -1.0143806726562339
Ni 5.189783470841796 0.9452432054793005 4.51612553847531 0.7525667804043878 -0.6549342800608785 -0.36052574170246293
Ni 0.7931057672053643 8.188947323390611 11.219000053629486 0.3436765313556081 0.3820011379674195 -0.3780017870000393
Ni 1.896706264679838 7.794524073602674 7.310232665550298 -0.2584925411880968 -2.7863939702755363 -0.39685542937143264
Ni 1.8775505851986276 0.621565509029093 12.845306216732757 -0.17748582232672658 -0.16230962880692046 0.03405220448870264
Ni 2.971629285927621 7.933354516116138 9.364720173734437 -0.8579223604237677 -1.0593757493096854 0.6474886224161106
Ni 8.515356426799936 3.745086930284776 2.1709081025486476 0.3221548552337484 -0.34886321776287016 1.2512466367134902
Ni 3.3447929470731017 5.580044839188491 8.558096101114849 -0.3347632880263783 1.9466889041907438 -0.7278685063267594
Ni -0.035449491260551885 4.511819415226944 4.2970929762500125 0.5081962804399699 1.088813337844512 0.09819994281120507
Ni 5.982975599383911 6.943616847458179 7.140710873936148 -1.186461264806989 0.20062472233703513 1.1562248345199506
Ni 8.88213486145168 6.355284834538143 12.267839194965948 -0.38730172424472653 0.6400100546508785 -0.6877171309188543
Ni 2.4879598632473687 6.46306194532667 11.225172132994224 -0.35848325735113745 -0.009383240987112873 -0.8764954954402648
Ni 3.577830745653871 7.954356858223594 3.1911864473367935 1.2391138580056982 -0.9485655739336374 0.09138934764727487
Ni 7.884817607387488 7.402370105748482 10.235081669088265 0.5902154997262545 0.34066525533311004 0.34735372309687923
Ni 7.2647248347712665 5.262970110049146 6.028861031326816 -0.46791455010178773 0.020313257636055338 -0.2442871962219922
P 4.4245577156046245 5.248628615722925 10.674343908664234 0.015211417633115737 -0.4855199218883767 0.31429267887685225
Ni 4.2422434213 8.469722728966282 11.068438250382421 0.2831913294863575 1.720892824794404 1.363518227126413
P 9.159905994993608 6.667830187186247 4.552028886122612 -2.5787177404083588 -1.274997459276185 0.5919612787727676
Ni 5.984188333048907 0.3268262102910759 6.651764222337906 -0.06013733161152869 0.15715430985822612 0.6670878847042769
P 7.536625234889456 7.364876423272309 1.31148050366992 0.6415740567038887 0.5318712554594065 -0.7458559440431155
P 2.568220782167203 2.1228259689443716 8.591483945144907 -0.5595921184134427 -0.23291623538088918 2.2516898733530253
P 7.275115757309996 0.3668638772508684 4.40490867401879 0.18363872930199987 0.881278775761521 0.19362617953201494
Ni 3.0690797858111702 1.9657218350696959 1.0644328750455545 1.0527399891607225 0.36165137066647396 1.1174171176241336
Ni 4.851145969643745 2.056226678508259 7.953305822380597 -0.15591606657575083 1.1202296473722642 0.8833695968522786
Ni 7.520740261353239 7.8761722863362555 5.689453627999015 0.3014705874115195 -0.5005575329477896 -2.0662089486359645
Ni 6.3220540946419606 9.24553234164343 0.6316238485475723 -0.5881485898948967 0.2978854411634224 0.9438005484448262
Ni 4.623822719090463 6.644981182452545 12.28178379463817 1.2551385155687287 -1.5483172952851014 1.3214665493720015
Ni 8.79054590761562 0.5936735534717756 1.25088148866267 0.020458010744035734 -0.7637973590128845 -0.9607677724267841
Ni 6.984794667810594 1.8329918103862195 2.716130189890898 -0.3155435205648178 -0.4209816329956749 -0.1699172659508493
Ni 0.9355045866543206 4.744829651678964 8.38544049546183 1.4370129538814542 1.9485622099540572 0.08726349840435937
Ni 7.488189387299556 8.238421344496759 12.347349505246159 0.5561465830670035 0.1199329636129225 0.5944868734080988
Ni 7.567072199781893 5.814267809305509 8.720289122694389 0.3229423841320503 -2.0030248597783116 -1.3498127046148625
Ni 2.089301233008191 0.9413018210680586 10.505991670046706 0.9344183358989779 0.23152655412221415 -0.9758166963401065
Ni 1.2301621177437128 2.772924712393031 11.595936970200833 -3.1827146101894224 0.5692142148842391 -0.7851760817989768
Ni 8.3150624371741 2.424916087419999 4.726216027396503 0.30336600466201946 -1.0720422890337602 0.6028038779142263
Ni 4.119224453312754 4.818392973312562 0.8111800925019519 -0.4923228037428231 -0.4001947781573108 -0.44251230797859914
Ni 7.6314481451655105 3.2864347331332215 11.068559523748922 2.0017773605244558 -0.3777436482426462 0.74988023471116
Ni 6.461702213641672 2.9690016963201264 6.15769377100505 -0.8352177197374003 -1.3315000223486035 0.39789235527637923
Ni 2.105746636495657 -0.05004547590889678 1.9513647222038504 -0.8372617467506225 1.3934152717961614 -0.22913157152747632
Ni 2.1398685518880867 5.112471699698206 12.983645134616847 -0.9505149843505242 -0.5885458253333155 0.5330927865713335
Ni 0.9655197448630087 0.4467912944128285 8.417484226346515 -0.9187189228858499 0.3888114760210336 0.20348430327301728
Ni 0.0927520756693087 5.642858930609612 1.0116330237369136 -0.2590656400827474 0.5708373523099588 0.9121852355323903
Ni 7.401745364163484 6.128255580024861 3.1595203176159834 0.9177763564669227 -0.5074545171779389 0.03760906860202556
Ni 8.28606707772916 1.671367487396553 7.2372711170610735 -0.22934368753828244 -1.0318415484451584 -0.021255052724034364
Ni 9.132297929362416 6.47793630747539 6.791515239951618 -0.654753274398324 0.3860992192961931 0.9011539174188932
Ni 1.4996278631556572 1.7694243541126005 6.501712318472715 -0.2760030392680343 0.5879246468095487 -0.379746794715604
Ni 6.730093036032369 1.5906104501592195 9.298092402431948 0.043022526308113 -1.3513396827823503 -0.3374632034560446
P 7.126565070724052 3.4141576377604586 8.10402932344966 1.3742011607615559 0.610063130579801 -0.6192131725101852
Ni 0.5718829344820705 9.098258700356235 6.006996913327111 -1.8869398091565697 -1.0865415110911996 -0.9824236601336628
P 5.221976037221729 8.884863512197924 9.081977750903643 -0.06911510963010677 0.9619985595100916 -0.5438099158785216
Ni 6.765014253158548 4.989590542354709 0.619156578976348 0.47840953609584064 -0.1493813507810266 -0.07654868309001656
P 2.6140933517833584 6.47763312405914 1.7036638711281111 -0.2752538198068356 0.09778496676097352 -0.7180751743854215
P 3.9475675154581085 6.558114540008973 6.2809047551559205 -0.4562378850948078 -2.897764131920112 0.9417518934459136
P 1.2774036064211154 2.038761476257045 2.63999532164493 0.3198154084672944 0.49201427136346876 0.32503603343628534
Ni 3.6602874474974505 8.29563113640539 0.35116448871490075 0.054087011652390715 -0.8849716512320759 0.5433229489397738
Ni 2.7183976343493934 3.4897054326640524 7.1207696737855635 0.8685692986146526 3.453084619541395 0.617737359295607
Ni 3.44752618830039 5.297533019501573 3.4502768887496336 0.45400976709523744 0.6922322451803885 -0.1789392669438015
Ni 6.083053688874954 8.194165753100599 3.0746583606701585 1.044885011892678 2.398603993540482 0.9529462194998362
Ni 6.806697379204711 5.399981452065113 11.435034774984414 0.69211525998655 1.8596802021096683 -0.4838947275801279
Ni 1.79883314548879 5.4409295880112785 6.061657208326373 1.6406564084401551 0.00588576935681567 -0.6767431484058539
Ni 5.436216463995039 6.656520527022521 4.7157010752784 -0.3231830393879466 -0.5431036338401163 0.05580296590223292
Ni 8.560080574384846 0.6063484577462495 10.154912623930931 0.14317625041157922 -0.07653171380915208 1.2289127491029803
Ni 0.5093711077395744 7.67037505833668 2.6765427043673546 -1.2731814891133688 -2.436847867513029 -2.000744548384567
Ni 5.1226053757019345 4.62540294780546 7.6191967789361605 1.4347177300893743 -0.16790923438188501 -0.38555260276410375
Ni 5.518801789106117 2.490201583052364 0.7586007382233104 -1.3821903496146195 0.338391628807585 0.46258259636591303
Ni 6.539739787509012 3.9944506964617617 4.131121186818855 0.435101874447141 0.13190144882870833 -1.3700650271059953
Ni 2.6945839551094424 4.146584459785197 10.139812252326463 -0.9037445609642049 -1.8749445844679065 0.706861307947473
Ni 7.906316067812443 8.439854568777593 7.844428063917321 0.4260418211274018 0.19244578607066856 1.7180239878870414
Ni 3.868280458420772 1.981073940783414 5.890575400224976 -0.34181685243905 -0.2281599516428264 -0.16833680883760688
Ni 5.497762697493662 3.7836647231584464 12.191422274269106 -1.0797915939618759 -0.6800117918547965 0.12917068016110658
Ni 0.15178923671406194 0.4442730345827087 3.5869620789087273 -0.5775453604577537 1.2107877573674954 0.9283952696333495
Ni 3.1692681238172136 2.816629061214191 12.42771975394337 2.59348384297394 0.2994712975933036 -0.10559006462768912
Ni 6.723156566963634 1.389168038502135 11.8669140390059 -0.838454224396827 -0.8734376824505473 0.7665183574884734
Ni 2.1087049716481507 3.4059165612642257 4.755153506371069 -0.5990840058604779 -0.2876645347663626 -0.5117541729945574
Ni 0.24671872055461613 4.779649807666392 10.485983402049499 -0.15866997517180415 1.159016795442791 1.177298110250482
Ni 1.2003307070600242 7.626257277584272 0.0429114782507865 1.0407208532126593 -0.37739500665397585 1.2598801440187724
Ni 4.534153926890649 4.274215490649935 5.414672066688833 -0.8633394176742809 0.8564159510815701 -0.3227510940568506
Ni 7.703780358381612 2.6847810246507127 0.3724792016148568 0.9416264236116428 -0.5028116190892888 -1.5734662837469031
Ni 3.9781431036180455 2.8610500253828492 3.4457860992386435 0.3758495165437269 0.8124500870235813 -0.3995990535548409
P 8.882998474819178 1.0885662749790048 12.379904054250343 0.10471846065601319 -0.6189102965577857 0.14057892199804822
Ni 3.523882472313982 8.473287430951274 5.841872199986202 1.644767345284735 1.6598221827353288 -2.0503447279101983
P 9.045844718850093 4.340199226877298 12.703551432358925 -0.27760663630972837 -1.7171289868765975 0.13790497471031088
Ni 0.06396802587811808 2.7502135183030774 9.313071500669917 0.12238939557321504 -0.4213019924495712 -0.7490927058128583
P 4.468850056505783 0.8447130970767579 12.963165554218014 0.6233883869337973 1.4457637034908908 -1.2288091336455804
P 5.4291697464113025 4.455215990150812 2.412612353146024 0.11286037303685724 -0.007418661061574319 0.17955401770966495
P 0.5796673983786794 7.504790976183272 9.062628217783558 -0.2690795726753237 -0.4321901001169848 -0.02417402614304224
Ni 4.65459124215165 1.6666911128853124 10.572203253205071 -0.5768966711301613 -0.10163750773784432 0.33073436937264333
