# total energy = -340873.78756036493 ev
CRYSTAL
PRIMVEC
9.23356435124751 0.00000000000000 0.00000000000000
0.00000000000000 9.23356435124751 0.00000000000000
0.00000000000000 0.00000000000000 13.51425477103905
PRIMCOORD
 96 1
Ni 0.40828328821673326 3.3270933347351064 11.847677001696507 1.1022067284322823 -1.160578483502956 0.3691978155551642
Ni 7.540738124100899 7.903506403201138 2.0120971039673203 -0.22572974493477896 -0.15133898872802967 0.4686596557979284
Ni 2.2328236148163176 3.9643108492175596 2.307058702718023 -0.9017961789885823 0.9026466999143358 0.7697157813798486
Ni 1.2169468568594775 0.8245102119076554 10.78595651972967 -0.04195654693744388 0.7302976845935422 0.08969499066398745
Ni 3.625365166331905 7.368596782539461 13.30858109413997 0.35107256670936315 -1.1985511060919876 -0.41911449787994914
Ni 3.6106560982040627 3.9025660039125483 9.505224199827419 -0.9078421280723461 0.5317694397742196 0.5932116062401009
Ni 8.30767798517975 9.045236644260612 4.912431711429196 -0.22130564772515432 0.49465479431010945 -0.2310089910558473
Ni 8.746890944148419 3.8360658729290433 2.531639303357705 -0.24133145602777792 0.3452929839131086 1.5665705850683342
Ni 2.7648615969420502 6.552478957337013 9.026414023181761 -0.6973153161302507 -0.09721778140359386 0.1026896031514425
Ni 1.095036105766002 4.813189360997274 8.629973704695582 -1.1793927879959818 0.11697825185997274 -0.754702595800468
Ni 5.339123957038573 3.3006207055307595 12.129732847451425 0.6874245393791 -1.3251056887864856 -0.32516947369035615
Ni 6.049055791362056 3.4478775909688224 7.11402556464979 -0.15098443360208835 0.3418266226310629 -0.3234422065866042
Ni 3.433528631853526 7.101063486911016 4.554276521115316 1.2614965965762728 -0.2694408126694844 -0.0171464298722995
Ni 8.082545217387496 6.263773098483746 9.010345774370668 0.3278290228003902 0.8962060864953145 1.040144411883899
Ni 5.273371744773432 4.948147138622225 5.232395032571461 -0.9126202661872798 0.39880098313357765 -0.03125690113175262
Ni 7.3449311569200875 0.049181657549366604 -0.517376005176454 1.5675504324831004 -0.3311249199428426 2.1331697309272295
Ni 1.5949874515174391 2.2363046686042627 8.170204984605629 1.2699084747890517 0.07652245783777144 0.935288397208757
Ni 2.4944843634709346 7.955556005860679 2.421754346570383 0.25230878097488807 0.04528458286941234 -0.9286726916644522
Ni -0.27047049247180116 0.6609450049834683 8.703788665415983 0.03200252104852553 -2.0485498407933043 0.19409437741768507
Ni 6.130071085620493 3.3894198945988463 0.8574047851690738 2.028896585338751 1.3339109457829412 0.7968478617099503
Ni 5.8301095117340545 6.895607444906856 3.3152226643112805 -0.6966085198712132 0.8600232088168542 0.8390558625365679
Ni 6.593189742883566 2.6811778025650024 3.218122500825786 0.3404564817564137 -0.6165806199833445 -0.07556549324114083
Ni 3.6462330219307275 2.8473542615083693 7.150419658828001 0.3723361040738297 0.5439045324748568 -0.9574091403671963
Ni 0.8172517069137464 5.471006957710245 4.102535461935814 0.714765393285898 -0.684191377153783 0.49234157279590046
P 0.47182036837649344 7.537478675859135 3.191877940662718 -1.561393154632453 -0.5189046679964097 -0.6113309415486311
P 3.9470348501797736 1.077621603261852 8.378081143845387 -0.729775236431169 1.060510891355393 1.2001526462511523
P 3.4880805304720406 4.117763456384299 11.840054694264282 -0.5097451129843285 2.8019833400733614 -1.3708486993495554
P 4.232601297128793 8.907499563743958 11.74541435234141 -2.6118415195455214 -0.7985568739812571 0.5807206728619418
P -0.2919893143625339 2.0604976019663948 4.478043289872201 1.7521288999905502 0.2801425153577046 -0.5929105300599143
P 6.324714623683847 0.680262545115458 2.0776812653599386 0.9769428395247497 0.27488203828971364 0.18708220776591006
P 2.97424190382652 4.8673719170388186 7.657271247273687 1.6210581745932533 -0.14618752643407726 -0.22616117604524275
P 5.615419905305638 7.33085920473752 5.770573335039326 -0.017189624405409106 -0.2840878731586978 -1.4771442746847012
Ni 5.187758135431715 8.252636707646749 1.2950969760770679 -0.2858907306953915 1.0026361305257958 0.14312611389993413
Ni 0.7072614874919879 3.5762426035948542 6.251654045176907 -0.17611568145207732 0.5493066773270345 -0.5925554607133409
Ni 5.171193120854595 5.622834457538317 8.206828994538006 -0.2632642515451272 -1.0208590812917258 0.6116973237491143
Ni 7.8793975664894 1.551857472091731 10.688369747399015 0.9866963193670878 0.7221436880278402 -0.06485633435375282
Ni 2.1386043234311916 2.1914849468889157 4.794978925239752 -0.2578919314896204 0.03507498932626218 0.8173295266030698
Ni 5.740857878009179 5.915187574339166 0.7294469727341519 0.29262419276448315 -0.12961470967706065 0.37693015120241535
Ni 4.460596469892566 8.440567444373666 9.282793172985704 -1.2785301550197916 -0.38302032326055324 1.897401885030158
Ni 2.5756104605024635 2.4978269137925158 12.500442915312966 -1.3225842079162127 -2.2506987130843497 1.3701524446134792
Ni 2.0998141192848845 8.955772638553977 8.370053482934939 0.6563915813326954 0.7193931218658964 -0.18872154314154593
Ni 0.10784156898023381 1.2620066512498553 13.119935679526616 2.4506030123155926 0.06158871934607457 -1.6240905336616742
Ni 7.573701949095499 3.8073864218272986 11.039187024064939 0.008620651789475476 0.21716822851801304 -1.7777340021531642
Ni 1.3218124480257731 -0.20689093791568938 4.371740032725049 -0.19651429971308737 0.21161541702058392 0.5738452858983473
Ni 2.3776151385531037 9.36745110840951 13.492929207870278 0.22431486686512336 0.655901014849522 -0.05056897119680324
Ni 8.298758361945916 2.7566529581688854 8.164812582981863 0.09294229395669155 0.4427863875755923 -0.3456136004773209
Ni 3.928364582913924 7.39752553988066 7.121836236796269 0.4721710113852965 0.7169721711292297 -0.4664549348371257
Ni 5.655105765201097 2.8706136102930753 9.555186093570637 1.1738759719428105 0.37972622589031374 0.11159384761960782
Ni 1.7192250608458275 4.747972695468741 13.371922422733936 -0.6248821978705045 -0.29746095203149414 0.03252136966647302
Ni 6.278999246219347 7.837375614794603 8.089092737920737 0.7464755799049855 -1.2323904232389358 -1.4819792341794993
Ni 3.591108642317909 0.26977151164488483 4.335873175075462 0.834571344402653 0.6447293145034187 -0.3045176017679594
Ni 0.10942512527899402 9.103860544790225 1.4413492497057718 1.1053391034136768 -1.1177734725222879 -0.251698915305031
Ni 6.29711549961974 0.7083048802719288 8.899163501781738 0.20441838505151247 1.600430985261205 -0.030833183330772704
Ni 8.059304335731639 6.6968365035458595 4.484516018533606 -0.7470242533196038 0.4556228772186282 -0.24815824914162424
Ni 7.376260641011595 1.902105037832677 5.905404612831665 -0.20438958869610604 1.1400644227100043 -0.9803042997978147
Ni 0.6654306705807729 1.1048975525711093 6.4570168281803815 -0.6020096641477052 -1.1959725467315336 -1.080690194516745
P 0.388413580932173 8.456698481422846 12.122665477241096 -0.11543713262509796 0.44111157097633064 -0.3100683563828595
P 2.3537279073875492 8.513392566987788 6.160176199069343 -0.1348661878839871 0.2366949856970311 -0.2026623215923542
P 5.375467266612451 2.5194519216741273 4.951473991884285 -0.8279376411362191 -0.23393413512244227 1.875381929115641
P 7.532723390180643 2.3941524524369497 12.836541890286624 -1.5487808651850812 0.34189732796799827 -0.7672097271285432
P 6.723281432056933 4.9781100551789415 3.1154009433188032 -0.3547070781381569 -0.33477974308661057 -0.905764162497395
P 7.839056123519819 6.599311596096849 0.294860952898478 -0.14329246427446934 0.46824905062307104 -0.7492973656244966
P 3.4716263186680134 0.7418088687853482 2.0424903046262073 -0.8734176278458893 -0.5325166023528894 0.25285565461729353
P 2.7786473086274674 5.989887110531411 1.4107796879663816 0.8591873431791203 -0.4866391230944845 0.12991989962230527
Ni 8.785376440668726 7.656416219208 7.026682508691407 0.7972795499307301 0.8133096068103993 -0.540823579556688
Ni 4.813955746844487 1.6369447682612666 0.6336468951195927 -0.7746299308520143 -1.4733603821622367 -0.4225623472192336
Ni 3.8877184323183416 4.037228307475924 0.6280725922766683 0.7567985590975482 0.23384311807053276 -0.6921913646401241
Ni 6.330476367884584 5.420194652683556 11.804187836614695 -0.19686576951523513 0.5483386569868104 0.9273732561267385
Ni 7.502797407881623 8.543484753446444 10.382069331535325 0.8932300345861262 -1.8345471544874663 0.12078579853152102
Ni 5.1518857376434735 0.9177673658797741 6.6608117519446175 0.7007739641028123 -0.21587290674535725 -1.2485708896535401
Ni 3.8330557309267355 1.6466492444711613 10.576715639668006 -0.6754581110458431 -0.5944045981069376 -0.43227623207288784
Ni 8.293532164481787 4.597733368721643 13.237347838032592 -0.2627407749414895 -0.028196002818241764 1.1871899154428973
Ni 7.122956268160931 5.972998921199444 6.745465070586213 -0.8785559775137193 -0.7148517823521173 -0.22233537454124938
Ni 7.585936421957641 4.322647017394155 4.96717751490062 1.0962615665924411 -1.1333271039861708 0.2891614310268633
Ni 5.87687751554292 0.7804910402278913 11.536862296185795 0.034105426324141264 1.9913044860175901 -0.794964014423676
Ni 3.9505897724831125 2.6285003175246118 3.1836877690184013 0.7362490170809708 -0.6542686214524216 0.10046354203440117
Ni 6.00875128265017 -0.028029408166276894 4.410026084253791 -0.16546077284139246 -0.16911096799947006 -0.41302329738054677
Ni 0.3876268812432262 5.794237113945814 1.7479340593537298 -0.3954094409535255 0.6970569202625414 0.33953371283182815
Ni 8.162157009853447 2.0020768398541158 1.4012524961934325 -1.6605621462251465 -1.5617770203344328 0.5579432699561101
Ni 1.2354416864012658 7.154424255718801 13.64642428943337 -0.17578015248952952 0.844560594404881 -1.1929224470513005
Ni 8.572847488315585 6.47906288659974 11.479332573040459 0.21542039258897094 0.42805242379952735 1.0411682251627232
Ni 1.5753199592937703 5.194563272412393 10.933775729241168 0.6373787876756185 0.37918218046138563 0.22783856374766565
Ni 2.0805806045891555 6.17608193714657 6.21004298709899 -1.1311948881345162 -0.57245509041904 0.2719520091271123
Ni 1.234010483915506 1.4509992478855636 2.7127030382223034 0.3528885368721793 1.0594225433872206 -0.3224016811372319
Ni 4.175953379385972 6.114761835805074 11.026294198059347 -0.9337835305284564 -0.4523449777983048 0.06493860965491396
Ni 5.98953623508329 7.664957266300439 12.187763029788556 -0.6618680310662343 -0.609547367285647 0.23520271742222074
Ni 2.4598861975732405 7.854679314525663 10.947451561509938 -0.9410947194778888 0.7769819760239586 0.7747798261663172
Ni 4.4248348748774164 5.051184484032518 2.8950511618983157 -0.8680543066514469 -0.054672708952531644 -0.21228647494567954
P 2.5982234597774707 4.259858779309202 4.5906032102732315 1.0095552262431322 0.610133064585788 -0.6983931225754617
P 0.6183727328489855 3.072256190190016 9.802078679285094 -0.6637197395629924 -0.6044429561795461 0.671142771499941
P 7.148348570327641 4.4117786147815155 8.82086195210759 -1.3361910000663697 -0.5616397449710907 -0.16711013551935736
P 0.5223519730446865 7.727403862501694 8.972491853656981 -0.36673135629254255 -0.8790509148722667 1.6065597238667622
P 0.9195919182100074 2.87136152901144 1.0457399520177746 0.3216457768078138 0.05688411478155365 -1.5072341520915462
P 5.997200093555423 6.741416152586177 10.082768880861662 0.9435398385842718 0.6671632180269026 -0.31387358906156265
P 9.174968224421434 5.636841774769916 6.1717984866101565 -0.3374400635275931 -0.30232753609517615 -0.16681497287644176
P 7.389335368236344 0.1879279666575912 7.003735254384242 0.7281616120871459 -0.9227105605437463 1.1460190976315425
