# total energy = -381168.3397090672 ev
CRYSTAL
PRIMVEC
9.23932067393702 0.00000000000000 0.00000000000000
0.00000000000000 9.23932067393702 0.00000000000000
0.00000000000000 0.00000000000000 13.52267973115009
PRIMCOORD
 96 1
Ni 3.7671020788597094 6.382920109058012 11.670261882505967 0.5079952201727573 -0.2999986308516833 0.7814027307994735
Ni 2.5197475723750564 7.537715099628713 9.472434421658194 -0.8458379184554078 0.3603987292062954 1.30817086070436
Ni 7.483951491812452 2.9441095773588724 13.722139488184409 -0.7159236752600574 -1.5503338114944978 -1.6170493105441766
Ni 3.9440258331256595 8.317070288925356 7.731389742530317 1.9947888450217648 -1.0287063452502863 -1.5013746079869754
Ni 4.879119014061912 7.209700732092561 5.47842940652166 0.12107556185779793 -0.8392026725270773 -0.02402824459379733
Ni 9.299930758469626 7.877306336144718 11.915766343377479 0.6755121042122302 0.9222662739174761 -0.5752953880813124
Ni 7.0960108894771485 5.752687557698203 5.189788404634072 0.39197573268162816 -0.3013204349869004 -0.1503347158332314
Ni 4.972851923719234 8.46177653151313 12.121987060012318 1.0520434773143301 -0.44248428295414116 -0.25830227955416163
Ni 7.211391527801509 2.5730861714338755 8.648903267753905 -2.2611456194492865 2.6279515377335065 -0.7796471815609476
Ni 1.4289533570824517 5.979328097263911 7.862410703128499 0.12408658076997985 -0.24472274109751402 -0.38655533299700523
Ni 6.891877335414174 3.646066976197223 11.07941563184386 -1.1322171587514436 -0.8340200998848732 0.2527270994592292
Ni 2.683505294481156 3.3533930107743544 1.7003011222026063 1.248117089945573 0.6238648123495837 -0.6890492194667166
Ni 1.6821292260257683 7.515540729675279 4.060251869304495 -0.28496539066764476 0.7821180116989433 0.667341909696612
Ni 3.0643593377521747 3.6096363342278956 8.264142839642757 -0.2183951589465787 -1.4481841400069253 -1.9698126346924012
Ni 4.164189608800804 4.089609811190758 4.6517744382501816 -0.2633480695081852 1.0466621583977587 -0.9675320877338112
Ni 5.084536833718023 3.5216225641543963 1.589171495384735 0.6959089227010273 -0.5956832077090451 1.13737633435488
Ni 7.268204111486367 9.38973695678103 12.963692881889688 0.4061643654771844 -2.377339941955383 -0.7756403743943997
Ni 4.103441074449212 9.00810681056164 3.509622534281264 -0.8213437899687854 -1.4854003440459065 -0.8674017606691126
Ni -0.3314541666751778 1.366005864377145 8.415650146281665 2.671095420110832 -2.439231794364173 -0.6437839198710138
Ni 2.1568917260495737 2.7302193005163873 10.459252092307072 -0.09178298354126774 1.1990581276353929 0.0710056417846003
Ni 3.0061146593411587 5.2006750963491255 9.653787506322342 0.19198350172226936 0.8170040249428511 2.1134845937934763
Ni 7.797949809673871 4.730218119824612 1.3484225129361542 -2.4415817826535884 1.7688549544959795 0.08045084635790016
Ni 1.9575903367722847 5.107200887674594 12.157714589667705 -1.3140931397260658 0.07880174079025139 0.24755481122967046
Ni 1.0460574239115545 2.923718396322528 13.526331486106868 1.6809193697252598 0.18263548484846612 -0.11658384463503148
P 8.687012694315124 2.4263103209837795 10.277358507375308 -0.15759988203607697 -2.713357671214153 -1.5031029035319918
Ni 7.699902137196443 5.679752359193037 9.95634384928779 -2.0673386913650327 0.49108636023256075 -0.4718979602295679
P 0.26816666696391844 4.8520570433979096 0.05717199326451896 1.868897349832562 0.17673017510762465 0.17278481730663145
Ni 5.440712651095033 4.356367481730553 13.0956608728713 0.8610745328995041 0.46806624518830353 -1.3428529854675777
P 4.649595806402257 4.025479685421269 11.09093706489883 -0.16213042291657884 0.3720309141285851 -1.701389978874786
P 4.805296840758609 -0.08304578727184922 9.496166541100855 0.8234554369951496 0.41274124736375367 0.32419065471685454
P 6.148989745370113 6.547675677812017 11.722526872486206 -0.31294182127591263 -0.07401614647614996 0.05860983922340873
Ni 3.605173742274768 2.107193419391443 3.2919071786218113 1.334522354114695 -0.44455736343308594 0.6916105524359896
Ni 2.438330677362703 5.618828277745981 3.1074986505644966 -1.7715515274915359 -2.2913457971817506 0.22566032514942427
Ni 8.640862286849542 6.619308132082417 2.7923121560464055 -0.14548227283693657 -1.4135081858912946 -0.37571324807617873
Ni 1.1419985312434062 0.1858572535609394 0.09573599440978241 1.2928175181767412 -0.30659273912943324 -0.6630664222497097
Ni 0.594911551820236 5.849875973339935 10.18245589970294 2.0311370446334958 1.1163375114067096 0.6322355529117821
Ni 0.7735085470855889 8.521481022612749 2.2915123260368633 0.7171434065997714 1.1272369319280329 1.1697609213331726
Ni 8.833382014649406 8.117528677306904 9.216409146175861 1.1233090576285365 -0.34014229295010456 -0.573858655634786
Ni 5.8231281395836065 5.316739444413718 2.988620005379982 0.10341234025007996 0.0839478037675651 0.27349132858977415
Ni 3.3816376145025395 7.698026555071215 13.72836032288843 -1.0946281447540762 0.6828513181861208 -0.12345743182641318
Ni 1.6360250151642564 1.1397810942480628 4.062727083350547 -0.9980703655319845 -3.2981311739892294 0.29551616960029753
Ni 3.397612400189825 2.2990571554135184 6.071845112302121 0.596500818514334 0.0670127185751233 -2.00172593846123
Ni 1.7453446590346788 8.615167735666 7.432809079311104 -3.039431401886333 -0.6641545131075659 -1.0837114978415723
Ni 1.6810112682072826 3.2088900332444856 4.519536659100805 1.3597636451799873 2.7640336003024655 -0.11191677817666532
Ni 3.0220062911411185 -0.2235462910251237 5.422716302013661 -0.06387031629139968 0.3875842884821518 1.9719633624868167
Ni 7.9994593966256895 2.4401415842422334 2.5202760615256135 -2.134433171020685 2.0629989263390986 0.414871406332879
Ni 6.024258914382054 1.0061620366370037 3.2478097482410853 0.4126456023261538 -0.36949632063218946 -0.7071616127967111
Ni 1.3675303523114435 6.690617210124331 1.169201863515861 -0.6478907429505358 -1.1126088976022128 -1.3458444639957337
Ni 6.566061926231738 8.652707096133 5.523852679439185 -0.07005201962207935 1.68212341733569 1.012139956251173
Ni 8.978097496557995 1.6125756189385014 12.403813138867552 -0.9088368878854476 -1.5592843358195663 -1.8702695475897404
Ni 4.897542219764889 1.8363612083727057 7.606710651738817 1.803086879095656 -0.7480884329180599 -0.7083034397106381
Ni 8.120586892496316 6.05845364071441 12.768763539221553 -1.9048799385747581 0.9359309158887623 -0.9145236538575798
Ni 5.599462661319984 4.290241662665253 9.0735692463925 -0.4857595487030085 0.6367558093796388 -0.04303229650012589
Ni 0.8452315466999666 2.0043967360156554 2.034500291091603 1.4776955192024808 -1.744856791809169 0.5867280553982864
Ni 8.586442687255492 7.120735311975226 6.778472987811913 0.5485042360303972 -0.40048377015263925 1.8631653324447914
Ni 2.7443924186449564 0.7406239564446484 8.86118220704644 0.8343581999505824 1.3865385992809862 -0.0164853992495329
P 7.412078815200888 5.132313361646856 7.655040614984405 0.2599773532637394 -0.04178556857721836 0.01708112385200284
Ni 2.7220332622752452 6.583210105662392 5.891899176197934 -0.2906282453803769 -0.41449216861658933 0.4719545244991162
P 2.5490546979968434 4.388769779825005 6.225003485570479 -0.4645466620708193 0.43267938104857745 0.3224713580329027
Ni 6.92887157595315 8.141532432781496 10.42678419503484 0.032757911157311324 -0.896566555158527 0.7326900960851187
P 8.219013377127116 7.72674236416091 0.9763929449745204 -0.17673634575521177 -1.550908453051045 -1.3734786807732347
P 0.34996422199380567 0.07848063885768629 5.7591338318300815 0.5136267074269218 0.283224496717138 -0.0716432753685992
P 2.364046538018704 8.263094176730375 11.818226833544815 -0.5238185603582591 0.27049779317908895 -0.31650048516144846
Ni 5.867569272698611 6.376729764112679 0.5436388648954115 0.3928442513295105 1.008372775899257 0.18379325260199314
Ni 3.5393343421547008 1.036476248227509 11.886057307300286 -2.139769238521618 -0.27326378596000034 -0.7025235998040674
Ni 7.282063092707261 1.867728702535999 6.304665833560267 -0.472478001102754 -1.0857195294105364 0.7623793956194354
Ni 8.372589367696262 0.49659316724296004 1.4741207008134312 -1.7071708472226212 0.8373211392336484 -1.2019264503221234
Ni 4.399090101174166 5.7353545918512685 7.582693961215088 -1.7655659993320627 0.7738393166299189 -0.0643660249808956
Ni 3.373377661694886 3.3530049593001694 12.550994595501379 -0.3989747897072806 -0.9961332964102715 1.4699624122242814
Ni 0.714627279470493 4.3632507757369305 2.088902335976105 0.693846897965676 0.4764930357994181 0.7389414763114692
Ni 1.5130773730932865 2.1052531620205177 7.055566686546251 -2.017307080728939 -0.7295230112110468 0.23079816059662184
Ni 4.050370415693997 1.4944047057283336 0.7939034238502587 -0.1231303875042976 0.09362543606664521 -0.46585252536643645
Ni 8.351209579332828 0.5789552447745784 3.8164788571535153 0.5384355389404857 -0.01889863667671584 1.5567739106928866
Ni 0.4804603891697564 3.9085376018793534 8.926131860572127 0.29900515659016247 -0.7362947827172416 1.238013682962984
Ni 6.42734276353139 2.9856680423799307 4.379076808359112 -0.5772594537862188 1.5473785855209157 -0.14991254069414825
Ni 6.608673673825584 1.1274927975655358 10.328730978964924 0.2118820404184093 0.6290085613340521 1.1004936023959178
Ni 0.6492581607798551 5.376536328721474 5.1901127047946405 -0.14849432019038297 0.6871900547707908 -0.8774133792688438
Ni 5.112642847633999 8.51918043173008 1.4041679550670025 0.8363340927300306 1.0319670182794292 -0.41013466297884205
Ni 1.1670001333659015 0.6816927964971572 10.414005290417093 -1.2605702281072615 -1.4816051386695324 1.357066043743166
Ni 6.349178109445539 7.126454451559049 7.688603371773088 0.06257602296000837 -0.7312531065282761 -0.23199398067693594
Ni 8.763366441521443 2.8412574580582013 4.8690841877259015 -0.4276335910945538 -0.07864696037994197 -1.5242746525136006
Ni 6.737839378804329 0.07941103846364907 8.206386921302796 0.06486379055292055 0.30744685959961243 -0.5791654125596799
Ni 6.219458045217959 7.744601971294238 3.3211025084617503 0.6678646149693014 -0.9493538741628874 0.08800320478386134
Ni 5.674448989045842 1.5978758595235385 12.438864350239358 -0.696839919155729 2.0316610354577658 0.03240798401706032
Ni 9.13714316504899 3.8940133895598548 6.798648892673292 -1.2805394721403365 0.6165554231723639 0.6601009118634825
Ni 4.905552710910567 6.9175626472769 9.70003492665647 0.43518157864514084 -0.01626248460544941 -0.17769511012405526
Ni 3.4713791375682437 5.494892028347921 1.047410060478714 1.0116007959182514 -0.48532914603380933 -0.8777666488432044
Ni 8.44766808863026 7.684315402983343 4.692234348026464 1.1604861808994658 0.5365838304437275 -0.5356764881381096
P 4.067056629083955 6.5988245578379345 3.5196287187227506 2.830442366745003 1.5560812555012362 0.7324772087433643
Ni 5.685074207981861 4.29390043370757 6.476538451137242 0.8808841114262634 -1.3584793791509249 0.5379035776964156
P 8.272878617472328 4.439826266642784 3.3738812046792446 -1.2819993445153146 0.5197837281672533 2.9171199107389048
Ni -0.12876379452333886 3.7968619312013785 11.591114164685514 1.5938461329548355 3.4289640723441077 1.1196462640649685
P 2.6479061913850828 9.566392770743377 1.8518638647663994 -0.3373325914154513 -0.3390791417929128 0.7026061322155447
P 6.266310641065399 1.2422544013953631 1.0358572137329756 -0.1252795726368165 0.6849249128856979 0.30469012279008173
P 5.169640217735134 1.3463630683267291 5.293912778410823 0.6395482845231114 -0.160297226362582 0.10404303185554338
Ni 4.408181592855073 2.1638027380183935 9.683117730246165 0.49561253023768836 0.6939232597295663 2.7073693148412015
