# total energy = -381166.8836420664 ev
CRYSTAL
PRIMVEC
9.23393259827965 0.00000000000000 0.00000000000000
0.00000000000000 9.23393259827965 0.00000000000000
0.00000000000000 0.00000000000000 13.51479373779037
PRIMCOORD
 96 1
Ni 7.6077171364354355 4.077473845953969 0.0032863566591745845 1.0171975732797385 0.050571285189648395 -1.4229251083298202
Ni 2.372926799432497 7.016856248806148 9.198290674644104 -0.5015492074370975 -1.3312753079323072 -0.5993287748814323
Ni 3.2103706267262915 4.2796508031122364 2.3959026708552513 -0.015083890916315958 -1.4055693906601923 0.210617828994005
Ni 0.19610472299397114 5.427761063227806 5.640169217852681 -1.1572309071869618 0.14026344764015844 -1.3014114304933393
Ni 7.391412262197827 7.510696205224568 10.45169269951823 -0.07906836418807672 -0.1817613097736289 0.49259765467076455
Ni 6.254271914167392 2.405651857033269 13.230010383913022 0.4410565493686791 -1.4247603617663462 -0.26987558621405777
Ni 1.3106551779898326 3.282109050118051 3.933264748304833 -1.0364957593877182 -0.27963549381429903 -1.477147617118811
Ni 9.194568476359999 6.240199400684442 12.115999190588685 -0.8970959452994357 0.5357582492186386 2.8193632261127055
Ni 4.68468802845091 1.7056643523819943 1.7067290248259472 -1.2157312174156998 0.5508943335291286 1.7796880405557414
Ni 5.540331937158678 7.117182927934925 9.096172612565399 -0.7140349428777768 0.6623737670580593 -0.5921646530328253
Ni 0.8890051842737466 0.9609292097134117 13.425677418495514 0.7755519284456515 -0.0670559131082329 -0.6611681767857323
Ni 6.380010376173518 0.5145350464564711 11.296084137799276 0.43680034519548644 -0.6633628704442059 0.20895201125580787
Ni 2.231342908858954 3.6319273577217883 5.899477440214599 -0.6245662092919825 0.5865671043403898 0.6532373519744299
Ni 5.790830064301382 8.232457323256943 6.852703703243314 -0.33257682189802074 -0.6808276028878726 1.0169702877602809
Ni 2.5220271112495576 5.401130401229887 4.453313375995339 -0.37870061283927686 -0.8487730898243319 -0.3196583140641398
Ni 3.2327998493313355 8.890365796450341 1.54121355079193 -1.7777180613135641 0.16542863405187636 -1.6375996238917023
Ni 5.494780946993721 8.29618992697041 4.375252478862256 1.7376008815777044 -0.006688210653452998 0.4130968309309595
Ni 5.139015986710837 3.889600250596941 1.0072817052394711 -1.7505808387771398 0.1105936884898676 0.2978283626732419
Ni 6.967427006893921 1.4130040883868291 7.069696505469426 0.2734548189248839 0.9394422714761305 -2.740600051869874
Ni 0.2522507275751601 8.466389775079165 2.1650968286559467 0.27000722669591565 0.035898770779138174 1.4108121271163703
Ni 7.312175885428012 7.231480547286605 2.5719466749898325 1.0397278931717706 -1.9285785677432785 0.6318300899432473
Ni 5.495261111495763 8.415954034499196 2.1717323327168705 -0.18033357618816687 0.6593277811428839 -1.8252706142815467
Ni 7.192836538804881 4.001220029456459 2.2537813653967294 -1.5776039600643605 0.33612185893680174 -0.17657745157984425
Ni 1.6753585851569004 7.607643264973582 4.5628102737198635 -0.6570533832864104 0.40469395157924504 -0.641916784755288
P 8.461892849838879 2.1547474368503754 5.5022918278776 0.2535601368834859 0.3559144681826967 0.41784128759448036
Ni 5.805927544317538 7.547521128958168 12.612627794692047 -0.003782092750251551 -0.9574297091924866 -0.9491751824931781
P 5.309566724263393 3.38950892171923 3.2547950770979943 0.011511085963393078 0.7080116195018322 0.08632350308859327
Ni 6.201860111982859 5.777634774427932 0.8909766289119422 1.4201840552495735 2.4223255055271378 -1.1526877679009695
P 1.000274997082737 4.0382573336428855 1.5209275239738895 0.043747320289279495 -0.4923796251226875 -0.18885395495435217
P 8.294823304926135 1.985507917745706 12.324221603506329 -0.08277306673317358 -0.6424207209749 -0.6183914479398381
P 0.05763174435770255 5.993136296517892 7.841702221674227 1.5351630172913304 -0.6375191699082245 -0.11061322887389337
Ni 7.370885229735492 6.790846511267634 7.631628405243899 0.8394006474704964 -1.0625441197353378 1.0029498051114727
Ni 1.7235043104194356 6.041457466502328 2.392578455071877 -0.31549158428095986 1.8643213004261054 -1.103481481379648
Ni 7.927257378612273 8.362406458588676 6.149825977647049 1.6682276331902044 1.0606574442355863 -1.0855511221534724
Ni 3.3862031738013196 7.9405634756785 12.899898212151781 0.3960139073067438 -0.04801663708859472 -0.7735120151974871
Ni 9.04912480190465 3.6341527355101024 9.99635270223092 0.020054604658029978 -1.8263173103785064 0.5933602160028233
Ni 8.973554296429278 4.9466547000462535 3.1027805361108416 0.5589202891573988 0.8413785971324735 1.7024050504028616
Ni 4.050815482157854 8.273520622114345 10.369320479192766 0.6053649537731832 0.05121688919344728 1.4940878445175754
Ni 3.6572652691372842 4.069338751217433 7.663537183191198 0.5213032501355732 1.3776736926911886 0.47680542483351435
Ni 3.572313088006612 0.24667712577836948 3.7203662718519106 -0.5531605038554861 -0.4706052095600734 0.6060966897328852
Ni 5.2367109950111095 0.3738413069982539 13.563717325686671 -0.9561246172278178 -1.9121301923792682 -2.3943786426052247
Ni 9.154077681331955 5.870629710967823 10.059277336830373 0.5549520485382701 0.6152025086888953 -2.837617287226887
Ni 1.5889843783855628 8.27586604102817 6.941144464159982 -0.3022226350861957 -0.3256181311920005 0.31104588980478043
Ni 8.665611873763323 5.781863915619002 0.9323584984485842 1.424713567688811 1.4682264033697812 0.4634248897615502
Ni 2.624459127041139 2.8784384468236537 10.524618606659272 0.2671376184576044 -0.01761488486828579 -0.9582568330794722
Ni 5.1160604299400925 3.522643763843364 9.45027361817005 -1.3246392906730282 0.642610725498519 -0.09645673486785324
Ni 6.788214840439129 3.5517029501496924 11.153853871934523 1.6769472724513894 0.18234777840471822 0.28132419437063166
Ni 8.36207403701034 3.6765364867481227 7.11809339370226 0.2141798353136505 0.11018385464595863 -0.10461150276450372
Ni 7.146676109079639 2.616462541295578 9.003650453381365 -0.9792738016507715 2.1920490217619406 -0.4277423487582762
Ni 3.917874552621084 6.337275735491698 0.955854240284127 -0.6413408576471601 -0.1587964734473394 -0.34969419830459775
Ni 2.0763513479591356 5.947880792200345 6.751072269419562 1.455841142331551 0.30051516547678564 1.0616475760629975
Ni 1.8362783308704027 4.881730919010411 11.34443947333482 1.0765856854300684 2.4404399557396617 -1.7265155702978199
Ni 8.924937640597431 8.772623920189776 11.83790545547761 -2.0706577284359375 -0.2259295196504109 0.5885468537745799
Ni 6.061864457839151 4.950662226851766 7.11021407890239 -0.5565466467188996 -0.9125981547000928 0.23154198074118185
Ni 7.805951204317312 8.158225738027653 0.4042514176632151 -0.3294202785469101 0.5174982745671861 0.04522339061417373
Ni 4.07279224205905 5.6066685099024545 10.287096001791008 -0.40771936866913006 0.003143944945620392 -0.5974973780996484
P 3.608482402516269 7.390193383077256 3.0117173382984 -0.910712764751922 -0.9193948659069522 0.2892755880072244
Ni 0.9373457455169185 1.1522562959120555 10.954916178378499 -3.531841366026324 3.1579245477289355 -0.1842881899605407
P 6.956300117952349 5.605071039539888 12.13396011314491 0.22108221886043863 1.4643049568281878 -0.4616544281246888
Ni 6.544577525316 6.5013627201321365 5.3375326129343 0.8493132785985179 -0.5745942482492297 -0.6429218289810347
P 6.857395464464237 0.9302263833808588 1.3078536027990668 -0.014900057040284019 -1.1274176804802711 1.292411026766942
P 3.2739000839196635 1.6576940718413593 -0.10420862444913981 0.17420740868577095 1.1478962600495972 1.7053726176716177
P 1.151314434773433 1.6511656814001219 8.764154557088357 -0.47054350308420256 3.6863566955998066 1.1921544585370243
Ni 3.6046687882981203 2.434831084465108 4.204087684783049 -0.3686164891303974 1.1418762791077626 0.45182252963593156
Ni 0.6557107972032775 3.500103734045541 12.455463489420485 -1.9632218688487608 -1.611259443335277 0.8293851722160233
Ni 2.5785110777687237 4.116570317139541 13.458504972749607 1.7158598903561868 -0.21285108919989795 0.8874373391637491
Ni 2.76973659070732 1.8167762649412746 7.136730240134438 -0.12534667842932604 -1.112724854354787 0.4653519315809341
Ni 2.8072078897321315 0.6772720301315512 11.694040783519362 3.016115095757896 -0.7841805506549269 0.4873693163922897
Ni 4.8831898803820035 0.7076950683023367 5.947279663179518 -2.2413468395558045 2.642114202387133 -0.5760340660195499
Ni 3.70599273216191 8.629082435877134 7.923358812212993 0.21546281579113213 -1.0313473824175594 -0.9912880525028281
Ni 1.6123646960619606 7.774398856173452 11.33162739166973 0.843488958607257 -0.8098381033220311 -0.6151932527175147
Ni 8.0627284057175 0.8139240772331494 9.667766899550212 3.2635135839153606 -1.277061540894065 1.3298997677410194
Ni 2.199652051724121 9.368009434857544 9.509847258581205 1.068842294039224 -1.9402673169351168 -1.315401059904212
Ni 9.182370451221562 8.120588228213673 8.679484934299271 0.2628675303273408 -0.39835155430098496 0.5766326188354972
Ni 0.7468284752188353 0.8874215648102781 4.248308065241384 0.7683965483477927 -0.08872774165471171 1.0966832275108918
Ni 5.041764207181681 5.807238762765425 2.9318724453615728 1.1054175220600961 -0.345561921303779 1.7377433206928394
Ni 4.424328061150863 1.2885953126940526 8.92979191903443 0.9027246043401227 0.6739974673399166 0.8411739373208352
Ni 7.053311815230484 4.285089589491146 4.667131552148328 0.7445806768751176 -0.7662360503613642 0.2112482634891523
Ni 4.90331985373688 2.2931640884969813 11.363509391212109 -2.3902448229425093 -0.7428498102269401 0.2860455111057009
Ni 1.1039258919948884 7.8558883125297765 0.2881457942826885 0.6853036363813553 -1.219424349996571 -1.3857179031519038
Ni 1.4812059155423882 4.2533156269617285 8.485547415317406 -0.4490925322992782 -0.24092342195608188 0.12562949977706753
Ni 5.865024713799745 1.291162345993436 3.8547837072324627 0.374702033202845 0.9741452221749546 -0.4295197523736732
Ni 4.756001690937016 4.528117465053989 5.22427842798129 -0.7654163826735463 -0.849970966787175 -0.5697196937657478
Ni 7.93326866882054 0.06965432477423897 3.6815108063106328 -1.699548040570041 -1.426881007653775 0.18641166406144669
Ni 1.5017052462065288 1.4362181952740585 2.1300531305462713 0.9321102565910914 0.5605853355646474 -0.038863252724100815
Ni 4.976664981423937 4.721429846789926 12.178329159920223 -0.5161767275422852 -0.009648578833357575 0.6615106477268156
Ni 0.12678836015770856 0.9344462906391977 7.178017923557218 -0.5511894961720443 0.09914585166424215 -1.3777757654866918
Ni 8.60432626222373 2.138597288502816 1.2720693432843175 0.36864528548580383 0.7348683346833602 -0.9988447818041637
P 4.266686361557077 6.47190647471835 7.40102570956469 -0.2876910171289239 -0.6175823217749816 0.5651346454982268
Ni 8.110393966477993 2.2994893324181236 3.4763023490365823 0.33394927676551517 1.1668751151449452 0.4605162007551875
P 8.560483549614117 7.255618047446994 4.347425099182322 0.5103112699004436 -0.5727798207483104 -0.024016417519255415
Ni 6.738166925033885 5.156080294398824 9.333154108975593 1.5833789148749247 0.011002521758090729 1.1773269066058887
P 6.414886940100752 0.31951254037864285 8.670280550152418 -2.975756232324875 -2.7095346979236368 1.4214855476698165
P 2.418006859028143 0.34730760129401633 5.517658015336246 0.7045318884833479 0.6549728466082978 0.3571581107818107
P 5.172258144544577 2.8280858116382674 6.895140087897904 0.15698821659400705 -0.6080355586268109 -0.1377368245635628
Ni 4.063807625511208 6.870415309615786 5.276054012200615 -0.6567762183656236 0.05793543886420345 0.9568581529597329
