# total energy = -340890.04389265546 ev
CRYSTAL
PRIMVEC
9.05311806033929 0.00000000000000 0.00000000000000
0.00000000000000 9.05311806033929 0.00000000000000
0.00000000000000 0.00000000000000 13.25015338450836
PRIMCOORD
 96 1
Ni 6.619920653497737 2.0830500662644247 11.172754604002456 -0.0746704922306972 0.4174407097219521 -0.5152516446248546
Ni 5.062385990839338 0.563925973383099 5.726279211005079 -0.3812164372825951 -1.275917914207925 0.09129833059536534
Ni 2.9081874688668825 1.659291710903503 4.982972038240935 0.9421588990763452 0.634946524085042 -1.2222991004412047
Ni 3.5759635714162825 4.530252757850112 4.635924374392474 0.1989599330401025 -0.21153494149163565 0.13207217007861768
Ni 4.08471260016911 2.9528012352149133 2.4736839675484776 0.3745976464144968 -1.2376673553671589 0.6407957837769673
Ni 5.266868770973868 4.8246511076617224 2.7195938164347515 1.5408837218251914 -0.47835554292945365 -0.7721999812542829
Ni 5.382078752821482 3.1340537141219595 -0.1372688095837359 0.3566305204131148 0.5279318111956843 1.1342226192172464
Ni 5.767614843263292 7.875135487944665 12.18453652269477 0.5090159481277878 0.3177302438034915 0.7463097437510825
Ni 1.9320802676402848 6.732423753012141 0.31037257682481967 0.8599609881203512 0.30335674869063883 -1.0711048648211552
Ni 0.9010722418876399 0.150659276670865 -0.07911972625783574 1.210117213663032 2.645161216743573 -0.14931887297420735
Ni 8.247245804138478 -0.054333194016708844 6.9364285285072285 -0.12436965922803742 0.5852530135146566 -0.7329410357536602
Ni 8.865193544273193 2.455785047612055 1.23693930479458 -0.1864044649725951 0.026018792661264868 -0.4503865685203534
Ni 7.267535461879714 1.032707296033393 4.7367580045841065 0.7203955949884819 -0.5199901877511045 -0.23617536574813516
Ni 0.9900037376195007 7.759563381370201 2.7022362729649707 1.0419200157270831 -0.779093880160639 -0.9659146067350461
Ni 7.774582504416342 3.9557237724648195 3.517929462691157 0.05232606309722601 -0.32433669337641563 0.11731018127809474
Ni 7.7807295716546365 3.872833422488649 12.366037057039708 -0.2516014704952183 0.9681792343995068 0.6458390026278297
Ni 8.43096073118811 7.414657685281063 9.12280998026674 0.2319371592970715 0.1450385004312986 -0.3103403790973236
Ni 6.829726667116978 0.9573581934938922 0.34943678173386034 0.05738316590515924 -0.4041905295802652 -1.2102241715545414
Ni 1.9199400361726087 6.677661441194113 8.938262166345352 1.7221894321186404 1.267695269187817 1.4484448498674798
Ni 0.27736128672509175 4.907505245165208 1.1524338785366541 -0.11264131504751568 0.006661471180575624 -0.11173243008000112
Ni 6.662280193421122 1.9597284905353511 6.887522678834198 0.4701362403434548 0.5286380932340895 0.39315818302550354
Ni 3.524342691603686 4.644376365517173 0.6345484429253785 0.9531179691910102 -0.4432149904725786 -2.171575841509253
Ni 6.354329325707118 6.01270085839598 4.533685700260659 -0.2468403016611491 -1.3128525824507453 0.6036106900862379
Ni 5.444327993367152 3.0820707095825126 9.04107028161014 -0.14347835503303033 0.10453796921409093 0.09388820280972864
P 0.18712795260020193 5.783801818553527 12.18064096594567 4.00030458954273 -1.6504710805377316 2.2058987831608396
P 4.128375789109157 6.495096260152233 12.512053894712345 -1.4188391111859049 -0.4094299236023336 0.14804206314431276
P 2.5401691620864852 8.788667536371428 1.153187097968504 0.6380516453729269 -0.4894326266792216 1.0825843262156645
P 6.516407300327408 7.79648199727265 5.625816758658468 0.9463048029239186 1.9834813904287452 0.07486872428443235
P 4.98727226937229 1.1872983419260414 12.35489357388269 0.34344744606393757 -0.5015492074370975 0.25727872338565366
P 4.26983981365346 6.532177832181765 7.915218168647975 -0.6944757897989265 -0.30084452379174637 -0.2117007776455386
P 4.765860158257479 1.1925763098198934 3.587147793605072 -0.0767533429016549 -0.7141277597018991 -0.5435186098903478
P 0.427808720430749 5.511864254924845 3.3630079779852573 0.027235438677185354 1.5278680262918138 0.0014966391501845192
Ni 0.7955174105696885 0.5521451507068222 4.8686890956940605 -1.0941818012452769 -1.201315556211002 -0.9613251875921508
Ni 2.0445018890911464 6.560695154421274 4.658595192916974 -0.22110535878889018 0.48914260624262856 -0.5817241744257917
Ni 6.013850604403731 5.79976246588948 9.046661487392717 1.4230667761140072 0.539330025730297 0.4118884124451551
Ni 8.984377844997995 3.0259594831569663 10.240698970485454 -0.8622670105457085 -2.9898427923249282 -0.06152521309799081
Ni 2.5433739659191157 5.627726061280789 6.801462832186264 0.2967988929674631 -1.251032463820155 0.23992814792234807
Ni 0.8893457379203906 0.3313821481648917 9.223869033100838 -0.41467086028629874 -0.5286447781023089 -0.6014653616084609
Ni 1.5330097655324235 1.3752682345161718 11.286931625066728 0.7336352336072075 0.194124202214356 -0.40851229688407065
Ni 4.141819669593497 6.840617568277018 1.5575690645074514 1.2676932123052878 2.317935117634505 -0.8899171681628093
Ni 6.11992599001653 8.228442477696746 7.787950338708043 -1.765621020939714 -0.007815382279360733 -0.39651990040888485
Ni 5.316742398979408 2.8439193829690192 4.807314386363736 1.0368577707128273 1.1602072162064665 0.16315809285014482
Ni 0.9985951467640383 7.592343235628627 6.707837294682599 0.19685445666132548 0.9279671809569955 -0.5171617171633739
Ni 5.593161256102872 4.966911806605099 6.896068822387879 -0.8543513552430576 -0.3248701972823824 -0.6521209789817994
Ni 1.0479708532701584 7.654492891874413 11.17900849803517 0.22626093484790064 0.12954451856075752 -0.19977960072792045
Ni 5.122725023450869 0.6859031610637387 9.81037348320309 -0.9501365179651831 -0.9141649849665805 0.9860962238892437
Ni 8.459170247409796 7.417663320513925 4.36034745725894 -0.15098520493303674 0.09347914029676804 1.191126274382826
Ni 7.653370305221175 6.441447481869272 6.864229005779514 -0.3057854127367895 -0.6918818038195053 -0.10172801056912158
Ni 2.485271053495889 5.65163534637112 2.364224526363256 -2.1856215209690424 -1.4872697931544774 2.3234712169613854
Ni 2.46051982841563 5.326872838213062 11.38712882105092 -0.2909910280364343 1.2277446969368082 0.3403734351243041
Ni 1.325865368655538 3.4671179316430734 3.7149053972380695 -0.16133338093658023 0.47896463726836225 0.2547238181742839
Ni 1.8293183232781711 1.41331849019003 2.601905996143661 0.1330569025893902 -0.9579321027502019 -0.6365508924576844
Ni 1.2709219944740855 3.729486349364721 8.152952146513773 0.30637470958135626 -0.07922905813565709 -0.5719254431678151
Ni 3.9696565213304082 3.090318100236542 6.979982174717404 -0.100245255376008 0.4194006616618003 -0.07710892646886075
Ni 4.250140228512771 7.2195992011628265 5.683957694178014 0.6000671957093536 -0.320202616603384 0.32359081634932657
Ni 8.76398873623654 7.553288083837758 0.24805362726923136 -3.0669128951360536 -3.5566129165440485 -0.13359760558420863
P 0.4210722951995051 5.899980484045466 7.798431133614925 -0.5965663816449468 -2.1158458949368013 -0.06618996556351181
P 8.87278005730072 1.8698400802127868 7.956107482180344 -1.7253732291632609 0.8501154627848391 0.9121494971984484
P 2.1708291000530826 3.5074948386869482 10.297900192338822 -2.488550438093643 0.014818553070071254 -1.122118122644229
P 4.22651159008575 6.3572082172855815 3.649131777788323 -0.6270354967680815 1.1283116530494504 0.9243041302831114
P 6.860842234271641 4.24080646367819 10.33942594007863 0.7220022773539695 -0.4815529668208287 -0.19306233660874492
P 6.427849698376021 7.910994889021076 9.967216039584935 0.2310992367768084 -0.563731594503113 0.7081972531500772
P 2.5930936909157443 8.634737368105283 5.602589173366434 -0.2702689649977345 0.17523842105344659 0.25716893728066675
P 6.904405838911804 3.9179722696906136 1.378215024480921 0.5045329726557698 -0.1974175282536471 -0.0978063069172122
Ni 3.178830436597073 1.8413137048551071 0.5036303957387902 -0.9058099281336659 0.04444023259124605 -1.7866971248837231
Ni 1.533960342940407 1.328327816798124 7.002255561354185 1.7008593031822965 -0.1654072938956377 -0.11420300310768074
Ni 7.460756163009182 0.6451478336803043 9.169993926863595 0.26614594396829644 1.4708939228996154 -0.02111569893269267
Ni 3.0147245635064173 1.8226823876586287 9.003837522507146 -0.48936372111449916 0.15975163827175715 0.1517961308701063
Ni 6.553733306547565 1.8479043748837936 2.494818471919313 0.310381259637588 0.8553126907150626 0.06443775875909548
Ni 4.27517210025634 7.03578468981331 10.187486552498347 -0.5489662632684804 1.5574015169745565 0.39108227433308135
Ni 7.690841161332071 6.539574229727695 11.293781214275112 -3.1331743373674494 -0.35856707531419535 -1.0378399321204386
Ni 7.646861113256031 3.8377706958113107 8.10884263884788 0.7935234253224076 0.6628427362746778 -0.010356660643975711
Ni 3.5448661104979613 8.689418201859768 12.193030158163058 -2.0118738255285096 -0.14864267284278918 0.029734293839639117
Ni 0.19725024402750166 5.145719943605901 9.919183815815432 0.033576036183232495 2.051408650398338 0.2606000744494028
Ni 8.997794566127823 2.694479561315825 5.705026110786199 -0.594471446789131 -0.4472120274471137 0.3707918995151614
Ni 3.7545634866991455 2.701658684025644 11.246770182235329 1.7422563780718445 -0.3642666968021339 0.850886793733225
Ni 1.1618409736284234 3.534545555782711 12.471694188592995 0.3548682863063695 -0.08446253862045454 0.4476725120233
Ni 3.291107208157194 8.590947435510838 7.762231335295276 0.47739934966377134 -0.4611260664250446 -0.013230125537028828
Ni 6.002579472280496 8.292891625958033 3.5238384329215466 -0.5622925480637413 0.1379743944956656 -0.990831938802016
Ni 3.1793826768055204 8.594206558052495 3.4092775596468132 1.3489899516032509 -0.5025475667946248 0.22324271684686714
Ni 3.648144082595838 4.866585151031057 9.235132017417719 -0.15424536374154726 -1.0470395963418355 -0.6533707922285005
Ni 4.942423121951806 4.885542380481701 11.391554890524853 0.8138045441689469 -0.6600721155080761 -0.5383015844657826
Ni 8.321418001315713 8.94257054528306 1.933091500940016 -1.1653522507425158 1.420982639891469 1.418135657360977
Ni 4.74665849461621 0.34543801943760927 1.3459768706730197 0.2672934273091784 -1.1268759490441882 0.805509136929374
Ni 5.916783071371348 5.673471467400229 0.3701394523679262 1.0428232442676426 0.05490462245767964 -0.1904989467569429
Ni 7.799958394650419 8.939682600586423 11.503677759076064 1.126870806837866 -0.4314457657517925 -0.44840681908616326
Ni 0.19342620691195617 5.04433407320582 5.529276117103652 0.03818756681331487 0.46395839366751707 0.39490576184422954
Ni 7.569918661918385 6.220089689463489 2.353664969328284 0.35612504153160607 -0.7184035042591176 0.18476898625170116
P 8.829062549651645 1.6356268600037966 3.2446312154013324 -1.1529911580740013 0.20990640474927721 1.3397020985434218
P 2.2079468845552994 3.3843814846758145 1.6950125992718927 -2.3152226037993477 0.6915403613196864 -1.1782620168256484
P 4.765534246003313 1.263634234346211 7.773282476646948 0.653373877552294 0.3772106585573117 -0.05816683814871918
P 8.484591403234727 1.7014430291089475 12.320364075865639 1.594496364944325 1.4159977850823677 -0.027588708251546037
P 6.57106097472738 7.654990813373833 1.2428256422295414 -0.8113475979880219 1.9175788741986652 -0.9239989403378667
P 2.138880646026662 3.4823543295253248 5.933763099813386 -1.361942397998861 0.41962049098209026 0.16254694162870714
P 7.127547095597327 4.023902805412673 5.747744154189165 0.2810855959972643 -0.1760377770262904 -0.2615125589613431
P 2.8718754118819083 8.903470127901333 9.978862876112277 -1.0270878358102569 -0.6335105629694637 1.2500970964900793
