# total energy = -340863.81389973016 ev
CRYSTAL
PRIMVEC
9.30508312449198 0.00000000000000 0.00000000000000

0.00000000000000 9.30508312449198 0.00000000000000

0.00000000000000 0.00000000000000 13.61892972491107

PRIMCOORD
 96 1
Ni 1.959101533200183 7.44308956877359 7.114406113022786 -0.7970944305031176 2.0543353371268296 0.9992587294131305
Ni 0.16524432095095706 1.4107715872589155 12.676391217440695 -2.233841789428011 0.24869252437853942 -0.136569543728339
Ni 7.337988653429329 2.8065340752305103 8.634728306437616 0.40798367807411023 0.7079401428339485 -0.7390371213490692
Ni 2.6305842559968107 0.5280718491908477 8.414891992548789 2.5682317532753705 -0.9513097123376777 -0.11915829023042702
Ni 2.1204702869762055 6.135697456457104 0.1207064704681088 0.04665729484722287 1.140841667195661 0.1807583224304113
Ni 4.70436163520874 0.7717226626494464 12.601187534588787 0.00688824247940104 -2.906861980456323 0.4480399226650477
Ni 2.848239458371101 7.2622731909984966 9.513026740126946 -2.3980707467448314 -0.015063322091025672 0.9178969412051868
Ni 9.274227597076537 5.575652410700128 0.12043662305376762 -0.3235699904137202 -1.930221245553024 -0.028047135945203305
Ni 4.297431734382248 7.192336185267867 7.709159119313989 0.44540557036599415 0.3075283635698252 -0.3342282414585147
Ni 1.12277926057411 0.8191450889407693 4.791602373756916 -1.0407067121452722 0.18616123861353748 0.9058577506524658
Ni 7.742880741023382 3.9885308856276285 2.168242584397847 -1.3180616374555107 -2.6555811265253166 0.7781497710798146
Ni 0.0169734023620599 7.897717326355697 13.250251520303614 1.4034577436338282 1.2880026132866012 -1.3089715022287844
Ni 1.178488794010683 1.0948267904816655 1.4251665510515292 -0.3007841028674562 -0.8414660146399573 -0.5709144854047974
Ni 8.220203596659909 5.997088936318271 2.779514904988356 -0.5332704497997783 2.2321690297112786 0.9464876083586862
Ni 7.71233215270331 0.5458948056539196 4.969275494409098 0.7644547900912254 0.16568008794105013 -0.019233137197999135
Ni 8.755245883715686 7.604504847965878 7.24427622947859 -0.23954942442669067 -0.35941014004078103 -1.0456429731046248
Ni 3.9476722650630727 7.775597413741436 12.777388591070322 -2.258109146615808 1.1411818241438991 0.32665762820010835
Ni 3.271778932804455 4.489339771395089 8.240787371324187 0.7376898632925553 -1.444940436258647 2.6524610928390966
Ni 8.131321441425877 5.920796558725744 11.754893004240317 -0.2842285125016202 0.06218264417633161 0.1478147776248551
Ni 8.395911483729025 3.21467363687991 4.8307842183192555 -0.41577514909407104 0.6539271789526028 -0.28957100776045613
Ni 2.6798267565724485 2.0831103777148328 6.578379348158825 0.6778626067222778 0.5670897123420685 -0.25286542480930646
Ni 7.841356437091404 5.653480127029424 5.268210598999601 0.18908535423886788 1.1357136019404763 -2.094106960597813
Ni 2.5505512349365196 8.560285779395814 3.42768001966093 -0.7869527140834254 0.21852499965622363 0.4914332020490182
Ni 8.752724206154083 4.524717697923543 6.943079989657574 0.36253917258806595 -1.852455402226455 1.1336086397823317
P 3.6536130240972176 7.102830589455874 1.498000229198863 0.9096012768552979 -1.321991054416904 0.29084884603161526
P 5.680846376876921 4.157259960256887 12.38715200959997 1.312893720101326 0.48093127407642977 0.1248057183241915
P 6.832666802284093 7.74595141849692 5.286746324839863 1.6449306103354768 -0.49647153580387404 0.5022696305428898
P 7.830060066022087 5.092039318784478 8.773750902781213 -0.23528807804717541 0.3701900042651044 1.1450217667152796
P 4.9928006058896965 0.01109538127104886 8.240582659492619 -1.7831582584925287 0.34638467431539055 1.4551446304851585
P 4.414043037710648 7.5206567427717985 3.676403034000818 0.25249312907155225 -1.909674531749924 -0.7178162642970799
P 3.820481082075848 5.385679831003941 10.04992632180005 0.5080993498507894 0.48060551530589485 1.2354757470324789
P 7.843896724819513 2.3026638170727645 6.61837817903079 0.6411307985188829 -1.2485215244728434 0.0014408462115846152
Ni 6.555421846756668 5.092830250860994 0.614130842165875 1.2643770034478612 0.7421427568575863 -2.771765164618768
Ni 0.04643236543318837 2.3731032972990644 2.96512712267212 0.2194166582325576 -0.28600643033764933 0.017126632377957602
Ni 4.117704051347773 2.8077716513031783 12.696860539580962 0.25874759462169633 1.969584834952311 2.3296418645484716
Ni 6.707718144360876 1.5677111214064416 2.7971098869117257 1.2075949614618104 0.755270552488796 1.5140216073270247
Ni 7.846734775211721 3.6640347173407384 11.192158789423184 -0.7754377714652904 -0.28807282594837486 0.12246601444742133
Ni 1.3784922534537591 0.1274815015847229 10.439345916960777 -0.2893457791235275 -0.25381493320676934 1.2121648402206802
Ni 8.155021488471634 0.29176739896060616 8.674141847572958 0.8414842694724024 1.4184099940682862 0.7825550992363619
Ni 4.290946091354807 5.382999967027036 0.4029389506192183 0.8229949524189633 -0.1891257205585001 -1.203637262365643
Ni 4.922686803577256 2.552402946503895 7.850931367758889 -0.7404782246709698 -0.7036816246679107 0.5721712406300339
Ni 2.546242981390314 2.0176305068624587 3.3153239309041926 0.2931831505917467 0.48975118636090487 -1.3480373578819944
Ni 2.6635335557961937 4.8556902041546195 11.816996060380127 0.11128017303393092 0.07510706554748356 -0.006679726013020755
Ni 4.72321373387961 1.4164569931265865 10.385496469666508 -1.9246442656858789 -0.2886847485007609 -1.2522884477144434
Ni 5.179628067446321 6.332881475674478 11.814802852257362 1.412512911857561 -2.1559918710280677 -0.8660704434521986
Ni 5.84711890952735 6.155452148203528 9.575224708115936 0.9077030313913206 -0.876875761597819 -1.0100861590459378
Ni 6.311945038354903 0.7432453858615246 6.887024307123983 1.4207306717816628 -0.20137342757760157 0.012645970898784671
Ni 9.269668106282497 7.588928138600115 4.754000532330962 -0.7052944776809853 1.2779843098186505 -0.9675850524589336
Ni 7.813925051661137 9.363798328471301 0.880841512942415 0.254346123119891 0.6238411582004998 -0.5215853001523663
Ni 2.2251152532410625 4.569800826285025 6.413358349205944 -1.6130805557044154 -0.4834383567689997 -3.4061007945926884
Ni 5.756115195311602 2.7287342741509732 1.1423227269306881 -1.175797871555872 0.9550990041767808 -0.8133191198920962
Ni 7.584647800303669 0.08735426056386489 11.466403786109796 1.080793809974145 0.23192816043600703 0.26953954303087774
Ni 1.9030477116832438 5.1383600232186275 3.758361276786184 -1.9300605516054439 0.39147385334454515 -0.042331413778359354
Ni 3.0327220389479335 6.748986188588569 5.42102891177431 1.8349719007297107 -0.3165308241787516 -2.6249024664945373
Ni 6.776082591021725 1.8303750114761894 12.759902478621013 0.6228620821166821 1.0397451195629512 0.08541693211392386
Ni 5.5524827533998 5.386647559662268 2.565016917361857 -0.6179484468651487 -0.32594671817601284 0.8651669578013229
P 6.695072536219853 1.71077677642353 10.35552107447483 2.3245726775556803 0.44503944527582706 0.5276348487805558
P 2.9802506744834547 0.12841480143501324 5.555869803703944 0.23151961214367867 -0.7964328856597186 0.9552460712776064
P 3.51247352131353 1.9409566208565523 1.270955267313825 0.14871440662098903 -0.18105219952174625 -0.3615816937708031
P 0.5749434145535844 4.058365535442474 11.960553023792981 -0.3215046232442592 -0.1623505093471849 -0.0005437883186119667
P 7.863595586066419 6.98182728683199 0.8374863385410414 -0.4232740285742775 0.4261528927839693 1.3801206115697844
P 0.8795071640039143 8.607229924407925 8.586626609068812 -1.2642402207596808 -0.3304379211781471 -0.5662114235021732
P 0.11230304978219448 9.150590955892014 3.1959955432658744 -0.17024251050075195 0.3527144731881603 -1.5178427808453279
P 7.115978672092567 7.523885606660639 10.79346481778405 -1.1839058453749869 -0.6155166974952044 -0.5185544837458423
Ni 2.8738563525670067 8.878110202990198 1.0158471048456301 0.08614224031572261 1.472724805460767 0.361819520813222
Ni 3.896131408923909 4.183379328948463 4.1490482242859885 0.13778773240615624 -1.5480136480017532 0.4098513274104683
Ni 0.896077656261113 7.170227307458396 2.335564730439231 0.45777643322652134 0.1390303465640057 -0.7949668426371534
Ni 6.7571746618513355 7.953622266540586 8.513424449624654 -0.8797047464061818 0.38728886872892004 0.24269645469610462
Ni 0.6060456553272181 1.57205659528566 7.64333868241455 -1.4802272844853992 0.20113071543917618 -0.43826921643152905
Ni 4.465974707346445 0.8170626113087157 3.35728427332592 0.13841559579814228 0.6315161582472544 -2.019091169212555
Ni 4.956566611701954 1.9604600753551422 5.427007427764455 -0.9527009362582495 1.0246650853013772 -0.4122308833862384
Ni 5.682614342695018 3.975689870738289 10.034237020926925 -1.1073494489754865 -1.5560331758721202 0.8554242765922624
Ni 2.8391763072825387 4.126776507519588 1.6421434128566654 -0.5028854097500178 -0.4172900430767007 1.0802047702398945
Ni 2.72120646179918 2.5021182766039054 11.114122639229018 -2.6597771668845356 -0.5880292907082131 -2.012765226994527
Ni 5.428250586887074 0.22234961687550156 1.313500899472175 -0.9305819928720231 -0.023169496137927837 -0.6728682388314798
Ni 2.184079836094698 0.42686604169635267 12.645911486736697 0.9417092131334361 0.07715417788449938 -0.36334752742197424
Ni 6.5347831721011955 6.208854020993321 7.095217170338152 -0.44851480541893723 -0.4201943612076892 0.16220858445268194
Ni 1.0471382388093027 5.71085527036831 8.24157737289238 0.0497305344559079 1.295036380204931 -1.2909205582643444
Ni 8.992748828668933 6.962174951001351 9.652103305953412 -0.6676486423037534 0.2558376200637529 0.3485451723018191
Ni 9.202336523862748 2.096705104347676 10.07719114624009 0.7003289061455938 -0.9693125766730015 0.4719311274603485
Ni 6.199279090325836 3.840393960237576 6.238777307718782 0.6161954687297839 0.5285241933640447 0.40788829014682654
Ni 1.6937577791535297 2.925667056120512 13.510291376895976 0.47823830062529893 0.6724105824687711 -0.1536331840788451
Ni 0.92338621459244 4.204390206934062 9.69546592442139 -0.0647851147961852 -0.76587969546321 2.056387848780484
Ni 5.44306427942608 5.7574644323833075 4.842169918187802 0.4063353438374099 1.3005863634888826 0.056313072769432045
Ni 5.062235137124657 8.997810793958642 5.050103169579208 1.1383651806307105 -1.7804200336257596 1.925559835521613
Ni 4.855987966818721 8.191702126655528 10.071416411573189 0.5999059875411411 1.211076492252508 1.3928038634644078
Ni 6.091582056753948 7.640980774318202 0.05370521850384569 -0.1916320319201216 0.4751573477071301 -0.18899073764253257
Ni 7.274593121225659 8.546700357846223 3.0281141617209766 -0.21380188314894147 -1.2336960294242365 0.31972130609159133
P 6.008608629385663 3.4410942276786627 4.098480679855102 0.5918934016493097 0.2240230466563174 -1.4416689645962266
P 4.321010815345715 5.26779373126986 6.588783361744166 0.9609482638687064 -0.00025813875739310384 -0.34485666770663836
P 0.7243951482073056 6.019002407379425 5.8269957364841005 0.4575967131155474 -0.6269005138521139 0.5155056696171896
P 0.4429145187830501 4.650438677756771 1.9649665271746397 2.6528632133735215 -0.2530729128344222 1.2251124015202834
P 8.177837552608343 2.2734086353248797 0.9475142954678422 -0.05768938429166839 -1.4935286295799957 -0.43166765195461143
P 1.8496737541432102 7.601527221324872 11.893751831118662 0.26265978519190897 0.3713973943096442 0.10884405278861255
P 1.5660362064208757 2.95901647449978 4.884034418252022 -1.1215925891580618 2.208174980789526 0.34770750689187213
P 2.064863109455417 2.528042238547164 8.905064237649581 0.5485042360303972 0.6070379706002319 0.40268771978249357
