# total energy = -340871.23304095527 ev
CRYSTAL
PRIMVEC
9.21430481398923 0.00000000000000 0.00000000000000
0.00000000000000 9.21430481398923 0.00000000000000
0.00000000000000 0.00000000000000 13.48606649147810
PRIMCOORD
 96 1
Ni 3.936157604035949 8.073749130108865 11.00233814455262 0.12670910599449145 -0.6088611398518998 -1.199069954709935
Ni 1.358529489198318 6.798047028733168 8.039786123236533 0.5268246941744347 -2.3481923738571493 0.525959775070978
Ni 3.1778479438247813 0.6983180845190181 2.6774964383637956 -0.12727629135187113 -0.127909811170812 2.020463109859417
Ni 3.6560611600452924 8.371730540142876 8.218018425233746 -1.2553339194089865 0.6158535120093329 0.09317909255784597
Ni 3.7808873501479776 3.0910307619286046 4.063702935549966 0.999599143471685 -1.2714277396470555 -0.6111064842426508
Ni 9.052805895678418 5.558142502359237 0.09506951347187316 0.24532386501662265 0.9304426390806815 -0.7055803843525202
Ni 7.667287707077224 1.1491344076242775 9.283646350755447 0.18532485875517116 -0.3255947341532328 -1.7147674286229566
Ni 4.651150816349226 6.161983553219153 4.361178480238391 -0.9998837645916393 1.8800219989908138 0.44155740026449763
Ni 4.7225156087272655 3.317463093484181 9.787998707456014 0.9906733017369648 -0.2626546429855864 -1.1158510586885944
Ni 0.5689455563195833 0.6971202248664493 11.903544168440725 -0.3247881790915374 1.4680873066887554 -0.9394669540664788
Ni 0.8901534650169022 8.234501895483595 2.480371125354067 -0.8334827393241645 1.8900225618469515 1.6368059243458133
Ni 2.7226152043235508 0.9505661344484551 10.398943987486163 0.38423876904868665 0.36969789512003426 -0.5172740743715221
Ni 6.885481569065669 6.711837990968297 3.3281185158090314 0.3389724410117194 0.17989931686422567 -0.0923403987066345
Ni 3.201694565215919 5.748123043256644 9.441446852801844 0.7378495287988712 0.11167432314855605 0.8459487330016593
Ni 5.759585638701226 6.191202114436811 11.11187135261401 0.6154706747486175 0.7040986576006711 -1.213604143770368
Ni 8.551980774939416 3.406823423565811 7.82623446866808 1.0820806471063684 1.0416706187204383 0.3441200466509299
Ni 7.051910346332568 7.742292149938068 7.730402010740571 0.6730037359680796 -0.3475110746103499 0.7125712138480567
Ni 1.9057486357118099 8.012040929391535 12.272024226180918 1.7495739947791804 1.0016411136023782 2.115043967860796
Ni 6.427079108637641 3.238597856820057 -0.1782359877192207 1.143934704298688 1.3718285467643214 0.22533250949636033
Ni 6.427705681378984 7.553564754523348 1.107736378031501 0.04450785260438787 0.729039643816725 -0.7172197683636615
Ni 6.294171973032626 2.5885931378111455 7.83071169947718 -0.37351932574865354 1.221338536300148 0.08748358483496546
Ni 7.10595224527346 8.750788620045753 5.468410835785311 0.8020206641601414 0.44919897597015546 -1.0317983539120488
Ni 0.5024440741309734 8.328192948924512 6.806363860444004 -1.2079253482180359 1.8782235123294944 -2.805516807147917
Ni 4.833861270586042 2.20526883468412 11.992053096738529 -1.2318209238887108 -0.3603437075986439 -0.5116752401275058
P 4.68517003048218 4.360531636026004 11.568254037381706 -0.9223521487630632 0.9975903405717722 1.8853341552323466
P 1.0073538962852344 4.384645472262715 12.002828305028636 -0.12687005705238796 0.5408850289222427 -0.6775322199660524
P 1.3243536318800289 7.116124838015274 0.8600116304362642 0.6156853618625848 -0.4443035955510671 -1.2862156965895073
P 5.094847245965717 5.055290234515889 6.084346583414164 0.9041703356477137 -0.3602969135211085 0.5158391416972083
P 8.432683167848587 5.99606156272834 7.3118753767160545 -0.0013066346265654914 0.901149546543519 1.6637138044802506
P 2.3169738544386678 1.4452545280442965 4.524643015580435 -1.0204919277602942 0.1739011902992618 0.18434475423008898
P 8.174138983299148 1.2299438626475705 7.027090694331344 -0.4418214525591617 -0.3397203749213375 -0.7970327240272467
P 1.9439972158488323 7.49371784342001 10.05072065790141 -0.18396217407968965 -0.45670968252490374 0.1737009013629976
Ni 2.3221430795547526 2.9361935803765618 12.884979146135876 -0.8318876269229029 -1.3318090689485902 -0.058478712962183155
Ni 8.806728665820714 8.745213965508798 0.1806252570108444 -0.6220349582296963 -0.6037104488888958 0.7556531326391953
Ni 7.585234320876263 2.107505058424469 2.7335175700229306 2.478298678458648 1.9767479283596536 1.9826547807623918
Ni 0.7679653304413742 5.320938648235562 10.020498658867101 0.42931380701045424 -0.33886291201704866 -0.37824578469004533
Ni 3.9713193919913525 3.4220270268484145 7.0914867078229396 -0.8498043593023236 0.8850906933084434 -0.8053736397927742
Ni 2.5223054274989933 3.461556395383184 10.470204658217478 -0.6266493170732563 0.42427855857939184 0.40016855290506564
Ni 9.342752431735198 7.157017923692969 11.38058167989175 -2.7771323424679526 -0.2862177750175071 -0.1358087543029145
Ni 2.462458516395654 5.17222897952166 0.9189057824005605 -0.9039962719636948 1.2908542238027834 0.6211376432264077
Ni 0.874711211234287 2.29538473777737 6.181729808876499 0.0909733431557788 -0.380736412322383 -0.6245721228292533
Ni 8.815095254778656 2.964757925937817 12.886786071350251 0.5482694943117719 -0.8815361431879657 0.5733166670883869
Ni 4.213922828856607 3.8333812458455485 0.284155345351861 2.0038959495293556 0.7778746630415571 -0.14657319190827015
Ni 4.158590927212949 8.840305593312719 4.643050520806355 -2.100803141671066 1.498490087350329 1.2847967047547937
Ni 9.14440530187985 8.37050503757525 9.0531698607267 -0.30715066851543227 -0.90233559643182 1.0132367888597777
Ni 1.5570148336289624 6.609255133183311 4.794377973576371 -1.0178074389495957 0.11968459504754227 0.6346372203747394
Ni 9.009185375714875 0.7122197065023297 4.694432249888043 0.898176579958124 -0.06099787983961107 -0.28092824448379355
Ni 5.3932617283356565 5.052618086060158 8.259609033801436 1.192259873766637 1.0478996303492856 0.6362937821415559
Ni 4.784702953305624 5.793448209648842 2.0067669045044396 -0.5329601176482112 -0.10664550247539697 -0.305176575508197
Ni -0.012764576743873176 3.9220781459657563 1.6794333258299847 0.22052840323949763 -2.090495589097471 -0.6321165108354145
Ni 2.9975516375031424 7.223158205124804 3.02708256366097 -0.29549791476785237 0.9522363379170053 -1.074731148719833
Ni 3.8269865181618354 8.231276888726677 0.9964966806804514 0.7131890499377136 -1.687949279988848 -0.18716936816307767
Ni 4.465086355085218 1.2412129576867366 0.7371941588278865 -0.530666436518028 1.9057664549447693 0.9442065256339932
Ni 5.14994878998388 7.63138877472024 6.163591449445101 -1.080724133078474 -0.7886869231657128 2.5358962743674582
Ni 7.784161951947856 9.003583078262862 2.7152575817652727 -0.018811733389864378 -0.9628549939731159 0.2763344544655241
Ni 3.433922694628924 5.904858371642757 7.204783038054399 -0.6939605407254049 -0.23090229027465395 -1.7605664892349422
P 5.718139694722346 2.11360492834755 4.900162802355723 0.3169373155885509 -0.1885204828743334 0.7215677609197122
P 0.3258196683597086 1.7234712538109223 1.2199389702571153 -0.7212661705188934 0.3794534318449013 0.19365806121121484
P 8.673121243034197 7.549160316723904 4.320113087056828 1.14009990393363 0.7665263279082735 -0.3547016788215181
P 3.0371547204780693 5.130884392897998 3.2892378343476527 -1.288590367469271 -1.6203408368112546 -0.5610771875994014
P 7.2304927919205335 0.8276666555254015 12.307182328414312 0.9334978809672374 -4.071144652283744 1.828144336284916
P 5.80884531333686 3.0980152051335828 1.892283771786435 -1.2181274855620183 0.4429352544486307 -0.26134029504953704
P 4.16547401306271 1.8095052197804191 8.377800924289895 -0.27217466666087964 -2.9091716024261056 0.7292800419623053
P 7.050482129054507 3.722192227172108 9.566247242850476 -0.2450803815472489 0.8717232708626019 -1.6127347423292224
Ni 2.0208813769337075 0.4666299133801711 0.8221104295984863 -1.590863139067112 0.5839898305315168 -1.8221557228016492
Ni 6.787432149350406 1.1657293709648648 0.9317330164185681 0.5220342147643268 -1.763117280681254 -1.7855738099125573
Ni -0.15718498647107756 2.9100618113405234 10.261965971923418 2.312577452867017 0.5241286353995103 -0.03577818604087387
Ni 5.366908815979144 0.750443408015799 10.139660815674139 -1.008039560929554 0.41541570887212326 -0.9452573354960108
Ni 2.8242582029965204 2.8855517599879623 1.7651235982222444 -1.4314750547823605 -0.2113459654092812 1.3389554501853842
Ni 5.359205656982624 8.939387015190196 12.672425400801064 1.058410042962306 -0.9922239340535363 -0.3820268489990324
Ni 8.797809218561586 4.9269441798956555 5.531404432052899 2.230831027626145 0.6784562744422187 -0.36010048123958627
Ni 6.9978592330866585 8.39040793641793 10.335289725548657 0.027304087131591687 -1.5793350838228541 1.1367803526420936
Ni 6.948046700149837 6.382445015121925 5.636501873677776 0.08830710917752534 -1.2623016089760712 0.5470909006226384
Ni 0.47243676840362375 5.893589276603591 2.8114134617989754 -0.24980401227516336 -0.04968836836406281 0.09355164540591632
Ni 3.0560348314635575 1.0608152940098803 6.593446150060909 0.33064643764452734 -1.1898471505600863 -0.7819604030751566
Ni 7.496307063130562 5.849627827354317 9.506989125837897 0.7491878366298259 1.339428533167061 -2.690035194438128
Ni 6.990110002565041 5.1255769532066155 1.616291379251579 0.6632816235843092 -1.1269808500531688 -0.9036180626886696
Ni 5.580054119696226 0.9390390388687356 3.028552245311622 -0.4528394009362201 1.1097284907306244 0.16796065644511074
Ni 2.9090943093134487 5.87795260098506 11.845203796208114 -0.7734315396685388 -1.482152783642886 -0.06392379523715441
Ni 5.874755237143202 0.5018304014166574 7.125511450538904 -1.3750714791816512 0.1977278604052143 0.260102565987694
Ni 7.864003904944075 2.94890932130383 5.432187559891632 -2.12743565665693 -1.8177840760965145 -0.6216752608974325
Ni 1.7585685416311871 2.0811797889830155 8.290424434079018 0.9211321603130329 1.4101564958102422 1.111783316377124
Ni 5.852041975269494 4.354837195523793 4.001329462010208 1.6371509663900579 -1.4874232880132061 -0.10648712252066177
Ni 2.2672626788570636 4.193135356732029 5.333806425195657 0.2076734016537004 1.0841071906180941 -0.8794877452993692
Ni 7.093761719732318 2.388504504307062 11.240933358734278 -1.2927514408254963 2.4773926217046105 -1.6801123004429324
Ni 4.786426028344319 6.265358841235837 13.128996057391161 0.0813029099455503 0.18220533928958296 1.1847725642506564
Ni 7.915373655429235 4.712868231371576 11.364209702732643 0.044759820714193876 0.6417023547516367 2.2682678323163645
Ni 0.650001033286904 3.338619137809549 3.901937518053565 0.5801719994473234 -0.9773025368570135 -0.2362620119246705
P 2.6413911055743684 7.708881079936419 6.238547056489341 0.774971373351833 1.7073752499239434 0.3632233431392841
P 5.1837192178813005 8.106303269743677 3.0607838842707413 0.15793283989546347 -2.1646778288378394 -2.2062733928914393
P 7.367997865730407 6.766183961974839 12.727245908516123 -0.5344094485002281 -0.07480778913950988 -0.5665785770336048
P 1.5599357683202264 4.286319623396859 7.226508526429989 -0.4715593459432266 -0.07429356850725269 2.085055906139138
P 7.990516312865376 4.326272849962537 3.473862099737073 0.4756862236274066 0.6632466565813158 -0.036417876507401796
P 5.297036741014306 7.4065044464079834 8.977350873302107 1.4977182421813109 -1.227876337418666 1.3805373873922286
P 3.2979564097573495 0.7018296561620485 12.476014196430366 -0.6627640605179425 -0.7714394489391747 -0.2438233692116962
P 0.6098367991362732 1.0073170390651554 9.687540668408584 0.46392214111294294 0.13815360038600724 0.9227308722587205
