# total energy = -340887.2548240423 ev
CRYSTAL
PRIMVEC
9.13421991261342 0.00000000000000 0.00000000000000

0.00000000000000 9.13421991261342 0.00000000000000

0.00000000000000 0.00000000000000 13.36885414321134

PRIMCOORD
 96 1
Ni 6.529779758627554 2.2692325107996703 11.471680436345045 -0.042882915406455176 -0.19959448130030788 -1.2164007326788986
Ni 4.858893454646824 0.2740119813549496 5.784355256880241 -1.2937369446672171 1.0683355296061343 0.7292774708591441
Ni 2.828411182815088 1.9055900835461537 4.903736080255719 0.6823244991483732 -0.6866634928433593 -0.9481246297414768
Ni 3.765883570755863 4.597472081960992 4.759726883203743 0.043299434118583495 -2.247593591796465 0.74826043971955
Ni 3.5895291877214337 2.8469627833715143 2.620669793462593 0.21802492009135357 -0.6265500724912305 0.17830111913917035
Ni 5.041833610207686 4.620261960537204 2.301929364247127 0.6671107675224124 0.1362818372845911 0.4502911805930697
Ni 5.295426956464735 5.069254538258099 11.323352580138428 -0.40206037061113986 -0.47384659931550654 0.608911533473861
Ni 5.758541038104998 8.427103373191153 12.186071426083268 -0.4498381522160511 -0.5661206635605799 0.8458086078793691
Ni 1.7785239509314574 6.997771513678518 0.17734087878041319 0.7384126003911928 -0.9290976950170128 0.1541281214373926
Ni 2.9207398772633195 1.784890502181004 0.3763782700185711 -0.6138863609806331 1.0707317977524529 -0.22242150649715242
Ni 8.220715675223426 8.688643490735299 7.07454371826577 -1.1054640590273155 0.3885057718551567 -0.2897460998857397
Ni 8.867062207460398 2.416804967023021 1.349291431055818 -0.4856070822855443 -0.08207938310025864 0.7521842002539885
Ni 6.91699760736612 0.5983407262870192 4.655476204980894 1.4200657845041542 0.019003280575380175 -0.2211279844967095
Ni 0.996497716742167 8.204484166514037 2.9787010694498304 -0.33749302825271554 -1.5594802538804562 -0.32777245853084197
Ni 8.235631856271503 3.853407665552356 3.664068988972403 -0.41155211215165893 -0.2604661199746998 -0.5746811515360812
Ni 7.36448303880843 3.8405740866346907 12.982320554032487 1.0633241924344718 0.5780963478652174 -0.8422453160081431
Ni 8.44439445140549 7.259485181400197 9.307556307014037 -0.7011192632573732 -0.9391543079220663 -0.23838137226051848
Ni 7.060815899222809 1.1422250605517323 0.1157369597096565 0.5182791185972687 -0.973036305381492 0.4759482190395416
Ni 1.8357681068581557 6.715597193447535 9.142089914064917 1.0101116129672343 -0.8811335084329083 0.11175839822193011
Ni 0.134535184202579 4.999551306428415 1.160939250221849 -0.6445166842719803 -0.28846260518762584 0.039617357281305964
Ni 6.649282757189703 1.688067771556622 7.050278663180518 0.0798065279056819 0.14175982968002682 0.27342705101074194
Ni 3.736179087737892 4.444263812077713 13.46751661220902 -1.0316032071821073 0.8156439113705308 0.06782467295345737
Ni 6.5949067463022555 5.619554748559659 4.32510517360467 -0.5818812688289462 -0.2544438250400199 0.7988921458334886
Ni 5.683110650416683 3.0469199905506037 9.170485463375485 -0.9557914022581152 0.06325993640091042 -0.14609445249963873
P 0.534727278844813 5.367788246276655 12.314051894106974 -0.4005166802731038 0.5792579722734862 1.3342901834992311
P 4.028967371458076 6.425695323206343 12.499811783341775 -0.32913231499284606 0.31248133669972633 0.37495940062928973
P 2.494062198685382 8.762201363350218 1.337300027210187 -0.2536511539353954 0.2213465282654188 0.8796237566566012
P 6.499271464261003 7.893765409188602 5.812710615623379 -0.21498819014755877 -0.3945064695232819 -0.5345027795449827
P 4.7592117132030625 1.3615468138556983 12.499477470894524 -0.07027210605268544 -0.5933375902950039 -0.3138345082935111
P 4.359269896185272 6.161506281899833 8.00200774149474 -0.687836430105538 2.343031141371184 -0.5653133371679361
P 4.925217025124526 1.187293301391421 3.6124780017233866 -0.8874458238041814 -0.7667387010293956 0.033349521994723214
P 0.2308390911383324 5.935836245786061 3.230663957460045 0.07650497433627469 0.29101288241330525 0.40932399415208864
Ni 0.7137314990635941 0.20521943124632605 5.199909505859807 -0.6561067031024249 -0.03273991343518232 -1.31135465774898
Ni 2.0123599796092106 6.315664510649615 4.4366550069258155 0.4430221577354822 1.0256318200900207 1.4780647296164418
Ni 6.134770420339685 5.600564705449463 8.995862015006463 0.46445178836416784 0.674526086149877 1.3613574720296684
Ni 8.912751575251262 2.5062015768929107 10.02168057753205 0.050605737972009616 -0.4434569312800556 -0.3846524595473375
Ni 2.6308197385823866 5.563772067812197 6.857553931294673 -0.7283336188886359 -0.6964995050971746 0.1805688321274245
Ni 0.9343484847451581 8.745412667228745 8.672282276103752 0.21974498810625384 1.856254207147255 -0.16002160410369215
Ni 2.0563412482843426 1.483579991321901 11.40443430966045 -1.2724736644130668 0.5672910297195972 -1.168702398161671
Ni 4.099529219955562 7.115064031032074 1.3724868689942666 0.9423080230596997 0.5462380657040399 -0.43455448658410323
Ni 5.8629360370017976 7.993812519427173 7.968305210439571 -0.18018573775639288 0.46759753308200114 6.453468934827596e-05
Ni 5.611744990570617 2.6550162870186123 5.018854653280161 -1.0954020468056231 1.1189101572298923 0.12728014800661305
Ni 0.7743626237181719 7.259384704981624 6.529268242314821 0.7989574518537854 -0.4305260821510005 0.4206103656991853
Ni 5.278866615840018 4.887236938904132 6.592449641157166 -0.7061449986067387 -1.4520875888263896 -0.2551372515626186
Ni 0.8051129749112833 7.332029155609522 11.470917728985883 1.0132383315216744 0.4400795301673905 -1.5070796287915529
Ni 4.528554393040147 0.423359216499085 10.283536739083708 0.6105305571345228 0.6884470671063434 0.6884306120461111
Ni 8.30783786434563 7.524879939729576 4.698203345267844 -0.2911846321044792 -0.09956134193510595 -1.009010409483256
Ni 7.182986089987065 6.139511080452332 7.02411643062822 2.2728783345051826 0.1283445847153854 -0.9702682557180516
Ni 2.237755989126876 5.8375794426420535 2.1664095111425374 0.14975904583541952 -1.3046836734867078 -0.3288541216307949
Ni 2.4552052273574456 5.337700126024134 11.142953564545463 -0.14535577456140128 -0.1789050712717564 1.8279509893271875
Ni 1.5509174602051976 3.8083850958120182 3.640713702186225 -0.21364530296641912 -0.022832681623799388 0.012093440829424333
Ni 1.57905999162536 1.2984293545524455 2.474053690059655 0.08254243877960624 0.8575680624081425 0.5222990383899392
Ni 1.0595238338467177 3.4960952526689053 8.021954137425348 0.14429596583831925 0.933467027729302 -0.249079475404313
Ni 3.721820094101899 2.773003005082305 7.083794856150333 0.6438913919831556 0.9353652731932796 -0.10015860919947266
Ni 4.324395444720754 7.1634205910250435 5.638167548389216 -0.4663590326892097 -1.4813439145883456 0.19960862236769494
Ni 0.6581963556746148 0.10115691795280378 0.001936454612487643 -0.7640089608030585 0.5280799067377745 0.037758192585380136
P 0.3156274870836934 5.697003798839295 7.949094119208515 -0.7989710787005402 -0.6403908350290649 -0.012029677471024444
P 8.705149026040795 1.395553514432545 8.04787613999506 0.06211579549413818 1.1941766311733757 -0.0091577552398681
P 2.096623157912034 3.2853779344826908 9.908967958021426 -0.13935507689327611 0.27723074102754836 1.3400432839329246
P 4.073012579672299 6.1153510688955866 3.474043419058209 0.4137853723575519 2.5180782723494306 -0.5807492121070321
P 7.13523238850553 4.216648187131583 10.47652910361175 0.34213361234852047 -0.6710874927819732 -0.13574781915799203
P 6.451499494339728 7.899940141820874 10.054314404862405 -0.170844405750809 -0.5169583429033161 1.1995006144894502
P 2.4526202431341724 8.450139875703861 5.92714868926749 2.121843764391449 0.49989727365597136 0.23729868071930102
P 7.143800286743801 4.005501560611468 1.6816016573104897 -0.3519755381396067 0.6209458389305758 0.5464632943409685
Ni 5.315860206314428 2.8389246698857167 0.6088697415314271 0.5484291598180877 0.09991898238484083 0.28502786847446393
Ni 1.5276160653162543 1.4897455897343024 6.929063911814687 0.1326352416709393 -0.9381824309271003 -0.3677140319207861
Ni 6.934206477601624 0.8592843792736382 9.48127181392796 0.3463350520243777 -0.22596757197719794 -0.755008557076661
Ni 2.6832592948573466 1.4355979343436103 8.892587784887741 -0.018883724278380382 0.3890372188785945 1.4757553647569743
Ni 6.694305326930042 2.169797393292404 2.7269519221845795 -0.10987583648723656 -0.6281451848924925 -0.38550683712783285
Ni 4.179627193997562 7.109455620031755 10.217507290485827 0.7042868623520774 -0.36096565745335896 0.23220866779090332
Ni 8.414041438776731 7.0697765689155 0.010568292389850015 0.011002264647774599 0.9221783421893602 1.1442062127925197
Ni 7.785040790073317 3.8696483084816156 8.269344434968529 0.16251197462571368 0.3348036543460105 -1.1398451076103464
Ni 2.93742809696622 8.852885898221809 12.527672067367947 2.161247720110368 -1.490036814376653 -0.5319072509036645
Ni 0.1865682676933142 4.8372910246537435 10.28883093292049 0.09133149782614594 0.23339368923794 -1.2737851841356387
Ni 8.730925794514569 2.3857577536841275 5.724543471748023 -0.25227072864810096 0.7418208547417934 0.18238891605529878
Ni 3.891652644148987 3.0094696890826826 11.262283926352065 0.4232033232373421 0.17812911233768033 -0.004205810551231466
Ni 0.8443006049985216 3.1920444758487343 12.793392003924707 0.5341507955222027 0.7470983010906488 -0.9013665476503315
Ni 3.5289053704427524 8.45577568936379 8.096124916193562 -0.860660328180221 -0.6541706624219766 -1.0416359088277607
Ni 5.698574884656973 7.74368104250094 3.5540299556177923 -0.8215103974536367 0.5457634400604665 -0.29834129775391843
Ni 3.2475988010994414 8.761315344022806 3.6893762585448475 0.6003086222961984 -0.17652294419282502 0.09258696749980184
Ni 3.6600179624599583 4.739454395623766 9.32375949964183 0.40240695531728116 -1.2584254138501165 -0.5086382530733949
Ni 7.547962113341635 6.160382772855795 11.523069557334928 -0.6159728111960165 -0.47404251737639647 -1.1309848290062394
Ni 8.01521399658311 8.975330115582171 2.2585473003954815 0.49893285286017297 1.9796476185049519 0.010309866566440309
Ni 4.64898908202906 0.5523143057829437 1.431149569266811 0.6880169215474602 -0.9282039795581498 0.5595124142154428
Ni 6.239485116931941 5.832646963912132 0.6340089414582596 -0.6494791704835782 0.3427123676701259 -1.8661185015358441
Ni 8.101952548470765 8.641328231807535 11.309449384073957 -0.4663497767178291 1.5220056539737659 0.788837589810964
Ni 9.058716408777453 5.343472952982117 5.40167254830724 0.09849536256443682 -1.5882449847179743 0.5862940531846613
Ni 7.521043567384082 6.745639642600705 2.2844300258197503 1.4188915616903952 -2.255638573588128 1.440529965895777
P 8.819920498710168 1.4095014681743783 3.664857272147203 -0.3553053738437881 0.9664928478360193 -0.6964619669910199
P 1.9300149874791346 3.595009719643569 1.3262987727984883 0.38908247029423315 -0.1580212858442117 0.6264796242646115
P 4.790633429556635 1.2253921324701285 8.208917916839043 0.7175547831055771 -0.4185372852202405 -0.6182793478420061
P 8.902557785876091 1.5394631484879358 11.87746450039183 -1.2393591412472849 -1.4558843368646603 1.629708908289716
P 6.365181116566104 8.137667348163342 1.2378329399333747 -1.3290654447651822 0.38321135622543684 -1.569389028353736
P 1.980390210063424 3.6148218425420864 5.879100865906134 -0.6503227494307962 -0.003354775404845835 0.13331452712615102
P 7.094110130649778 3.9638221153436324 5.847951349304693 1.4461923063878772 0.5421458979125372 0.2570002729132864
P 2.5347186113277522 8.619963291531079 10.3078410713144 -1.4177073115743068 -0.12751283284270942 -0.7433388340482167
