# total energy = -340862.27776881075 ev
CRYSTAL
PRIMVEC
9.29501466443953 0.00000000000000 0.00000000000000
0.00000000000000 9.29501466443953 0.00000000000000
0.00000000000000 0.00000000000000 13.60419351589065
PRIMCOORD
 96 1
Ni 3.8836801795621403 0.032806754025054986 13.513603448957733 -0.6845251063441179 -0.993416925920373 1.8983575640752082
Ni 0.4878943867685887 1.8217020260967423 5.878508359064313 -1.4438346047889778 -0.22984736664757835 0.1753608055639238
Ni 2.2198167963608393 5.316469499847202 13.125651847655528 -0.667535770874973 -0.929166086361103 -0.7475292179804803
Ni 7.102962010645203 0.10817816840056595 10.771065705131019 -1.6754568039487918 4.146583133028717 1.213965897985161
Ni 5.062994451748818 6.9680448737494185 7.990123749488091 -1.5305532864334608 -1.0310234234192373 1.4312873642515866
Ni 2.9040321159637075 4.115776694084205 9.01536293019022 -0.4060221834723653 -1.700700151896613 -1.2626577067639093
Ni 5.733183594322699 5.745741159045138 6.027378242373758 0.6187897118195215 0.9856509088217088 0.617623202315246
Ni 7.361010205926002 3.0176543744145565 3.4564720136050497 0.48716131414654157 -1.6812950078971236 -1.0181385970367693
Ni 5.359449647350208 1.2200450261568687 6.503933640833757 0.24288414522687848 1.5498779549040018 0.5754558249185766
Ni 4.995865856319169 2.8497771157528424 2.424702155646085 2.2046636252021576 0.342218715863159 -1.6865688547015534
Ni 2.3260588132205586 3.403072154737238 5.491155356702245 0.564305721839028 1.1767892889348637 -1.2882381263361748
Ni 5.861073700182094 5.766933792329492 12.583851953224976 -0.9256647580760639 1.0219219753386013 -0.3243459493477962
Ni 1.6559998008510546 7.533116696229987 0.052738053828405435 -0.08213697581107145 1.2914512339568338 -0.8083221808981369
Ni 5.637305518740197 7.658274067797452 1.097684524482063 -0.9128943457842729 0.13166079357281196 -1.5512077294590187
Ni 8.924654741727347 2.917853802671529 8.347097855638207 0.5769252103752517 -2.3134297735649834 0.3830149239439145
Ni 3.0726065007203007 7.968225624595719 1.9492221903751201 1.0163959033140495 -1.0211982097986996 -0.3070105433931422
Ni 5.944598701363321 9.252880297226069 8.740313223707487 -0.640982960087109 1.2005383117253452 -0.38665252069650186
Ni 4.288505950366282 0.42480540468340433 2.4026097649486062 0.010668021236807435 1.0322179579479707 -0.8543634394279157
Ni 8.29808710266376 7.756178456562405 10.494683093554874 2.4239303881204126 -3.186449394641506 -0.9715723192414557
Ni 0.642238104175031 6.571017620193334 6.30347549700173 -0.9207439237356788 -0.7108760855338209 2.078939251718439
Ni 7.495620607340039 4.997074208216961 0.39453897814809225 1.4940402791090914 0.2961520034120835 -0.631117894367571
Ni 3.809366537847928 -0.05137261618390039 7.7338211579488725 -0.15960791360504123 1.0322950910428093 1.3635513943571935
Ni 4.059941541391612 4.751592872673201 4.02821486806289 -0.7702215173716735 -1.7331623861903762 -0.42287345070174914
Ni 4.88084005066396 3.8879187062190113 6.9119912882137635 -2.3978288059373543 -0.9003481336881463 2.023238101501393
P 6.058732185617083 3.5813226496907666 12.004965880048262 -1.6921949426390792 0.4370870231979698 1.5054248667969494
P 3.8183083418915893 6.448072462100289 0.435832080501487 0.5456821932005699 -0.0234479466102951 0.019736302086662785
P 7.898336409830344 7.091045801930053 12.56620722701283 -0.6856602483898256 -1.2707993620344373 0.7520885552163886
P 0.26124196229680846 8.869117029501904 11.96865676452253 0.9043063470049458 0.4244649635585851 0.02140083427327927
P 7.754626189124472 1.1356277035741942 2.2505284540954147 -0.4810338610925651 0.021246568083602122 0.0663228915969503
P 3.8850279566789085 7.932718668829828 9.667357081687733 -1.7841010820217726 0.5584479775066704 -1.266705908691354
P 0.2697422531470458 7.530021456368719 8.16772638192411 0.6367689220057614 0.23705648280150785 1.1494144964663364
P 2.089658706939435 2.2100105559595264 9.991925978443444 0.23411565500562903 0.3442231478876975 -0.48511240203731293
Ni 5.773663382898733 7.431020255881155 10.430498229248538 1.1681069306695173 -1.828272634332664 -0.06246058042806662
Ni 6.4701945968444825 5.021334196318786 4.091801133429089 1.4150950707624403 0.6749860565054311 0.6403185870302328
Ni 1.8600625513443416 0.3759768339950862 4.195410802154542 -1.9215468577074777 -0.9367474982527868 -0.9513091981170454
Ni 2.788457904447194 7.491242655464193 6.886945871378372 -0.37920017818351465 -1.5310970747520727 -1.4683649858301744
Ni 8.286784364912105 0.07877803722582477 8.414493217986829 0.1185833915635635 2.614096377017969 1.8415133013926543
Ni 3.928565805057817 0.1920833356788685 4.95121911269867 0.8913893818329615 0.22341266676582813 0.22315658489096407
Ni 3.0646592632386684 2.3791798216504176 3.364221782220303 -2.84594457614566 0.17436116065481583 0.9147668802166375
Ni 8.758794501233487 5.139064851222129 2.623772553798571 -1.2324390170886839 0.592239986355451 -1.5326055409767991
Ni 8.722209323774182 4.589841028631833 4.783656025530384 -0.744051543844525 -0.8909913750635945 3.4443783500166485
Ni 6.847228273999407 0.1814247424388825 0.6544824269055041 -0.11074049848037702 -0.2933235328243529 -0.42427367348338546
Ni 7.365471812933233 4.8748819463063855 10.852147046974327 1.2306847534017384 0.6712232470288891 0.41079029428496994
Ni 3.3292511487967404 7.674196427804512 11.982940413455893 0.7325643691405318 -1.2485598339099466 -0.7996799318421067
Ni 2.4300514365474646 2.1749497608943593 7.358467089931878 1.4923924590930233 1.7682502310324448 2.360679707690883
Ni 9.142762259278818 5.233715984877642 8.800430589625563 0.9168864976628015 1.7071477072941694 0.8196106093277626
Ni 7.244348477701474 7.606082560827432 2.8868502814785635 -0.7526068896137038 0.44669317882916615 0.48879087933016463
Ni 2.886585373562509 7.13401665441846 4.281783795808719 1.3459665913958947 1.1627405241512814 0.12268635798834354
Ni 2.926117070649507 4.245693113126049 1.7763535088740654 -0.7076650347956909 -1.3003145978847348 1.2111394842799594
Ni 9.16459624857046 9.22916871498555 0.5798880757504195 -0.578867678813603 0.47401860611699653 0.8434665900097539
Ni 1.6821559719309538 0.8102808140965961 13.233043657821069 2.350265197225778 -0.03658114155814345 -1.391411096881939
Ni 1.1692756564204043 0.4771632924147352 8.196648749348494 0.619174863073082 -0.9030647612883609 0.34843821441030953
Ni 1.8574227671983958 1.0083789537220897 1.95584767678086 -0.43957430839619777 -1.0588486731616218 -0.8471687214516894
Ni 0.06802463483693509 1.3849664701762907 10.283137856309875 0.1817731368481708 -0.5699451795129926 0.3670136634196518
Ni 8.92422717105582 6.920872674662535 1.0482071617747764 -1.4772841426966752 -0.04387536122671153 -0.5391186810504393
Ni 2.156843072456675 6.402220155086378 9.005118894601322 -0.1988879421515865 1.2808896563909036 -0.717242651181797
P 2.181344730938059 0.45463589503405144 6.263574787835175 -0.03482919186404324 -1.5056989463939423 -0.09258388217600828
P 5.154104184842341 8.825579181122995 11.79750208371342 0.41857276644386626 1.7693987428145914 0.964546522742926
P 0.835382001019577 3.726083207046258 3.3964094882731044 2.2222425146261857 -0.3929643218471426 1.0337940441858389
P 6.699195871505278 5.67511763812649 8.995637050209494 1.3552462169256079 -0.040981070398052 -1.5836419387283243
P 0.7403497717655291 3.9053561536056107 6.8332913291105655 -0.639945262851214 1.2778714383898702 -0.03536115310811329
P 7.354485105677924 7.109338390659706 5.459553236569143 0.33889942168193893 -1.8784677671298164 -1.1122797963975684
P 7.731555962891242 2.5177034242103824 11.17350451618629 0.47311846290023035 -0.4741348199798867 -0.8981264434464791
P 5.023648654953788 8.046080666871923 3.82835625267246 0.23269049252332827 -0.7591837715002732 -0.4893706630930346
Ni 0.8628004350819392 4.057998883340546 10.908903335613621 -0.0902896868251929 -0.46332410251762784 0.38619486433379296
Ni 4.888685042985012 5.175250343053702 9.864182733814705 -0.7050193696427277 -0.7714152805694585 0.7082777286790253
Ni 1.6629617667852565 6.015082797062993 1.9574529258020037 -0.47111994441296284 -0.3558193373657291 0.590120626019603
Ni 0.054821066599907015 2.6222072733402007 1.8542791932612168 -0.003470217936787572 -0.23960470314465832 -1.646974380238383
Ni 1.4727950631165783 5.507268264508572 4.542943961977062 1.7256149128604215 -1.711653308474007 -1.407694150312679
Ni 8.010954806704566 8.958274809529762 6.175514749031388 1.7231433113914774 1.9771173958839303 -1.542140477050428
Ni 9.244198753591164 2.0758742002900075 12.730899084171673 -0.825725721086565 0.9961939744448779 -0.2301258171199456
Ni 5.738556112760575 8.222611584124747 6.252541605506874 -1.7384159212798318 0.8371424475639389 -1.434519498035639
Ni 6.581539576718724 3.1680663006458754 5.725650914492155 0.7905987954764448 -0.15869440065183638 -2.0056723247034878
Ni 7.311170337649377 7.5570420638062705 7.8568574071849815 0.334608764726385 -3.9219965005594455 0.4252666335242741
Ni 7.617041383038946 4.495347910224492 7.283481418662201 -0.9119615495573584 1.0598107799645748 -0.9883698504147688
Ni 5.445660907750373 1.4043186905701608 12.85133737682753 0.8191861201958343 2.8161053812970405 -1.338039109018702
Ni 8.748728000423418 0.5336741926686314 4.005523878425275 0.03342305554513599 -0.3900831436446056 -0.259170798202044
Ni 6.672993225352387 3.2208991636231845 9.170804388820732 -0.34929413465270165 -0.24257175619278223 0.003922474982857761
Ni 6.061808835449153 0.6405789440692164 3.7661168349215695 2.280563618964582 0.8971586802165711 0.7022014405779583
Ni 2.77889333442544 3.0355193924726827 12.241025788795083 -0.563859378330229 -0.40859662906776084 -0.0012153604643398424
Ni 1.815223400921657 8.78539683301411 10.318998022630504 0.303263160535568 0.7355928715542106 -0.4921713657666234
Ni 4.516001432662138 2.14251945496054 8.924010597215679 -0.5559766331480425 -0.0056044906709709925 -0.48085876896728147
Ni 9.137622116205902 7.179980501607551 4.273620913988404 0.3423840377964297 1.2372531506478757 -1.336609575661027
Ni 4.315043217044717 4.133901972551085 0.11745738147414927 2.414313948076571 -0.37947888576619804 -0.7766773002993462
Ni 3.6560731570911047 1.1372450361143158 11.004799071723859 0.4121889744047095 -0.9143534468283027 0.22194353841946937
Ni 7.259276271146506 2.58466470937726 0.4630395177324655 -0.4853522859622609 0.23875829598396298 0.460249320247046
Ni 1.1986386075367519 6.737807362147034 11.218562099452038 -1.0661724605165444 -1.169774033959295 0.8179548188918946
Ni 5.123979042528924 6.176750985972975 2.6832364801903794 -1.6495313423322817 0.9535118621953192 -0.7466331885287723
P 4.7853802507383865 2.4129950847593995 4.5273125359269315 1.0947142767099791 -0.5248832541773476 1.9653481711631444
P 7.391284068472992 1.7175792725654586 7.0252603361098735 1.002102626619829 -0.5215904423586888 1.116840162074741
P 0.3184583541587233 4.131169238259155 13.420441376640882 -0.022219987740464957 -0.024680276355499433 0.009847325107724975
P 1.028688560619595 8.002338328171849 2.440591983102051 -1.3314308596735651 1.5791437937476547 0.7769714345009974
P 3.5815271400119317 5.388338552722036 5.901335985416526 -1.5688573242199817 1.5415051574592742 1.7047457827208963
P 6.340817288649344 4.524078800348148 2.07167378319299 0.6326919237229103 -0.6319583879909956 -1.1461643649601552
P 2.835416318198314 5.288482210891418 10.74524508407812 -0.5477791849389146 0.10022571499198223 2.106986901884275
P 3.561905364194708 2.046697149465628 0.849968667428847 -0.5620300384309739 0.21756057886042532 -0.5166917195054908
