# total energy = -340849.7403805701 ev
CRYSTAL
PRIMVEC
9.49257703894616 0.00000000000000 0.00000000000000
0.00000000000000 9.49257703894616 0.00000000000000
0.00000000000000 0.00000000000000 13.89334602088446
PRIMCOORD
 96 1
Ni 5.095995084023985 3.164473975850324 2.1079121756264105 -2.0435896685745516 2.467402600371434 -0.6180302079456776
Ni 4.809945766048465 7.0120812618522494 13.210432236488996 -1.940680236102819 -0.1178395714190035 1.216351367498202
Ni 0.694562372965783 7.826183658089611 5.6301120205297615 0.18363950063294823 0.14747359223535247 0.3284162627624279
Ni 3.480320493305674 4.826149595138005 4.452845457825549 -0.5171210937334255 0.18693462644445227 2.3565199198862388
Ni 2.8232917701465943 5.12680798925225 13.634332758939212 0.13537963718529586 -0.1907789398912069 -0.4820689872252988
Ni 9.3155215403412 8.204329958974753 13.314744267595698 -0.9849042604636715 1.6244733709223893 0.7726982610469402
Ni 7.540827298241528 8.454193573090093 4.094230134299358 -1.2355233124409624 -1.000013348190968 0.6262410258912441
Ni 2.559008931434293 8.968985521159732 2.8639190508263392 -0.2746195286569464 -0.21662006932402694 0.2777256783860959
Ni 3.552312197942508 5.851879504979477 11.23063093198709 -0.8597393590278485 1.2460800049108864 0.7112630365595944
Ni 8.432484049289403 2.3856365034955886 8.709627431440783 -1.0599627321614067 -1.1512404939314818 0.9622762386515105
Ni 8.47864645166927 0.5385404774288726 12.092170583707263 0.5514373505167923 3.6867755283047803 0.33708705106354847
Ni 8.91801987477324 4.035541327193914 11.122776271111073 -1.1088347752717613 0.5745515679367524 -0.380230419220242
Ni 0.4988282811804292 3.8330266875944656 8.229097991113258 0.3362624982797241 1.5056974037320456 -1.8569818293418987
Ni 4.821061573818735 3.9784909388938914 11.282925539165928 1.1060818951169724 -1.279272689612771 0.5504382198283165
Ni 3.6051668671695505 8.189787330875646 11.39478037202691 1.7822897398446464 1.3008198196559275 0.20725251206619788
Ni 6.335830070089585 6.31839220597858 11.873948576799988 1.2800375928032537 -0.012412514731739913 -0.5665040150419276
Ni 7.480929136815048 3.186240455113544 1.0890216675769795 0.1556998367998867 -0.18370789197703846 -0.2698653018014126
Ni 4.234714579658319 2.7638302672661714 8.440304983552362 -1.6876721150680611 0.00832086116086954 1.1942108268454206
Ni 8.45998404511389 1.221998433716891 3.7587197434058224 0.3587534802933886 0.4639131422518784 -1.126367641949202
Ni 9.393816316164592 2.010375946045257 13.52599207811628 1.0549135997732735 0.6608640152817522 1.6370126410399808
Ni 1.4090401726625892 3.6361886090937556 10.213874355267084 2.0597616503487233 -0.7285400784724871 0.6398336769740142
Ni 6.749981715870232 6.307722549331455 9.768036487166059 2.027754244204192 1.1966382053399907 -0.7782287039468663
Ni 8.077594562270326 5.3676061922483695 8.100278973737975 0.045569718209998944 -3.2166048351789636 3.8359475912884777
Ni 4.795241764138858 0.7085117149968785 9.964071493645108 -1.2665706686650704 -0.20799916042423536 1.0101987733644022
P 8.191999101337194 7.666831766510163 8.48512513553196 0.34957129957348826 0.6454265976807594 1.502209188073129
P 0.9429328047051512 8.472447798830684 1.2197401496276103 0.12172913628139681 3.227701716423073 2.129385324184133
P 6.463590665119536 1.9656184450744405 2.8156255648901722 3.4931953715193513 -1.4554950718460418 1.0404318612173307
P 3.5910229273081473 0.7823772543509211 5.198681985933191 -0.0928553906698401 0.6454211983641207 0.00578369656131262
P 1.8931616041602852 6.337301419538255 4.495386442046273 -0.5490966181987575 0.7514020706723252 -0.43592385612780404
P 0.500565422787568 4.077318158959039 5.924734084873627 1.111591512081292 -0.926828696477178 1.939780349996369
P 6.4301103457294895 2.0384075261866825 9.687205294744702 -0.479452118427742 2.4836599427705615 1.2832381020184223
P 8.872341593824867 3.983085346204575 13.247763694403721 -0.9331772644030251 2.0617568264018815 0.577639719943773
Ni 3.3144661864208156 6.909381070335121 2.3337624174817564 -2.445107793528976 -2.856807487002093 -1.8099650942727281
Ni 9.468399494346503 0.140389519588079 8.992524264565317 -0.12396188226665747 -0.5115348578948997 0.4700002289862228
Ni 6.100964727773586 5.1613894475845274 6.597033516794478 0.41231932933498666 -0.5920304414478063 0.2903212556629194
Ni 2.4656589283490313 4.055732038660494 2.0613833597709377 0.8351323591124455 -0.21700856301169721 0.13917998476799257
Ni 4.166700264821437 6.407261712678216 6.441079967812602 1.175622522320272 0.9090351199391828 -0.9748461048967211
Ni 0.393286961340805 6.317680262696966 12.503080514412293 0.8412343582451254 -3.509170921012002 -2.3409282360955683
Ni 3.227286358442878 1.6635266718198782 3.1759637911578693 1.1344673882382008 0.27486198368505566 -1.5080450780286156
Ni 6.436641238766164 5.460813806677308 1.6221874478585188 -0.699713384048782 -0.3489804600670248 0.48455010177593977
Ni 2.1094120028063443 2.674865834795654 6.739203843844302 0.916769255358647 1.0272714125759725 -1.3525182764714836
Ni 6.88473834021418 0.15984075929948938 9.119731442351027 -0.8674619244830867 -2.0772994021221707 2.8255688407027852
Ni 3.0416210431749673 1.9098590472584118 11.00219681064834 -0.7025068876335192 0.8178018382537979 0.4011147188684188
Ni 3.66926074766901 8.583824205806417 0.6129423473883979 -0.38707623849748174 -0.6211044759956271 1.4205782053641984
Ni 0.23301998533005586 8.455066890182207 3.3630510944735907 0.1239297434771414 -0.23157411953069795 -0.6557955996199093
Ni 1.9839296262775592 1.0710284877063152 1.0743186149250818 1.373565584060086 -1.356914091546334 -2.99614919415893
Ni 5.207580327695661 0.24392410863125982 3.520184570787528 0.3143513000289296 1.2835659176714862 -1.395341542284597
Ni 9.030174673070206 5.192961758979847 4.543082844883593 2.0569437212839543 2.849527665511228 0.15981617296110542
Ni 5.65224111623775 7.7444051064748525 7.875262180150972 0.9682810500846937 1.734681393938064 -1.5786074616282104
Ni 1.4801016047447804 8.245223981070675 10.526849368153258 -1.6152505667725408 -0.2193122714442094 0.31393246732395613
Ni 1.3095959350867092 0.4730056237274256 12.401116946877208 0.33051993936899204 -0.0026880883551244025 -0.8017437563496709
Ni 1.9886284519362134 1.3526922350670922 8.46409053396224 0.2509952043697871 -0.9586052175578266 2.2778665317483933
Ni 7.971932686701682 8.46989429559396 10.911292095420995 -1.1936786084910347 -3.2573959010533966 -1.7191488455201038
Ni 5.6850759403858 1.1065117408619698 13.031430710336995 1.6926112042408914 -0.8830083568581181 0.13429745986471064
Ni 5.713790986077575 0.145571517420522 5.838817718906127 -2.065021613196082 -3.2711351050163597 0.3100115350029951
Ni 8.430167860479884 6.651733543007464 6.640407949283545 -0.1208727018183725 2.445124762809841 -4.339524884899197
P 6.413830576023244 7.410067048851709 5.893293720299833 -0.08050123997986136 -0.5440708828493921 -1.5098775032516643
P 0.36364164309438723 1.31861388332049 6.847432512257592 -0.47132434711428506 -0.7308355593748833 0.6883827895273111
P 5.688550223600077 5.030629198194709 13.398117572161274 -0.7109791867705885 -1.5392449006701876 0.47095410825905987
P 4.528253540956422 1.0961078763733134 1.2387044201343966 -0.7537741704489276 -0.20125695660439533 -0.31230573035381054
P 2.1751196214107966 7.428378230054827 12.668022584638976 0.39235831283202743 -0.49879812705452153 0.9345083245096227
P 2.2195069118751736 2.9152558569769806 13.122015525716467 -0.09076174136560498 -0.15916799785414523 -0.14609290983774195
P 7.9937181511190785 6.193821116850262 2.978386240901989 0.058559959822079795 0.6134945248588531 -0.7544544843454039
P 2.5825030597275638 7.6005261155491555 7.435885909273877 -1.2766949015832658 -0.7402923339124089 -2.238414239290042
Ni 9.669993353968398 4.3829221857362315 2.191897751414172 -1.1663333837088623 -0.13076682100363288 -0.09761013174600609
Ni 1.6354381362159234 5.830160488601697 9.347610247930119 0.5158635671772406 0.8897166221162289 -0.008812456085307403
Ni 6.049486482224331 2.0929328889812466 7.33646445388301 1.1597253914740415 0.10209747809339836 -0.14007190045464266
Ni 7.515216325257591 3.7918858584942496 4.162863365162391 -2.3550489917676667 -2.2262374947181915 -1.0108389780515623
Ni 4.242564940910253 0.365258228972506 7.661930748959531 -0.9871861145193128 0.36705274418770334 -0.6965992638998326
Ni 3.558615269129066 0.4943316474137535 12.83675693941239 -0.07510243756179323 1.4746181658287376 -0.3218167551680393
Ni 3.008235649555803 8.19327110666701 5.305174461997051 0.2775703837551542 0.36883271890626157 -0.31857896495703203
Ni 3.3567271396174383 8.212037931570363 9.157243259230427 -0.10621869935062353 0.3530942251250822 0.4678728982305748
Ni 7.071352913190909 2.6745810574830076 11.750353324596336 -0.5007794191506085 -0.12657232330631105 -0.06318665996081377
Ni 7.911085267566384 3.5272802721609504 6.673223788277418 0.6762582383496354 -0.4246791364519202 -1.3093890493821772
Ni 6.155005969136652 7.99465791625081 0.9666243786018561 -0.034329626519805395 -0.05617166209556133 0.9032231412430961
Ni 2.337917318473257 5.3431153433608385 7.120895622271883 -2.3100729412776086 -0.7507983756500554 -0.21193577647448017
Ni 5.262912559542721 2.520260231760301 4.858475617154127 -0.615993637131623 0.28258300647839724 -0.12830318995448872
Ni 4.796105588653884 5.982155632937798 8.895534807424443 -2.928291353974692 -1.226034913334553 -0.2415759679384162
Ni 1.3516575441644796 1.0715790571774302 4.651367519501704 -0.9745504280331732 -2.2431088165522337 0.638491818234139
Ni 7.918385059347202 6.093607980530238 13.694837496041629 -0.20367353646568795 -0.5870265604753117 0.5073442168523198
Ni 7.70513431506101 0.1787499728591641 7.295048340047236 2.7873979860600184 -0.42058105512314664 -4.618117539271279
Ni 2.1783091273124287 3.089292765311858 4.445593128930171 -1.7291841182689187 1.9655605442842663 -0.00988332055198298
Ni 0.9729701663853112 6.538240291341063 0.8603255511105943 0.5330771028420497 -2.6030493751751878 0.39650473090023325
Ni 4.80807572836209 7.5785033367045544 3.602545017377792 2.3155619894166377 -0.44316973905694007 2.556197704928972
Ni 4.346442211986317 2.8587655307251607 13.587678641066177 -0.25390543603804655 1.3786106026831613 0.2844915363550197
Ni 9.052149989029365 6.452759634661911 10.325645653449689 0.4311644870659478 -0.24613221985053096 -0.43310952660746055
Ni 8.1944861565343 0.2792279520799477 1.2435048163678943 0.5117698567238412 0.013510632891925119 0.055544055813891435
Ni 6.249390663124526 4.114510075990568 9.152463746666523 0.3955943032708219 -0.846769943351374 -0.5536834662384916
P 7.140667711088874 1.3977534985047309 5.4517351059501635 2.6419542797705016 2.9606427737222045 -0.3967212177864135
P 4.81600203023073 5.432772733958794 3.164056302458443 2.1656129390575996 0.4781850787898604 -3.1163768061941366
P 7.153340301501607 8.92940147470198 13.257614141648135 -0.5251161961237601 -0.5963210984033601 0.5884681780178447
P 0.9324824265887627 2.1125825235538 2.3601185577671164 -1.5780029952749919 2.5682569500863512 3.1647845080735624
P 3.987660768361083 4.039471254108425 6.67339085763417 1.6215006614473106 -0.00036278265605743974 -1.1561752122289377
P 3.444125296868405 4.466931492966714 9.614014677621629 -0.8230474029234535 -0.9377625697808624 0.2715941115670613
P 9.767102417580581 1.7848702847382123 10.61994876720339 0.37516457466156033 -0.4701583518306419 -0.3761745039833134
P 5.369770499824477 8.029884869825082 9.95972294408101 0.36577850546097 0.30785335100941175 1.85937989726043
