# total energy = -340871.40664332575 ev
CRYSTAL
PRIMVEC
9.22830965976876 0.00000000000000 0.00000000000000

0.00000000000000 9.22830965976876 0.00000000000000

0.00000000000000 0.00000000000000 13.50656399890346

PRIMCOORD
 96 1
Ni 0.6165322967231777 8.76405189046395 13.607728642322078 -1.1640607856246017 -1.5702637176492054 0.16202449346633385
Ni 6.797923596795155 4.982779678039362 5.717584760301171 0.8795713061521109 0.11703610168110165 0.5559174977753328
Ni 9.083406775754545 1.8792991277525042 13.36224637613659 0.10128372394285137 0.08338421795461122 -0.11922591024356886
Ni 2.3144692997100633 7.177973074946994 9.079099000789116 -1.605977111890415 0.028362096082460833 -0.6321728179946468
Ni 4.89157629332784 2.8835237887165714 9.299148045456347 0.7613545538993468 -0.07420769366166576 -1.8088060409676203
Ni 8.792087495316082 6.605144207275403 8.573993929473131 1.9019740777818726 2.457331075068045 -0.4123494112419737
Ni 1.2540442327060108 6.559962403010745 12.856682657828783 1.4246004391497142 -0.27497845465826193 -0.5491873781403509
Ni 2.4873985950767756 3.3853315849786845 9.05825778617488 0.7968584032329116 0.5165132849460976 0.7415190072306584
Ni 7.78126459292039 9.058637992534296 6.406959796767536 0.4474570535783842 -1.0496474662783277 -0.6049432928547324
Ni 5.723259247932367 3.2429018531525546 1.607537404049761 -1.111725466555995 -0.2926486182445154 -0.425700378627583
Ni 7.020012097904889 4.8358280744628885 0.5263615598664785 -0.2164740306644659 -0.6875716064799255 -0.5847480488537801
Ni 3.4881718682150704 3.8497185854292795 2.3287879450321713 0.5707203671161203 0.33234645105476956 1.1603190591939825
Ni 1.28068636279426 8.832119902771165 10.63728340459227 0.6624555281385882 -2.0724922105415144 0.8886915232858243
Ni 2.2654577469221553 0.9427548900884779 13.064913006270167 0.7893392120377309 1.4874333153155352 -0.13833537737951013
Ni 3.879793646723912 8.163085906533588 0.239659202768212 -1.1232697197501689 0.4617415885218564 1.7197183448703286
Ni 6.728222173672001 7.49896137105353 10.831872465643128 -0.8076536940762026 2.4733989271641854 0.7952730610236626
Ni 6.139806690926266 1.5334313087093847 5.415132447047166 -0.5117510876707638 0.908473333898442 -0.4275590291028765
Ni 8.218557276107703 0.2503059036628476 11.303980792815178 0.8925047263843274 -0.6477616735718393 1.3516914096948143
Ni 5.1226531680800935 9.043365139989769 11.777521353651826 1.4708461003808153 0.9433449489646463 -0.02243313219253556
Ni 4.422861215630487 4.280099264655353 11.143117512374127 -1.5655902234329357 -0.37844710206757404 0.7325617980373706
Ni 0.8817806794434873 1.6702040866927375 10.134622912514377 -0.865986882599457 2.379175709612541 0.19186574519748248
Ni 0.4152767047489554 0.4765868258668287 8.282508539460164 -0.9251394817002131 -2.3235763750806817 -0.966332153888439
Ni 6.6579209104186985 7.249252539027921 7.514646729041405 0.31706792762914426 -0.6270115855086814 0.7143717573919052
Ni 6.6877652639709675 3.8275060439944286 10.713946664549013 0.9919393129335818 -2.1994723108092056 1.1543556425216959
P 0.8518975669905022 2.5386526271204666 8.117296879491027 -2.5127447759516595 0.09978785612361525 -0.3054180020950418
P 7.497494069812091 8.589000083867486 9.05958204861605 -0.0264723352589157 1.077368329232364 0.11770433139271987
P 3.119334786342144 8.708838913561285 11.80599345755251 -1.376268841923862 -1.1244462565567732 -0.9329396944709223
P 2.8453001299616263 4.704896816516205 12.88137207758566 -1.321709518620743 -0.11828951447222852 -1.941047646744567
P 0.9410476527949808 7.810675215917012 7.133235152378645 -0.024918874728866763 0.20261244219102525 0.1968691119493448
P 6.0546478490646924 5.592678665754076 11.717470896807262 -0.16459456818635523 1.0221600594913363 1.112770877101374
P 3.2949772047590633 5.251231207054659 8.25900772599195 -0.5881619596313354 0.06710964916430377 -0.9223850588835276
P 2.926795332874452 4.856582542965997 4.421414216670376 -0.5672954005949714 -0.20405046018913245 -0.17411407764101625
Ni 5.780511681277534 7.2933823159873965 4.202742958640545 1.6030792215173295 0.13196366952521144 -0.17411767718544208
Ni 8.10707929499719 5.3474547922400335 3.508843281930927 -1.0238593015706303 -0.6725859317043706 -0.5420726214724407
Ni 4.403407938794315 4.244681012047559 5.7950453462155265 -0.7518975222515051 -0.8215962722992237 1.1473974660363078
Ni 6.798532665234997 2.440066594653281 13.089359721482076 -0.11719371030488848 0.052850825252444465 -0.3828732561597277
Ni 1.4180866658368438 4.960078036190699 2.9028035733304858 -0.49342760677122766 1.9501393246331897 -2.193978120463854
Ni 2.0962936019108307 9.150090541607572 3.0715146083358067 -0.19898718673361215 -1.6995179586630536 0.08711334597974028
Ni 1.5310596331178778 2.92781967525055 3.62604004655917 -0.9441224505606192 -1.730742463894974 0.04184856060466986
Ni 0.9786345581810004 8.55099790454521 5.010692546372555 0.649776647119339 1.7427145486551856 2.645574907242224
Ni 8.369680075666125 0.5602488358959414 1.8062736674773632 -1.7092051040438303 -0.5528303742095769 0.46272529259136436
Ni 3.316146947198427 1.454916849827908 1.871523354003852 0.13973200061672064 2.049527631325541 -0.932729121122013
Ni 4.748408296726144 6.523658232672273 6.080858094259236 -1.1452143423420598 1.5329423554909278 -0.5234568061434662
Ni 5.459523385170998 5.228751044638666 7.764721002130919 -0.045092778573580405 -1.5522569966591395 1.714250122666906
Ni 3.8890773262766585 6.504297238933046 12.044559105621914 0.14938726431829757 0.6834434432441648 -0.24192923751277687
Ni 5.8234048647379355 6.875293745274503 0.143164305277818 -0.10164393549574752 0.0818505549189042 -0.6712754404230633
Ni 8.812472831431405 1.1894183799148752 4.307473199702382 0.12620259867171815 -0.5476688846132955 -0.5538382466488009
Ni 3.7748216239480783 1.7291176157829287 6.536771660748269 0.6329294936550132 -0.2738019178516574 0.7922260466672227
Ni 1.7215873150721521 2.937758564791612 6.293639845041986 0.5296706482636621 -0.3349034131486684 -1.2434726491950263
Ni 4.981663052566318 8.923784702967415 9.29315056698584 0.6785704314225798 -1.2611297001551571 0.22818463423317473
Ni 8.325937887713822 2.012232928902912 6.488175381896616 1.3402615705913175 1.5739010572914764 -0.35493950586393713
Ni 1.5388575548097971 3.0162453387440045 11.816298710988445 1.513742128413393 0.5587009740577411 0.3917566746922866
Ni 7.599356152220852 2.6539419001348397 8.557880377915426 1.6788627443065471 2.9059191569270792 0.13963609846880468
Ni 7.049099730062201 7.495906800544624 2.1109675371561805 0.4004493173702781 -0.1032958692768737 -0.4138781891816743
Ni 8.62955850497516 6.872755960108495 5.636681092039767 -0.6008534390560749 -1.1089993258740836 1.1937925083610794
Ni 6.339442714549089 0.50162507573016 3.385420176751752 -0.47055790126190566 -1.1842372605724767 -0.9830214416186618
P 5.06597288993599 2.173386901099342 11.8427442780802 0.07579792096692108 -0.06006534072301268 -0.6099749417413688
P 7.529479391213502 8.655665393101122 13.440165609042765 -0.5520901536094428 0.7235559949943345 0.4663400065258162
P 1.136992352539973 1.1416249640066516 1.6529333050993331 0.11551580838183331 0.4355230211449596 -0.7122703947781863
P 1.663855009622867 7.006547994060497 1.7233563820406028 0.45640423546934306 -0.17579403644660047 -1.185663708606358
P 8.769699615997034 3.734097093265902 1.6444109610963895 0.3800820665678357 0.9645640062444226 -0.7265078785338068
P 7.932156684736449 3.2776372108429492 4.6461909243941415 1.735411073015237 1.9252003952996648 4.556419805151166
P 0.47754564724409543 6.687506871299519 10.648669293093441 -0.3503621709058999 0.19450164015843277 0.6838969858418157
P 5.661134267068462 5.611052230355982 2.165345352031486 -0.25030254917813666 1.1116272504152338 -0.9572803280988159
Ni 3.832535472777974 2.4059033921639505 4.229175606098727 1.7119387009249096 0.445149231380814 -0.8631072470588168
Ni 4.029486058279675 9.14291091666519 4.637951889498822 0.557253185867621 -0.3214254332668916 0.48059394534166916
Ni 8.970092361014812 5.90088575293362 1.065125967962471 1.37553710596416 0.3607967359756625 2.3880123340675645
Ni 6.712875494649916 1.3860644311966555 10.138175811746791 -1.666077162506105 -0.6262592807236892 1.1521066985865192
Ni 3.4145115002329427 1.4911471936888245 10.448988973584083 -0.9836462196868544 -0.38992322102797367 2.5048828567050796
Ni 5.5947919486741355 4.306289207568567 3.777327110030156 0.17300901750229558 -0.36604744285164054 -0.06836923260301773
Ni 3.5847092159300598 6.8551760301403215 3.494013388251739 -0.9538949565663508 -0.32235411572874806 -0.5144831418899461
Ni 0.4977519541513452 4.637345589551888 5.168921144395803 -0.4251668747216162 0.17514380445711128 -0.31538076973470847
Ni 9.106376038584353 4.477308242828502 12.515046941611596 -0.6004387201161595 0.11485812019317637 0.821470802464953
Ni 2.0487493503643606 5.261059356879387 10.752819073475488 1.0354729745501587 -0.48586727792546647 0.050998345424737974
Ni 0.5658245806134059 7.015490226154545 3.5472561210346116 0.3146428631274194 -0.6557979136127545 -1.182344671535454
Ni 6.165101487799106 1.1219317511184204 7.737991203100571 -0.8600556047166866 -1.4959706633625849 0.2715203209063324
Ni 5.421788826829865 0.7098545013405755 0.6370966620465771 0.971220849439308 0.32027203638873875 0.31452639215421313
Ni 9.092441290945539 4.543705931080996 10.022222100434409 0.11766036552866188 -1.0404436882918726 -0.4216064110638675
Ni 1.6448446916520347 3.0975559754629383 0.8155887824971817 -0.8480480387328491 1.0344015958628507 1.0098020521466158
Ni 8.026700717557409 6.688752693108287 12.687688313715839 0.35404759017728704 0.422701186789943 -1.5035495041511073
Ni 2.273071102420183 6.280095454903254 6.199012757433775 0.5148616082752875 -0.08419540100199692 -0.5096695225513868
Ni 3.650045648567678 5.739980945098944 1.0040742395160458 -0.09552496708220323 1.4879858453848955 0.8514748050262109
Ni 0.9694154767961162 4.803030661808356 7.489133221228803 0.45491171008421655 -0.05354476599567552 1.9447418077667022
Ni 4.385883378684309 6.3969627688754 9.650682969482908 1.7738434088495063 0.19013282166677575 0.6884275267223176
Ni 3.1844035979986196 8.470573185556955 7.10861309928254 0.29955151601193575 -0.06554179045655163 -0.4002022343564785
Ni 7.368011656487456 2.6485525672732058 2.9746450414718124 -0.7291890249103958 -1.5237018107292661 -3.8409897816980756
Ni 3.8509459506186587 3.011852663329385 13.649598406237352 1.5582985748675293 -0.706603426300396 -1.6937854270546508
Ni 7.043341264812784 5.738439817379949 9.68627286865102 -0.8758799733434529 -1.1095006909905343 -2.2195240872537583
P 8.48229313886907 2.659432744403114 11.409913482630216 0.02725420773026274 -0.44489340661626603 -1.0293041267352854
P 2.1644169840762117 1.3301593310668969 4.841252474901363 -0.668171604686759 -2.0906367426610255 1.5445886814806045
P 3.3916622054291654 0.8262843934331987 8.522452896997939 -0.23824073291759612 0.6901221408159212 -1.0592824182649303
P 4.313874878137511 8.999226134720598 2.3758043372641118 1.6459922188307716 -2.002225760915784 0.8295618070032036
P 8.072731526313968 4.903757662124684 7.587271680675801 -1.208933477767576 -0.9075945308379144 -0.13304661817674504
P 5.5302214657411675 8.614691698057193 6.39331850937701 -0.969647334304601 0.977781276265645 -1.3930275494394397
P 8.041687492501405 8.19573566623301 3.922657299593292 -0.5518973208723463 1.0959167816585127 0.31250704773133925
P 5.864600039214536 3.137219250530238 7.087934302918927 -0.18992687630355676 -0.17494788639622127 0.20661899224725705
