# total energy = -381167.177264055 ev
CRYSTAL
PRIMVEC
9.31623892922306 0.00000000000000 0.00000000000000
0.00000000000000 9.31623892922306 0.00000000000000
0.00000000000000 0.00000000000000 13.63525737277783
PRIMCOORD
 96 1
Ni 5.969333454173105 5.0148009390834485 13.006590161203272 -0.9116776997683526 -0.521658833702779 0.6689920437055252
Ni 6.596372225395003 7.592911661404631 1.0268880156478835 0.6084019408272942 -0.27318948107863916 -0.07828109240009098
Ni 3.9690624457710117 5.741597995781293 9.499737999391202 -0.20163028078341405 0.7352761116447402 0.4513363340281324
Ni 7.033667160205936 4.84281385389747 1.4045403894187518 1.9987892244304093 -1.423891843118464 -1.1225631806014473
Ni 1.9836974195095163 8.192420946860612 1.2534887561492423 1.9731301291014085 1.6603896252030246 1.3179389958347172
Ni 7.675621229807269 4.092474661656319 4.752950345691228 -1.0975399190842323 -0.5312523909284851 0.11703404479857264
Ni 9.121548078639389 4.078453722205319 2.4965060598447146 -1.237415644367669 -0.40672486596634466 1.3739224531788725
Ni 7.327622444257351 5.8218201284142195 7.115626771382125 -0.07195412174079865 -0.09853907131817867 -0.7615175618397724
Ni 0.04293295506045516 7.475256881121129 6.413193542493087 0.02086733036731245 -0.8535710254336073 -0.4087763491787347
Ni 3.2119503478947276 6.81799623110917 3.4697092491893535 -0.9347009001364031 -0.01615886914804959 -1.3895467899796907
Ni 1.207682673031187 3.0197377081917263 12.59413697725353 0.988188587641898 -0.30247486030631776 -0.1791110166349754
Ni 4.171737221688945 0.7685841143812416 10.614461378050322 -2.165835853701683 3.7123040115931873 -1.063022087813021
Ni 4.370964989236865 7.986615914693155 10.459291967214474 0.4258767563044472 -2.210214379817058 -0.6813505652708782
Ni 0.9173989187057777 0.5714599535629136 13.137951923688936 0.43194275999286896 -0.5147004001070749 0.04127623304096763
Ni 4.2608656786508785 1.1059959261158003 8.122904104276286 -1.9872025480340745 2.7395602977514497 -0.5529352752185573
Ni 8.164127529509992 1.8279858035733025 8.240113568343338 0.005363835415074633 -0.7025469968428352 0.5314768482344654
Ni 5.027815724739957 5.590991678728233 4.374449262562229 -0.10573481773566952 -0.20609423009203862 0.7941011522027485
Ni 6.069809090039568 5.9047719190266434 11.011833434569317 -1.5573094714813824 -1.2870716168318994 -1.4097790578661658
Ni 3.331365897318587 4.422968234429873 2.669101495426806 -0.15419342745768927 -0.5710962623983002 0.3449248019404125
Ni 0.3798286471633957 4.6567499318274646 6.034064544866416 0.5703763535131403 0.12236779830666021 1.6292489379341617
Ni 0.8201606758354756 7.9967612987875984 3.3645810836472565 -0.04398154778727264 -0.005746929786106231 0.6612743633462934
Ni 1.8917088772243558 2.0055719483008425 8.686394947137282 0.5565181074738093 -0.35944382149219384 0.12413646017130878
Ni 6.679855041621185 1.842807939564359 5.0065122813893925 0.3563081040766896 1.0247589305667641 -0.8409708201710936
Ni 2.8677432715518236 4.806620266012332 5.6960881690582825 0.02218682050968437 0.3141245287301041 -0.9131362865917501
P 3.0805727478030387 0.26593483249874367 5.905320645494194 -0.6357229972397503 0.4999713214270164 0.3504868694092222
Ni 5.245936824651084 8.073638901677727 3.7803890452025186 0.9092721756506532 -0.7289954208423509 -0.42303980107628436
P 1.6689669228496438 2.985109248431351 2.221497210717883 1.1330921051572291 0.6412362137484956 -0.4900108677801948
Ni 5.258336738544293 0.21333534802011125 5.54844534757955 -1.1685450466482004 -0.334096858086973 0.860892241685369
P 5.668679794397259 4.277541746170671 6.095533088718703 0.82108513699076 -0.7503587170094754 -0.8125637297833103
P 1.8135176846580854 6.806155291546233 9.780733463595253 0.45424245193133383 0.547356238468883 1.4033916662825832
P 5.628983300709081 2.1594482651859956 9.505560648664874 2.23935474882644 -1.366575783005814 0.18148388774252616
Ni 9.450206352361882 2.8709573739508905 9.951665018920899 -0.3228513670801407 0.8393116873011157 0.9659524019515169
Ni 9.32108328206896 4.915685474087314 11.680084451538317 -0.5409027695340556 -0.34814896530466494 -0.9674801514499533
Ni 0.11260444720949035 0.19194992176777315 10.2424779356123 -0.15220390783148627 0.9629884342271866 0.1358879442802821
Ni 7.523822434182962 -0.05133433924444926 6.4029671071207535 0.7063568575072287 0.42288296378344586 0.41984854783249625
Ni 1.9143659700780635 2.67720755483964 6.224849005155571 1.2101267267447289 -2.0907367585739993 1.612757625147358
Ni 2.7123670402137736 4.1545394447942305 8.138694197482598 -0.8912186605830522 0.9402907355193547 -2.859297600413798
Ni 0.9183519699388921 1.0085760165881597 2.7461542436070885 0.16494809487103207 0.20747311271743626 -0.23071125730977043
Ni 8.691109895613131 7.7691096865453275 8.741249893038564 -0.3921392548426859 -0.18287151211867214 -0.6267794148932173
Ni 8.56569468837768 1.779056917196792 11.905434021163748 -1.2640885256731649 0.7162365785147858 0.3849715334496531
Ni -0.16812736743544743 7.284022446496103 11.016088160846573 2.5159661111024345 -0.900893721778971 -1.6916023033604028
Ni 4.294208497451627 1.9161919528902867 2.889256330276241 -0.03047271466756042 0.872169357261085 -0.16690521859740287
Ni 0.7058606731574923 5.580166209198625 8.436556712102616 -2.5096257707067036 -0.8447102326088678 -0.024309266169325876
Ni 0.5694634835799574 7.229298859562437 13.675890186665415 0.5199238532895433 1.1613511000029226 -3.565843948224014
Ni 6.930601609942544 6.269167284931218 3.1074612763369083 0.5649724088887496 0.9142642295486061 0.7987450787326631
Ni 7.891348056337062 8.758261345156521 3.8505962210847318 0.08483123481378294 -0.4727554231338567 0.40216552873043643
Ni 0.6100878746563876 0.2969262326168129 5.206555219835626 0.8431585718510318 0.3186851515175931 0.0840413919226359
Ni 6.9500725491137 7.783363531967273 10.442820856949114 0.13363308680783437 1.4711266077357117 -1.265330625610382
Ni 3.768437242397411 3.9160344143058374 0.1437840353520846 0.394668706132759 -0.5794775444834601 0.9247738708306782
Ni 5.568092363664741 7.695995844145698 12.49717728992448 -1.0522537935529235 -1.1214038701860236 1.7786218040747561
Ni 3.5498130655890394 7.309660735777931 5.681797990304868 -0.616925404917273 1.4962740535356165 -0.782619119705078
Ni 4.481353103226825 5.762745857943265 7.0697033036547134 1.878400661337307 -0.10276982157007462 0.19149807744541858
Ni 5.923674567628687 0.353990990370438 11.657967700537204 3.0948124497597993 -0.31932484198412103 0.2572643252079505
Ni 2.0403587841214614 4.5251207932871536 10.317457820651155 -1.3902497295839862 0.42773206434563105 1.1753096190655434
Ni 6.00715738385487 2.500208333158886 7.330654879999078 0.5698618757705669 -1.4947491322506579 -1.5141378211899148
Ni 3.16835035013348 9.370086698356172 3.5540295952870604 -0.6665507812538842 -0.6815423695667102 0.5974151027984872
P 1.4995604358217562 6.430962404828563 5.032909844136506 0.9193308454382362 0.3984474564489009 -0.5877259005351814
Ni 5.788412095941606 4.397283363953856 8.537171159927764 0.37973265364821696 -0.022488668020819332 0.6874908738406611
P 5.7967128647461506 6.60926589994662 8.681254246546544 0.8808550579605411 1.5626229132744958 0.660379876556482
Ni 3.976981248783204 3.3398343584222134 9.661848008161268 -0.1615555242497153 -1.5977904623145642 1.2544875122482912
P 5.174714178735543 2.3490709904920677 0.900278466593418 -0.6641565699900949 -0.20263609634010912 0.46005365929647224
P 8.595720926152147 7.1483873252555075 1.543783689961257 -0.6715605757636498 -1.2356387549729044 2.9164483385931774
P 7.722826611998773 3.7919980104183924 12.707364680841273 0.8270403261329305 -0.5604169283075833 0.998425434878558
Ni 1.172634982523108 5.860743374278854 2.5575786635463933 0.3819792835905486 0.06502371316955252 -0.29718661532418494
Ni 5.60853415645995 2.4106047480162207 12.31093263282102 -0.470030568003526 1.4043823123306265 1.0251034583903764
Ni 0.9714694372969104 9.102626797559669 7.630971291928994 0.0053283541914488875 1.6107339098491096 -0.4825461839720335
Ni 2.168429119425705 7.741151653792869 11.804219607557442 0.25687634574091245 0.2800854368675241 -0.25215091524078515
Ni 8.635734171960811 9.276495762990898 1.3025285057679235 0.17520679648456275 -0.2152033914821584 0.047725331100421035
Ni 7.778612250159958 5.46230647166069 9.382325441317485 0.8141475293306624 0.4691566500390049 1.179131049694163
Ni 2.3268144959083887 9.224893116067918 9.41871746508987 1.0029176663219566 -1.9675742322801857 0.723574764047412
Ni 5.882217304800152 3.7790763871502624 3.185577938992476 -0.29402878642149366 -0.4749961395389174 -0.6692008172822216
Ni 6.254838909598568 9.327138837313575 8.490033786279776 1.097808856474903 -0.037116702346639295 0.6730551580313053
Ni 8.755000661563265 2.2904345832464936 6.0079669650098815 0.11294059145548938 -0.1754325393421237 0.7758938851661025
Ni 5.080573585278834 5.863202861332053 1.6071192080766545 -2.6389059798624808 0.6594231690701676 0.15455466745184995
Ni 4.129720984530136 8.363914271388182 7.789454488919475 0.17648000677003153 -2.4697926978701656 -0.3532271511585207
Ni 3.9956789401308157 4.555948227601676 11.55247154356101 0.7651901255953532 0.3474174864552791 1.1318276366225088
Ni 8.109441207531676 8.764969037119789 12.298565325763743 -0.6419013581363203 1.8918020223448773 1.534081097081061
Ni 6.516513426076752 0.6374133347917535 0.6114322079206926 -0.7280934778533719 0.6827885832689854 -2.143308104912812
Ni 3.5019834953953977 9.547840535382795 12.975051897865422 0.8508644251357218 -1.3387003967517848 -1.6751462146869085
Ni 4.461388403397263 8.533656143014234 1.4226073713970395 -0.036128370291441 0.5969811005848621 0.69903744102768
Ni 2.1209349338302275 5.3846369884693415 12.876782347355766 0.45053414984181117 0.6589153761958136 -0.0641197132980444
Ni 6.943644344315566 3.527798793215145 10.650813341995704 0.4234018124013934 -0.1891645442162355 -0.5361554846570572
Ni 6.315124291118447 0.8144032402336698 2.8404969994465796 0.19314589746148672 0.07994073949070103 0.31064993991794243
Ni 8.741240576799726 6.051511996961985 4.606017421611942 -0.37014321018756896 1.510621323396224 -1.8657935140962578
Ni 8.668024255772881 2.5326381605535224 0.8552195458301602 -0.045694416713321306 -0.4527815511150911 -1.2300802870485203
Ni 2.5362808099391314 6.612377523718469 7.7446349954943505 -1.078116263141982 1.5175126511994188 -0.5762670079659624
Ni 7.873144125647858 6.554281458325491 12.615476753935562 -1.8848590153681408 -1.5093679106050972 1.3021539650863188
Ni 0.9323505504166806 3.1449759068892567 4.381035843420606 0.6593043841041162 0.2807174140245681 -2.4750747722047115
P 7.17273065733887 7.298285608156888 5.545377510130239 -0.20357094944955265 0.788107910733791 -1.3556473090187686
Ni 4.259962003483604 2.742747295064078 5.192469998336645 0.26341800351417216 -0.0765293998163069 0.3262372528332381
P 2.0650654495195013 1.0836369529049046 11.297260633588545 -0.7345919410935219 0.13965023953619174 0.4393675917020304
Ni 9.365894390879129 5.165090504016019 0.45737795087373656 -0.7911209865285019 -2.241487993119359 0.021185375828363513
P 8.537783236819411 2.061432116372731 3.6447725564395976 -1.6101633820576207 -0.5058023262864966 0.26441276332727365
P 0.5209892296587352 3.466320933124019 7.8337420251069565 -0.8630594245400168 -0.7735564952821774 0.43059550193635515
P 3.5535022961688374 7.073428867565979 13.736430833129452 -0.052963696681224914 -0.35282297374156657 -0.8131933929475093
Ni 2.8298541281981935 1.4491223187535105 0.9811741632943229 -0.7895880948237434 1.310624721561491 1.601400805373642
