# total energy = -340854.653348035 ev
CRYSTAL
PRIMVEC
9.40022810323440 0.00000000000000 0.00000000000000

0.00000000000000 9.40022810323440 0.00000000000000

0.00000000000000 0.00000000000000 13.75818401869633

PRIMCOORD
 96 1
Ni 2.852546265682876 2.9288291179872266 12.589178611116685 1.2591730906494187 0.43494889380904445 3.0779917786580344
Ni 4.238779126264256 1.8897654873878873 2.2783690434804775 -0.20057175761191262 -0.9275151810212413 0.052499612560612814
Ni 4.109102977460989 6.861480410838856 3.6385585716762496 0.31779529271347207 0.9591433494494837 0.49002757995074314
Ni 8.788386200069564 2.223548792332171 11.679226175602375 0.8230821128161309 -1.0386940525906176 -0.11857824935724094
Ni 6.895330632791778 6.2246431471219354 5.898656391493885 -0.7624917528275835 0.5588038181841924 -0.6608385613604555
Ni 3.0877211762127876 0.4426426482727525 5.53563273653384 -0.8353059085758324 -1.9257421267357482 -0.37579963714239795
Ni 1.552128088858295 3.659170452175048 11.075654439640802 -2.2626926522214323 -1.5425371982682143 -1.3728125079441456
Ni 6.923860325551321 2.7399503316223086 7.372818047167027 -1.2700300879685804 -0.730953058789354 0.3615125310957645
Ni 2.14144719873683 5.192084474476339 13.419705698020378 0.10102378541324537 0.29865342967769853 0.14019531340638436
Ni 7.014111917045354 8.53708989807915 3.509189810336982 0.6969527905845094 0.3116997213386955 0.27746188320174797
Ni 9.194372658254723 9.23017812768507 4.060384414474204 0.3411061995252706 2.469877801384804 0.27511112358138423
Ni 2.163349730575294 7.2654082190357645 6.775520963566903 1.8807925586082515 -1.5613664151595756 3.9440593938967554
Ni 4.510567925854603 0.4033882350949663 0.4327517281008934 -0.7767896575074944 -0.7897978968417042 0.29804947754511246
Ni 9.092483584178709 6.704947809905764 9.770828495786583 2.0365119357921637 0.7534697518346314 2.2256330283649732
Ni 2.60660809379887 8.09981948025519 1.3663269372246702 0.9253719094259935 0.6606243884671203 0.11493499617769884
Ni 3.738414376380306 9.359374864847238 7.643758006145782 0.36365863090448985 -0.1396705512511659 2.3562000746529743
Ni 1.9971442947659024 5.829748958279861 3.726651870762508 -0.37615959158497797 -0.4867769342239293 1.131798068936154
Ni 3.6372209191953 4.314544966014479 4.9721247734029665 0.7781525992932921 1.5343916863429445 -0.8849785932106113
Ni 5.6243915717806825 5.0079340029246175 7.334941707451696 -0.16557955780744388 0.5249727285673604 0.190937062735626
Ni 1.2533230332577556 7.880098544979543 5.084075851805115 0.007618435777206235 1.7993685497038043 -3.713239378923263
Ni 1.4265222388902448 8.91275121990771 9.179872806168529 0.627232443270236 0.7486489334072204 0.0996868117693767
Ni 6.900810965865522 0.27261319960847374 8.008625045866996 -0.3406698833188004 -0.2570092717743509 -0.195071910839606
Ni 9.065222922233842 1.5796707576508697 8.271806056442545 0.028094444243370972 -0.40750596710674336 -0.05285828145161219
Ni 6.127811395848108 3.1126693820064717 2.615512930026586 1.3046469067115014 0.27787351681786987 0.9884330995525366
P 3.7508884792771484 8.821080193946893 9.992499978425526 -1.5449841171468102 -1.1453364697422213 -0.7661504326260934
P 8.617659254468625 0.05003835503404629 13.161244542052595 -0.1076636593272662 1.2056406659489174 -3.066024064773197
P 7.2075592143431 7.861899703074278 9.598658615148219 0.4587403398016873 -1.3383460987361597 -0.8104459121093591
P 5.080390962328428 1.4178928293504551 6.00762101737883 -0.6740812853029745 0.3074867116986124 0.46067740892340014
P 4.771245655645353 4.8883724997257225 9.268104288610163 -0.5703305878768693 -0.3921371979601569 1.0349690383305465
P 4.076474785181458 6.613295584401461 5.883563385004684 0.06368982484947741 -0.8556716167163779 0.332177272466757
P 8.098907658114275 1.3454640706314143 5.984507736140884 1.2365311848801868 1.2240605632170016 0.5729387149236778
P 4.962906909574298 4.94687012016811 3.095660608998524 0.13586866100657247 -0.22373534021256952 0.2445013691153273
Ni 4.013173648099819 3.208908918900117 7.298441561153167 1.5202115381878205 -0.06866310969435271 -0.29986827592140614
Ni 0.22207381240833723 5.406531881699892 2.3928234026674247 -1.0125076240032367 0.08041150847953248 0.5485865113315584
Ni 7.9072746048701 0.3286423201106115 10.274392143346338 3.629124967670847 0.7552641247308928 0.5680937281265507
Ni 9.220345488928404 2.358404466904963 3.6041631364844298 -0.7452417074978843 -1.1650408901496838 -0.0872940945319787
Ni 3.7775757272983497 0.9979564324321273 11.897362232393919 0.3582873392902475 -2.652836216790328 -0.7357607645906425
Ni 0.5873666824695871 3.4966029047010583 13.234685705354899 -2.699364956479487 1.3948535469045849 -1.8936673576883902
Ni 5.172494398789059 7.345582765838452 10.88509019234943 0.19176315818134715 -1.7572423099577157 0.5434957270722124
Ni 5.008347612967918 7.586256809898621 1.4091130161585559 1.2586092477261486 0.3783797391647483 -0.05926727030174954
Ni 4.9073421603480485 4.018447176151913 12.25445622336954 1.471489133281453 1.6823023661157155 -1.2181472830563602
Ni 1.531588590117074 1.137061010177016 13.35379035746051 -0.4927917729594417 -0.2066313335424312 0.5226991020418352
Ni 0.612109023264446 3.77608109100551 8.813877739056494 -2.097452222920962 -1.1207711216980312 0.21327017901518752
Ni 0.18199875930372786 6.295248261559148 0.3114869035418575 -0.16207154465418536 -2.381420796892976 -0.8090410613420324
Ni 8.941515918373675 2.5438991710974137 1.2149870223806638 -0.8679267799346471 -0.15217382592449924 0.6091758428788411
Ni 5.10893005531623 8.491526991718192 5.7609374073940565 1.5691450306637298 -1.0816828974473176 1.5917439990101683
Ni 6.564329795411522 1.4226587450766788 4.410007104031283 0.9271104893836548 0.5706144376658754 -0.07568633508972127
Ni 2.028616258969841 7.283024246789105 10.901957961933526 0.0388982197270943 -0.25985136920883634 0.6297009594153865
Ni 5.811644118657165 0.05951472513977831 10.256079558679167 -1.9568149368811527 -0.7685513287581023 1.14457876564059
Ni 3.2902396937783966 5.969502151774472 1.5103186936402961 -0.38846334865299553 -0.11038234381000989 0.4875181832653281
Ni 7.6860402328451 8.733394864766982 5.921852394740492 -0.6842942212802344 -1.449923234185219 -0.5389392180497815
Ni 4.925146192666526 9.310907287954912 3.751815341783274 -4.0226050528121435 0.6084785597015006 -0.8167975653589996
Ni 7.679168665989342 4.5271123275866625 10.909648288670455 0.5145975559806234 1.0163239124255337 1.355034100914802
Ni 3.131310034639808 5.246718601105159 11.384416217011 1.260665358924229 0.5300002636889388 -0.9921493720618589
Ni 2.2622495320656286 2.0904321599868965 8.058691601585814 -0.7087891210978051 -0.9940255060386493 0.8391455940368967
Ni 3.004942766182953 2.197350356180326 4.361096776388059 -0.44365490622347464 1.365251664877752 -1.8047652952393434
P 6.003681381716384 0.43554265587035257 2.070978387609342 0.05204709840422649 0.6798261582065518 -1.1072332351125964
P 0.5957610863029554 5.373762685996508 11.445502660315322 -1.2116380211829327 3.102836605615856 0.9873177550011706
P 4.951213025622774 2.2372825258154307 13.221821492985399 0.9527361603715591 -0.10877334745167719 0.775267050215381
P 8.936326992375893 7.620934251938147 2.8622529413809015 -0.008927127286300754 -1.8023998803309607 -1.6723234005261327
P 7.803825092903449 3.1727274403394956 9.392835917350327 0.19051643025843962 -1.2951811333129113 -1.1873182134906453
P 1.9860614256510742 3.310609988410994 0.8638490160285809 1.2660052830799036 -1.113628597115979 1.5272777010059826
P 1.4807803563887916 0.1641261053189761 7.0622269853780475 -0.4145425622385506 -0.36479351583988145 -0.19439725337008457
P 1.4204496914363185 1.748094647328878 10.069601590611049 -0.4606671245107549 -0.9047812297588353 0.04612379094125605
Ni 6.620148350800707 6.421042116092335 3.293379370016185 -0.1635815535408086 -2.2481929159433607 1.1406830301306095
Ni 9.139306121126086 7.879675534707983 7.571129022564869 0.7012920413898115 0.6506860463074858 0.23197983960954888
Ni 9.15160161968605 6.339542137105432 5.7328702058647485 0.45600520025871144 -1.0135309230614287 -0.11315373590755996
Ni 5.554425672864936 7.487065601332324 8.241702765472803 0.725916267696395 0.17576858252530372 -0.8080069636505632
Ni 8.318374787226988 6.905257273831013 12.170201037480556 -0.023524822594817547 0.13013690072911782 -0.40667935744038997
Ni 3.139648037103635 3.8955485919218362 2.5232092687040835 -1.1577695532992511 -0.13722568925509915 1.2260901920525207
Ni 7.96080890479287 9.26741243181046 1.3232184304615748 -1.5780256209828112 0.40769700007162685 1.7894829151589762
Ni 2.023436733200316 4.42990456718256 6.495403561740985 -1.1711652578798668 0.6166238145164542 1.1000202623039248
Ni 4.949003971982415 4.352324483378765 0.8810627140125273 0.31980486694433313 -0.21361085018405793 -0.23297948451865685
Ni 8.506886964689889 4.278607893388536 6.905232833237545 1.3127301979402681 -1.1810035841265274 -1.3881727924502993
Ni 3.5574035810663736 2.6855512106999093 10.419238380510514 0.13097867990412282 1.4837877481431478 -2.0983245982235865
Ni 8.105234011731136 4.3507264445751 4.587556735301043 -0.9990764381989955 0.524896109693154 -1.274748319379856
Ni 7.862896127269504 5.826449478161706 8.246064471383983 -2.7028863393691838 0.7361163481578484 -0.12385749547830927
Ni 0.7212936144906019 9.100219972034099 11.579025382521293 -0.6965195597018328 0.787651797032979 -0.153591017987
Ni 2.4985994711276462 4.802416812545072 9.260661187876389 0.2551989580384895 -1.4233645098600842 -1.891709462631071
Ni 1.0621317907416525 2.275475653223019 6.0120372446139 -1.0478299534536148 -1.7063506653141711 0.42400062232765684
Ni 6.532998834631436 2.242668856606607 11.249090531025363 -1.1521313811768674 0.6053441278375769 -0.20326730216620478
Ni 0.8615929612469365 0.7630964295488207 1.9103237865856217 1.2545127090592718 0.024320064802603278 1.5729291802965104
Ni 4.119659433793433 6.47064712060374 13.062404902023104 0.8120312543186079 0.8813325118175918 0.6170210499548728
Ni 6.403238083773858 0.27182170038924686 12.824416503175918 1.0615601585555137 -0.6061614815325496 -0.4170010510813721
Ni 3.5372024905423993 6.626126895972064 9.057742220587038 0.6083592605148168 3.03917660556305 -0.13454094333408442
Ni 7.219431702631504 6.525516252938982 1.1434700858025373 0.8092876301351998 -0.24782040618623127 -1.4676103670523368
Ni 0.48885041029213183 8.32314070295321 0.5945804176338949 0.9527271615104947 0.47706150670837844 -0.17299179111111498
Ni 5.772858776869395 3.6578826209038593 5.439490962014065 0.8736006903909729 -0.6710684666185798 -0.7240200791149466
P 2.5148430655554854 9.129012871184834 3.232952822735492 -0.04210438536921781 0.6347734888422875 1.670204554410917
P 6.280019891783048 7.258264045560558 12.881443927918934 -0.7505767465575526 0.39599025315765995 0.7234678061559024
P 2.859088824549645 8.693895105631691 13.026455609100427 -0.7114496986491038 -0.8971825914759709 -0.4202727798541085
P 7.675361573545317 3.5100922322496397 13.382049323646255 0.13264706874548124 -0.12276194842128535 -1.6255866585912264
P 0.7877851890426155 3.8312698311014852 4.668936391366258 1.466774501414603 2.5480089984705923 -0.35800580349408667
P 0.7040573559588391 5.675829620802174 7.822738352156234 -0.13178240675234076 1.5964604306492312 -0.19603118942908174
P 5.077777698873024 1.6982076359697673 9.378128320219657 0.2701524940245283 1.7564784352084974 -2.1015695875234455
P 7.75638214089112 4.359139648864982 1.8956848111212268 -0.1373017939086732 0.28330548646671855 0.26686970950819844
