# total energy = -381169.49252900464 ev
CRYSTAL
PRIMVEC
9.25897140054639 0.00000000000000 0.00000000000000
0.00000000000000 9.25897140054639 0.00000000000000
0.00000000000000 0.00000000000000 13.55144055586876
PRIMCOORD
 96 1
Ni 3.909017307952005 4.6082270421328575 0.2019770513045798 0.16651132559309387 -0.047417312941698986 -1.7889460688188996
Ni 6.331728992148889 1.7757688428938057 11.962154796710431 1.272096740689622 0.02496284059292475 0.19778750999855615
Ni 8.740191119545258 7.1227043906896395 9.632553179503358 -1.717639865074745 -0.9236510700801447 0.1783060042351768
Ni 6.273508580737827 4.642975961348144 3.423378708913031 -0.2513063078523027 -0.15232860633480863 -0.21603745734767954
Ni 0.677399301432777 3.2581301448834834 0.8183902866048434 0.03124250295404942 -0.6433218926329308 0.45209300968849886
Ni 8.604371269833289 0.27175543656494716 10.205291847274042 -0.8582396345538704 -0.9177285339481226 1.5294906494969014
Ni 0.384206568662354 5.656101857819178 1.5503656683527232 0.40096585199538043 -0.09362775005949037 -0.30401495109992804
Ni 4.170620282508009 6.785890792423065 6.009372351639508 0.22851836342350967 1.1840904505819672 1.2129557115530916
Ni 4.025652569171018 7.8364229328668555 9.84563636685876 -0.6273139472404488 -0.5441482730545467 0.3640756638372504
Ni 6.866971603925399 1.938180458123043 9.16379553690278 0.7974474429671621 -0.5748251333131132 0.14353851884700441
Ni 9.212630129126916 1.6601150326305136 2.526937146208796 -0.276924265530723 0.9042107019673459 -1.3303414832641283
Ni 2.6645004602128637 0.5347352201503451 8.778243639713386 1.5821021050450301 1.6493421091396112 -0.07907504905629607
Ni 8.624296576028676 0.28995487051367236 6.399464848344803 2.071239569081336 -0.048981572105025316 2.5881385195016264
Ni 4.401890867149472 7.852265032727595 2.3640218429419058 0.728281682604778 0.33898401097594527 -0.698467684567139
Ni 4.2698764546337395 1.4746393199418364 10.617689205793786 -0.31930787270325656 0.6859695521001283 -0.38880504826313034
Ni 2.6562599757733207 5.438099379022507 9.691718931882146 -0.0869595940106954 2.0304107079904323 0.7715852304884195
Ni 3.992098057250902 5.017056919018268 7.588264910507098 -0.2558869852444496 0.3708021839278065 -0.2658397255817873
Ni 2.4930983838703717 1.9607260531907813 3.0407674610022877 -0.35530614517473647 0.7430858374971461 -0.9662714758538326
Ni 2.6341865882408824 8.8992972820274 4.049821261904208 -0.6970895732726897 -0.7794841736205221 -2.083993269202579
Ni 2.0053542947622383 1.4846204909820915 10.999392148621924 0.19549074354457946 -0.31556434650042425 0.814826814785874
Ni 7.727518912666964 5.872021068077761 5.013653321175598 -0.5715127811104287 1.2849453145175163 -1.6779556591112457
Ni 4.981780238440001 3.623248418354195 9.11228695377287 -0.9465721976526924 0.104981998730045 2.5228497255961457
Ni 6.795427532841862 8.014704424870674 6.17295244904433 -0.14381054156146844 -1.197590541950931 -1.3497872506935658
Ni 7.438213096040046 8.791226569242744 8.388029850484319 -0.04496473763614837 -0.46354007518317586 -0.6997465512795625
P 5.808041576530299 6.734447947989245 3.9705987259378475 -0.10738983684058924 0.6739229053482393 0.3189360911861346
Ni 3.442605888673879 6.752475165072155 4.058723762790298 -1.4969530818805123 -1.9074813807533473 -1.4163415415750316
P 9.020247223863072 3.792104277594581 3.6267177548929554 0.016737367359338916 -0.08401156712596498 -0.7401113282498544
Ni 6.3505247038480706 1.108372934032357 6.567258703579328 0.2849412222979286 -0.5308893511621116 1.6260569133594251
P 7.768915773261567 2.146868411811646 0.5087323252065112 0.1353788658543475 -1.133277481695158 1.5337460823391456
P 7.945715829860523 3.008674940647344 10.681854802663985 0.7395672828209263 0.8380657307091566 0.32182138315372966
P 7.028661019394766 8.814105487276576 12.196445657783554 0.7366778770882733 0.9623109485441879 -0.6472865337076337
Ni 0.7943428863954268 3.44142999932127 11.311211153917098 -0.7769788907001651 0.0552658624518403 -0.8247445881202183
Ni 5.911501321617324 5.830114964062738 1.1750504898109233 -0.8607667718510983 -0.8027847960196755 0.48587036324926003
Ni 0.7722713506572444 1.1360294812468676 4.575915084158569 0.12981911237838287 -0.6210872496044465 1.0464189320387012
Ni 3.6386460875934756 6.278786194367646 12.10638271824212 -0.32272641146650227 0.8842072622622256 0.12471238727943684
Ni 0.5487579321544885 6.948274630738462 4.121981980475018 0.11777966471534554 0.16194118972390822 -1.2695564907662718
Ni 4.539599547002642 8.75317219728036 12.017512334201596 -0.3382844138057593 0.2519238868316436 1.2306801254160482
Ni 7.685288744657128 0.3500918889797745 4.526858276623704 -1.1261979491405572 -0.3019817227199832 -1.8913021998903232
Ni 1.6758645427784489 4.82217409150872 12.916609369869047 -0.021208515756815087 -0.4643417451488648 0.20010895904288117
Ni 1.618977423231762 6.971672051163995 13.298516010065352 -1.201879656244588 -0.6866802050139077 -0.674413986052045
Ni 5.006205404677657 9.062079256107852 4.631868899400193 0.9585324553383621 -0.20954902140985848 -0.6565576745969145
Ni 8.751644467019096 4.810267054442145 6.548638912334474 0.9842077486172793 -0.3165753042634419 3.635181715387888
Ni 3.476901118296426 3.7854748541578247 11.368669551991784 0.6856180822979805 0.33317357494175526 0.887137034314511
Ni 7.087807327933868 2.283253058771721 3.347598658468718 -1.2264843421671459 0.18513768244502954 -0.6574467620700871
Ni 1.2542480265548264 3.4082088103672477 5.330919379275023 -1.0444800631447753 -0.20518894466894982 -1.4099582637565073
Ni 0.4923541309086377 1.8694603732800241 9.299052441160905 -0.7201942776109532 1.3891734658006722 -1.3214596073934661
Ni 4.219350248356678 3.9824409502054605 2.22276142170558 -1.1644096843235883 0.7463282556938436 2.826881131756306
Ni 6.551749926684683 3.5894716911233497 7.575729189290585 0.5915097930576457 1.5273484063429181 -1.9447803743141214
Ni 2.771876750151492 7.093334933788258 7.829113900938119 -0.38071224395266695 0.5903227147280801 0.07768433935635652
Ni 1.2912931706476478 1.802527269894119 6.987624332782971 0.006876158294542995 -0.479830070592451 0.5851576255873729
Ni 5.257114267404817 7.716621103469951 7.839779309955996 0.8806046325126318 -1.624299050128054 2.3367167691173822
Ni 8.473560523584005 5.508680517092884 11.3820441360063 1.6976945323010695 0.4205306615011854 0.1691341079279216
Ni 5.993202484195444 9.258249080625374 10.234779819007814 0.7199070853878375 -0.53291769444605 -0.562261951936122
Ni 9.07739359460561 1.2789602209021746 12.489305993485011 0.151567559799068 0.5759841866182209 -0.02024512340228126
Ni 1.061513280382327 8.40035909664128 8.799628159782564 -0.2787744313655844 0.2693536522723168 -0.22986073638401705
Ni 5.823818863592075 3.2265385348748086 0.9205491462269739 1.1407226251192935 -0.859606690104726 -0.9848489817457039
P 4.685363531869747 2.1903300230017746 3.2455833129014335 0.8943620913080405 0.3223443455367352 2.2281398539472272
Ni 6.314979513102672 7.007652413559573 11.053219178160443 1.443119066779192 2.274308639193806 -0.26951691732305844
P 4.823479606459253 1.422835375628081 8.486928626318626 0.42866614612412623 -1.254379268805201 0.7300547153448008
Ni 9.193325174007313 8.114673537784993 12.2215837648098 -2.646973587361964 0.3469875980067121 -0.15813569993488893
P 3.3821725831268044 8.178653029332455 0.4739972944481459 0.615249816987063 0.7154349085490969 -0.7997871468439323
P 1.2215360810212252 7.209553541299653 10.846870966514393 1.8377468923716864 -0.969437275176324 -0.8524320267331578
P 4.816729816395853 5.7047484929263215 10.455302589787006 -0.7949637573133599 -1.767910588304839 -1.3329172144111043
Ni 3.3228040592769745 4.405594455661626 5.222318127436001 0.4447342553305824 -0.3571005180709979 -0.3138414502720466
Ni 9.050542577892493 7.093446041443622 7.225072503062706 -0.5461606754988853 0.23944838007245212 -0.32057902610619626
Ni 7.680964805069188 6.605553808795002 2.4712944324021926 -0.014426459837975155 1.188332770798089 0.6141434712967616
Ni 6.506223564899029 9.109318527580378 2.439937074366912 0.4725291660556636 -0.19678966486166108 0.1604697473847043
Ni 0.21138046253693907 4.507304255176659 9.092366277063121 0.2829794705858675 -0.036599396390588575 -0.27485761280968146
Ni 8.003112192827631 6.4947979943390335 13.429436938072874 -0.2943357761389512 -0.1732242188368952 1.2179559929811605
Ni 1.7752595994733844 0.8024444862657639 0.7998575296900242 0.4515566775690546 1.358885356340092 -0.4146268944222407
Ni 3.764669945690799 2.585873276099832 7.166950236747216 -0.5076092975882485 0.5854782421515852 -0.9194635143613584
Ni 4.302986535932398 2.18372837647886 13.11521985921608 -1.1779478280193392 -0.5168971506480775 -0.7524420819010654
Ni 1.9590224024751903 4.505035807212964 3.1063830127749936 -0.9306362431487263 -0.042173548044256395 0.527887074000678
Ni 5.510560088262801 2.6717039398690035 5.292027070411765 -2.0451428719942846 0.2887870784065801 -1.942001526017404
Ni 2.119369267108902 8.811975923882086 12.189723644633995 1.06101251358216 1.086857756780038 -0.8142174633366492
Ni 1.4475475699754292 5.799727020320513 5.987297112312814 1.219630809580422 0.021878802350962318 0.08192383135900085
Ni 8.042398007970306 3.7930672106077408 12.771135190803017 -0.48367438403920565 -0.23835360434637656 -0.17617918770016108
Ni 6.069450112689416 5.337111779267345 12.426467207199293 -0.4914943943042568 -1.91000157607204 0.7619559349287716
Ni 5.48358870492304 5.003427713293541 5.6548944879642145 1.5393045502635296 -0.05289684799903147 0.5731150926005419
Ni 8.594686385874006 9.101883573642228 0.9119540431873924 -0.7331788627960792 0.11648897092838004 -0.1000177127462342
Ni 7.801461057312121 4.130871518801316 1.6477200477774618 0.8450401051444607 0.539809793580193 0.9985701879865384
Ni 3.1140975876458103 1.4082895317465958 5.168167033902668 0.722071440029008 1.822054164226778 1.2110880622167335
Ni 2.680092567849033 6.188751957637179 1.5814934039002504 2.596940948284605 -2.0236859876720894 0.6367419254225679
Ni 7.707528793672613 3.302397286575005 5.42908669637818 0.22280331531660338 -1.2448949834638494 -1.6121521303528752
Ni 7.1431019044203286 5.282344964143866 9.620777619828964 -1.5457420783587572 -1.394059847358696 -1.0055062529847394
Ni 1.5606551631366155 8.08721142896737 5.897031401300338 0.3742829433875554 1.4123362770703807 0.952160233263431
Ni 4.138213883026661 9.224342727796603 6.864455015531391 -1.6096676733681248 1.449735286544129 -0.566452850089018
Ni 4.440639661957885 1.0391713826827575 1.6147627395049304 -0.17666229798416672 -1.4865583689097495 -1.068568728662863
P 8.294816083016169 2.3132613846914496 7.3378884386285606 0.8244142013639931 -0.48557082973097015 0.2517678208697535
Ni 5.979230696533342 7.998010499652139 0.24336928241354205 -0.25760448215618864 -0.20028610805069375 0.9943348097489522
P 2.023233368304662 4.084558144456829 7.279806911786705 -0.3413106022265928 0.035564527368171006 0.9861147358320049
Ni 2.4508219210041333 3.233177217282845 9.423549494894093 -0.12123548447442992 -1.2054552894109885 -2.1836127180691296
P 7.013300386040608 6.374005455015127 7.77961081098754 0.8102798188451401 -0.09850050477075939 -0.6599062793541732
P 9.1593447494083 8.79812450284663 3.0557410693569262 -0.5031476622724689 -0.6116361314938756 0.3428059558251967
P 2.180071082823108 2.615696422593953 12.982334177502862 0.29443630627255746 -0.2306688341076092 -0.4605357411392133
Ni 1.4733152870487412 7.983112814861999 1.708552414986721 -1.3910092334578301 0.9682825927465903 2.6470872301216923
