# total energy = -381175.0818049388 ev
CRYSTAL
PRIMVEC
9.14393197594821 0.00000000000000 0.00000000000000
0.00000000000000 9.14393197594821 0.00000000000000
0.00000000000000 0.00000000000000 13.38306872961580
PRIMCOORD
 96 1
Ni 9.027895364232213 7.775889926161695 4.865427621291823 0.2796480922197893 -0.6208964737498791 -0.06272977492905325
Ni 3.806399378757562 8.590623398777646 12.0234556709528 -0.83063061458735 -1.7768014630365656 -0.5656067000386388
Ni 5.219676343034604 0.7911924200435918 8.010395202631193 1.1541669235496574 -0.5282218316322773 -1.1754335462379177
Ni 6.768521241061033 4.961908903914464 13.326765881900766 -0.7471533226983004 -0.2182702033329402 -1.554331362689665
Ni 2.88787313560409 6.182980420504193 6.368561089559277 0.8428022169528776 -1.5798847856787372 0.16962184619761755
Ni 4.206985889591697 6.049049250557663 10.226390513060762 -0.7270812345387736 -0.10956010501903066 -0.7143689291784278
Ni 6.3454223699887375 2.413934003392809 12.302171857963122 1.586686381981603 -1.1474352612527787 0.8950909990542648
Ni 0.07526644631534636 6.149102152964636 10.105956700932085 -1.079088140136948 2.7704392467184933 -0.9934688622042309
Ni 9.035786577426986 4.78606195032385 5.169223784606463 -0.8202058197096004 0.09140991647256516 0.4221543131475375
Ni 6.088102983529713 2.4199598544882392 3.5649822041954464 -0.029210560125685178 0.16423769906756874 -0.12601182281715073
Ni 0.5196194726019332 2.946083405821856 7.211868434843072 -0.5422677682023822 0.01588350399947587 0.8518632987138813
Ni 1.6649088251194384 1.9259315039815719 9.066600713400415 -1.7172853099488037 0.4100107358064681 -0.36642333813382055
Ni 6.437446900223043 4.568280925225432 5.0082658952627215 -0.14845266831917014 -1.0556221958045238 1.1151010678964473
Ni 5.6720906596485525 4.715397644913404 2.9326582850656946 0.2930191142100566 -0.27200214563875735 -1.7472512601832748
Ni 9.082100592295504 8.170002533239282 0.6732658740307957 0.5275685143189947 1.137040805392332 0.9526294595903658
Ni 0.6304832456464284 5.286692219633097 7.318664986996448 0.2768515033112587 -0.11551709393341397 -0.5568621210767893
Ni 6.065234009949029 7.813188024216716 7.396434127461748 -0.9652818582470538 -0.22925575581016644 1.1814859230795847
Ni 3.3020749609770643 4.836243848368948 12.315193731324277 -1.415568153744117 0.36561883995465416 -0.2255903911434373
Ni 8.848290254647331 3.297457275388002 13.242371962803237 -0.8282214909252253 -0.5556526741497204 -0.9229658710876619
Ni 2.659137680137956 0.5955296517201905 4.577946061200955 -0.9777529941308709 -1.2724093868340345 0.5376991749950932
Ni 6.851795028505769 3.1597862373109233 1.483713585784185 -0.20282995751847002 -0.08674747799988931 -0.8837676036216457
Ni 4.620693942644256 8.681450073938354 0.7258361670776037 0.0322971694708089 0.907925688925088 0.4165367098504439
Ni 4.723874069747188 0.4937832931328322 3.3674879063205814 0.979440666245939 -1.039632505244487 -0.4976987233427558
Ni 7.033430090963466 6.395092207849703 9.135443547584442 -0.8571088633835368 0.16279788129724868 0.9555389199276769
P 1.2599972345157469 4.89392377053886 0.43227297790696223 1.065581621010081 0.38663092342994704 -0.9490659106088235
Ni 9.052739427094554 1.715877101304457 1.5272085264604096 0.0554070160153949 -0.24366010416095457 0.8715286383532926
P 6.682403690807982 2.615475405508702 10.05393687258322 -0.33405237800228277 0.06056696294977957 0.2213647830978639
Ni 5.373321830070281 4.623583425111867 8.80324907509366 -0.09250777752243423 -0.48884564382750006 0.7376739224529554
P 0.746183244251429 2.1011018066145812 3.7003251972210887 0.7103862903815958 -1.066981329571085 0.3087624930872424
P 4.052910637758622 4.47598207703534 5.394581471643687 -0.24205702133989276 -0.6887018634296268 0.27693120750925854
P 1.0008856374122552 8.38777441440584 12.104155441579078 -0.16715487271436374 -0.06633857532623415 -0.2510057458927483
Ni 7.588750216724562 -0.019620134590992756 6.621005845943985 0.9316759972671502 1.3863987312690123 -1.424734136514101
Ni 2.0476555248956303 6.591522152056118 11.036146943565573 0.7401573509964414 1.2743791089658956 1.2474966827527547
Ni 1.8214620824864454 8.091190984541997 6.52537037701835 -0.3601416188901669 1.319785819235469 0.5447414265538554
Ni 1.1461735707283218 8.564426034000094 9.504427715518856 -2.4022806710611206 2.8403431707984823 2.4908328063699168
Ni 8.84869258764915 7.293602384162663 7.934353350894158 -1.4459385385058583 0.7741712460480409 -1.4078414745238206
Ni 2.190392301222888 1.0287837735156802 11.538332595684125 -1.0501030657585075 0.3542802750133834 -0.42921430531811233
Ni 4.28953730641953 8.276062998877967 5.692113127241365 -0.9230095798414039 0.4199714465636058 0.5273517703224982
Ni 8.46029493798377 5.006000943341116 1.3535497157637806 -0.1172235351015594 0.7641200324596259 2.2414329715117076
Ni 3.1820974310481756 0.25240635187089844 9.166438733408691 1.6176033832754335 -1.7364127748068738 -0.2894995310925724
Ni 4.5148986510294975 4.1987380630544004 0.8616729324236603 0.857971211383832 -2.9862458190022894 -0.13707965059553812
Ni 5.391024482150331 5.943857458445633 6.569186269702845 -1.4213461938784748 -1.55106220502009 -0.1151327140108017
Ni 4.788174198583401 0.9658735223221163 10.77928566809271 1.076196934632082 2.322440461704026 -1.7577503599423856
Ni 8.22348539068567 3.403874354369208 3.443423688448045 -0.33780156063206984 0.7240612167655273 -0.40390282313651726
Ni 0.9154355941849508 9.059761966762673 2.812398207642347 -0.3660482141825889 -0.143007843154515 0.7570667251572704
Ni 2.845984783755585 1.621978065038947 2.514317001739912 -0.13576427421822426 0.5652279765429814 -0.8731332638362511
Ni 0.6306789257882225 0.7993094883552962 5.826827017755072 -1.0523658936507552 1.1031444097552034 -0.1974496670431632
Ni 2.435970879174276 7.066147079156864 0.09803117907283136 -0.15168583054448714 -0.44480547488815003 -0.674534056569677
Ni 0.9644379250201701 6.661253776416891 2.1232904716649155 -0.32140203622812386 -0.31684938386043493 1.0935428821096973
Ni 3.9519982057568526 2.415726214037277 12.329579879318874 -0.5037906951731065 0.3039247053789669 1.0980654525703992
Ni 1.8671634539203747 2.9234064548102223 5.49328107213545 0.7152814136903681 1.0572916130871468 -2.1988161652824454
Ni 4.2126368394808855 2.2849405566504246 4.8944824647754785 -0.10629994621052015 0.31868103775253503 1.3527823287661476
Ni 7.472174229447418 2.571675971901555 5.627567026638131 1.1862769167103246 -0.03211205004319631 0.39064955767103693
Ni 6.935608307930218 7.583602183087645 0.44724982389968587 -0.20749933796968134 -0.08644460204748983 -0.31472590975952897
Ni 5.366070692105674 4.112318763049986 11.346633721821831 0.38545592928523936 1.6265274252379407 -1.5934833502987782
Ni 3.247897164709351 3.892004868826479 7.447088766783984 -1.370228292156737 0.6943297511393655 -0.7533573946264832
P 7.445391653030855 6.5554859165977115 5.851533007246334 0.5286997997099604 -0.9233759620418871 0.7007798776400834
Ni 2.785077053639258 1.3924287996373146 6.977704227031935 0.8076398101191316 -0.44188727280009055 0.2969032797558112
P 7.520774227280818 5.408416240547155 11.084446106040794 -0.32145705783577544 -0.8947598409670912 0.6163206814537385
Ni 6.197775302252912 -0.007772342080600197 12.16140834213115 -1.081075602880622 0.02681712019284414 1.3517204631605366
P 2.629456477321923 3.1417269718883523 10.47912970405135 0.6968805425856772 0.21326375125728433 2.3377549805739095
P 4.873770544720458 6.150784636426789 0.2571520525059943 -0.5848246677279862 1.5204820182403878 -0.17509289661451782
P 4.737215066330242 1.8340075569977203 1.2504162227133315 -0.2939323700529454 0.2791184449685644 0.14015443286611992
Ni 4.113379459145691 2.4299358841469862 8.977563505704618 -0.2680472747560674 1.3995905473689378 1.0804194573538617
Ni 8.478262764087747 4.114120117626314 9.396425993146394 -0.9332073463100122 -1.0436459972792542 0.4775595293907195
Ni 7.5509400584854065 2.4212217170848547 7.977326173061203 -0.8657523979911477 -1.826646668693467 1.4100333399688167
Ni 1.9238192557220204 5.193350963211019 4.10888338785036 0.05405204464939724 1.0387830127599982 1.0402932787569372
Ni 7.318428159161287 4.714858152933691 7.494491823936972 0.6417563479180237 0.7848858042520676 -2.1784795106076222
Ni 1.6678257393826286 4.642666810902705 9.287487932151516 1.400154390292208 -1.716036268033051 -0.0826815354606318
Ni 8.247917976614334 0.8749426063382096 12.769227438270548 0.7626897277710027 -0.11785654069986799 -0.2306192118165964
Ni 2.0253351872265184 0.18334406332224293 0.6855662911682351 0.475057331794156 0.007287277690032611 -0.8132635840638123
Ni 7.789578392155411 8.156679824519948 11.055980131768893 2.0910733159778117 -1.2946530287235833 0.6286684043858141
Ni 1.7473962344242553 6.787348596759805 8.700399958324043 4.310396085854041 -1.7419373041695292 -2.1872150907084076
Ni 7.367064732722125 8.933511699578148 9.017578265915105 -0.21884175956569407 1.3036539466706127 0.16014116040069193
Ni 9.071996547590725 2.217860672528915 10.973969121313957 -0.42029746244445676 -0.08234934893219366 -0.14749518950190726
Ni 0.7125308318288021 4.529912987142845 11.449095135880604 1.3593941776557106 -2.1390724695649093 1.405820844549366
Ni 1.9271476469188893 2.483757067072178 13.73383909799605 0.30089106075896566 1.1511433062319854 -0.4622354974391394
Ni 3.0922583005282966 5.690460818754348 1.842621140809397 0.0054656511002615545 -0.053124647739121414 -0.049616377475546806
Ni 7.923335827396611 0.738796776095301 3.8840880526224977 0.6879264187161831 2.0723178897471795 1.4051852678478962
Ni 5.414451235574445 3.1266760600475667 7.016461696611738 0.2780632642311727 -0.3950435729736745 -1.262170996935478
Ni 3.1274350063919076 7.991412400090809 2.486707813883248 -0.33090766172571395 0.3826446850886894 0.5664099126662245
Ni 6.706369936211811 0.8100755537267065 1.5615229595496665 -0.4917805580861079 0.2933934668303399 -1.2183861385400436
Ni 6.370632190125461 8.130939656335372 4.669967848255704 0.2929702632499922 -0.6421990918823972 -0.6556960979275676
Ni 8.920134127267655 6.313546623526417 12.6994747828665 -0.060071768480915895 -0.04899211362798659 -0.5113561662251903
Ni 1.232602014664596 3.871879074803654 2.3913942113590685 0.2390640001498399 -0.6308371299023587 -0.36724094893910947
Ni 4.218534675530282 6.237935450979966 4.042636515921254 0.04165109988188311 0.5881683873892387 0.7144787152834147
Ni 5.337148435633982 8.07224475772905 9.912290052933619 -0.258465030384271 -0.1078328379152788 -0.6212587421853043
Ni 7.361358919241779 6.041542082500988 3.5882151062641396 1.9043693174869267 1.901370125649287 -0.6875538658681126
P 3.9130084803078184 7.444779009596267 8.158412599607328 -0.019714961930424112 0.016817328667654906 -0.1784949803175313
Ni 3.595640893327263 3.8572853595558447 3.1571061508828953 -0.007487566626296782 -1.1846290966942568 0.5226790474371772
P 2.181467823727987 7.363297432795998 4.415395298927282 -0.13698374844762215 0.7174434543386935 0.03503282323441709
Ni 5.973154616123566 6.658245422835106 11.777555226599956 -1.1501259207110646 0.6517836502470389 -0.15223450395910557
P 7.54036052932393 8.391980623061224 2.609752218557823 0.5305486799932411 -3.9499706171748676 -0.8334845390963774
P -0.05741200496642877 0.5333381135707855 8.06250921347821 1.5842883140630717 1.221454235942406 -0.5614859930020459
P 6.000851585726082 1.0344804430641672 5.508658422343621 -1.309258437341584 -0.1717124101780591 -0.09892088013762963
Ni 5.574652921753405 7.043616431054983 2.193404312377417 -0.5584343506599155 -0.026119579905187273 1.0899194264244971
