# total energy = -340890.21848919376 ev
CRYSTAL
PRIMVEC
9.09684933306636 0.00000000000000 0.00000000000000

0.00000000000000 9.09684933306636 0.00000000000000

0.00000000000000 0.00000000000000 13.31415852256849

PRIMCOORD
 96 1
Ni 6.547803018487314 1.9314066720661536 11.382207179568695 0.6048818434891776 0.2935945270975524 1.2876159193711438
Ni 5.114148653715212 0.399969363668953 6.086434469956595 0.1454413922966721 0.4920500096974107 -0.4527044180202526
Ni 3.154314327349774 1.7321674770380215 4.965888202588899 -0.1610266483294388 -0.9189338671101336 -0.11944728222575555
Ni 3.832720966397257 4.446803783508665 4.8958288171214 -0.8733019282036315 0.25053394846265237 -0.592647763316831
Ni 3.80507564114429 2.900303002230126 2.8219227286386097 0.7785624331372011 -0.904476554034223 -0.6255301158671486
Ni 5.107380597779637 4.73547410475 2.404430104017109 0.5078769494273383 0.0967459839734979 -0.6372083235360252
Ni 4.950423558650089 4.623291758247994 11.389064384628153 1.0374313838281102 0.3395645660697636 -0.0021972647616349257
Ni 5.968761265171375 8.219249025942064 12.291631037568692 -2.066152641476732 -1.207095653227889 1.4361053544655202
Ni 2.341347092335889 6.788351006530821 0.23146023551711228 -2.1251579163663465 0.039506799845370665 -0.5331364953250753
Ni 2.920479814145586 1.611088411846512 0.17064233933045903 -1.149625069815246 -0.427861905055276 1.1523648373439124
Ni 7.609487212284149 9.066484092554479 6.554813050616283 1.0608039971157794 -0.5026365269640053 1.103219485967513
Ni 8.67061649826906 2.501451641349455 0.8635711887214228 0.9871344353457709 -0.5366041421587017 1.4465692301113215
Ni 7.098808282027127 0.7809508736358596 4.469789702511363 -0.2262133694394169 0.18773141131413473 -0.4733254367047139
Ni 0.8654669721313334 7.651196266672057 2.2907276739844127 0.07057061112971073 -1.1709246026239704 0.42207435183922143
Ni 7.982439842992 3.934423742418375 3.6063531471607018 -0.26911659656084624 -1.4580394355344504 0.27576238401213793
Ni 7.629391118718335 3.862385792211646 12.582052502314863 0.5704989951339337 0.246996110512723 -1.088479865764493
Ni 8.373222298476362 7.367620181081154 9.083385129009724 -0.8790650559396539 -0.8991543704903613 0.13775353673411114
Ni 6.986453095386982 0.8220922846227207 0.3116362271754058 -0.30329041422907765 0.39654946809523967 -0.12351013944121954
Ni 2.2260263327992424 6.664097140907168 8.980559801775636 -0.3656538069576477 -0.2714038499331261 -0.4276310199913926
Ni 0.3741397695513894 5.080071855953574 1.367177318588782 0.04730521284386691 -0.8813901045284046 -0.4612085988365219
Ni 6.664260884195931 2.1388785157793584 6.836953653375689 -2.1861902489883187 0.8583566197477088 1.1555234375775518
Ni 3.446323192312017 4.598575618494025 0.04202380537631079 0.747636432982306 -0.48963728649085997 0.44599615276214155
Ni 6.021395635659585 5.490903767462134 4.513752956174588 0.39077708438783665 1.5312649677885048 0.6247582706981305
Ni 5.285769814038503 2.947006226925333 9.683600708932707 0.3513371332246594 -0.5087189857126594 -1.0696035976852805
P 0.584532611599154 5.575186076928651 12.335860828918626 -0.6001468999073536 1.7077154068721816 0.05657995327757352
P 4.190227146865049 6.400024700377918 12.408356350648956 -0.24301861392221374 1.2765282940984144 -0.20607546103896118
P 2.609131047410454 8.727608259608266 1.3812910803952907 0.10015578098599524 -0.07146278392667693 -0.6569302274449847
P 6.431126828393677 7.561674171965097 5.703386155811514 -1.1750915895174665 -0.49601902164748773 -0.3596878191821999
P 4.80232685081254 1.1651062743499727 12.70186710544314 1.920917708763911 -0.38975789909470293 -1.4070359479033898
P 4.319293245808486 6.319217387372945 7.939711941474004 -2.634369268334392 -1.6560956258133606 0.07182325258988921
P 5.005832468197909 1.1259716283354066 3.7796099210017573 -0.570861777789991 -0.9790413739249914 0.24946899753324778
P 0.06696190825504887 5.623017310946454 3.4958582662179016 2.1724016798446586 2.2673116390506824 0.5391945285936972
Ni 0.6204014886878184 9.096412727000764 4.444465893219093 -0.42747006893349604 0.32195765162127776 -0.1454064252936786
Ni 2.0534500032914944 6.2166322169623776 4.6019987629141275 -0.4439955773923451 0.6476768271675168 -0.7698700475695257
Ni 5.9487754870928065 5.3145613423128175 9.069724390302127 -1.155464045094526 2.0297877296944526 0.8581542739289155
Ni 8.610067868823931 2.597732695142613 10.188926143332086 0.7936039008513558 -0.5727839345133684 0.04773741528527908
Ni 2.5451165183531548 5.296413127808155 6.81501205268133 -0.23363023072877825 -0.05230729404414862 1.00913099422152
Ni 0.37644854992296 0.20147520060469656 9.23021373604429 1.071880309534599 1.0632740559228269 0.29768540933747445
Ni 1.6365686869480462 1.1835728785827875 11.315703752522188 -0.47661516319957914 0.33343351347136124 -0.6827142783876242
Ni 4.348448648057832 7.120786270118989 1.3470596361942653 0.7202295017242628 0.8373159970273256 0.7080802679562386
Ni 5.550988457589101 7.923555936982635 8.171511489472833 1.4176633457102488 0.9000946229164435 -0.40188682114775304
Ni 5.612201157038663 2.916568168914004 4.763952701405787 -0.4971101978291374 0.4760515773866253 0.5510534848148122
Ni 0.4662353629467554 7.599689905506444 6.5439887095440525 0.7506261117382491 -0.22054897206478793 0.014925253851264617
Ni 5.259698243727543 4.629741424455417 6.821189723092417 0.5079268288286671 0.42780122702066964 -0.013676983266460316
Ni 1.1038480906535322 7.631910945995423 11.255070522377862 -1.1769690090458376 -0.5696644150477802 0.3999636359831112
Ni 5.056920374292237 0.38950980625669174 10.451694095660852 -2.410515143155771 0.6640516689811143 0.0029932783003690385
Ni 7.963018069574729 7.437565855931457 4.195837173875088 1.1277444676920707 -0.5324191575430767 0.8566069840464537
Ni 7.224272028617759 6.131549384750794 7.194198754266397 0.9092366944270277 0.2035544943893204 -1.071194339211168
Ni 2.6852989672337833 5.305983013351466 2.240040938947555 -0.33159723159357085 0.26825553411213154 0.2231380729482028
Ni 2.4728329532132802 5.458355240395627 11.22423493204881 0.1497857853082969 0.2947849478612278 -0.26822133844008644
Ni 1.8577494826705374 3.5660286332477846 3.7110424188318842 -2.550825127763149 0.8310566463811752 1.2923380074371615
Ni 1.6882751787999273 1.484005426066994 2.5704712569333035 -0.14501741738537607 -0.8150885530876929 -0.936902278663096
Ni 0.9185634625678325 3.4905884613745175 8.05077901424254 0.5945503796561825 -0.03950422874220939 -0.6026889496029169
Ni 3.8007728313895504 2.938527963307115 7.211161649297397 -0.053063455483882804 -0.5830092117858023 -0.5133037768698643
Ni 4.029094653872021 7.364581833389647 5.908663839455283 0.6556048237653418 -1.9113087249192373 -1.1125873003356581
Ni 0.8184326221188482 0.10356126234858753 0.26224670285953344 -0.5567734180177251 0.1098210719899012 -0.418888240801756
P 0.41726520338710604 5.858798549917058 7.952094572844303 -0.17177308821266546 -0.5743949877542301 -0.7466324171978238
P 8.436499982734224 1.6158369672206645 7.818672902419749 1.2139597273375737 0.6549682186226075 1.7099823485294872
P 1.8066979639737117 3.3739395618290087 10.096712290894835 0.2301672118808423 -0.46891470923152795 1.0174680533323057
P 4.108728473307519 6.385160448497908 3.5347764072173242 -0.2168308997832524 -0.3007679049175401 0.6442374624686646
P 7.041680067947286 4.238294898966623 10.51083544250755 0.0862581970682966 -1.2377133781137457 0.10140019491605762
P 6.4268876965845685 7.752325941182502 10.22311665171092 0.34790471050434274 -0.8586594957001084 -1.3188388819411674
P 2.3849119039964553 8.726316506996906 5.56830067163613 -0.563959651353519 0.14864524394595047 1.4153730070141755
P 7.090175371969521 4.096256692813338 1.3069116011592383 -0.45100928970601684 -0.21328123475878108 0.6487104106383538
Ni 5.236910636041238 3.0800294553472294 0.41565869978734493 0.39975589084767926 -0.3593450911308005 -0.20630506055126405
Ni 1.262933792537012 1.0790591761045567 7.025055575713065 0.6256686983275419 -0.002503740258460204 -1.0811331955914347
Ni 6.857632611376692 0.7161949513544352 9.09443598163141 1.904634398222855 0.31792050543742667 -0.2211860914281545
Ni 2.689538099042892 1.7508615025052305 8.920738920280566 0.2727925027505366 -0.8374260402426288 1.2599966149919786
Ni 6.3800571159981 2.3649079322191353 2.6002816323377043 1.2598462054570432 -0.3340230674262441 -1.4709101208495312
Ni 4.278539360605032 7.177395963784411 10.306463805061608 0.1290999748241712 -1.0014158849654495 -0.24041305797856663
Ni 8.604364144265322 7.094969411590552 0.15022082216679114 -0.3015477205063581 0.7445104857588145 0.6299233598388377
Ni 7.723679962498199 4.034398117058096 8.374658690992796 0.019092497855076794 -0.7693946505950039 -1.1737546158735979
Ni 3.220866877382913 8.635166076251682 12.172003829537555 0.8859571550737968 -0.28678753147804803 0.03460499166837912
Ni 0.2204857964301824 4.99339707510123 10.02657285315283 0.5587027738299539 0.35678735770595327 0.2165190249697884
Ni 8.653287000208218 2.3665999462030287 5.658837065048489 1.2912170064588409 0.6353190769331123 -0.8783847420431776
Ni 3.576817496607449 2.7248429714702587 11.517692925116613 0.18880176156017808 0.2270464068636735 -1.0677099802069934
Ni 1.4310344721518806 3.6786021442729484 12.509157628896936 -1.1463168313776195 -2.0284623260148096 -0.15542575720289362
Ni 3.2851088276746068 8.773438186763398 7.687635516216583 -0.4818190759980218 0.2542957294979298 0.9254325874605998
Ni 5.844170816120818 7.950064156063632 3.2590927481448393 -0.9757791582339518 0.21190363768496406 0.1516292662749389
Ni 3.055604414773285 8.491517727758886 3.487883058370163 1.2356575240259817 -0.16275905763951326 0.5223756572641456
Ni 3.5620351163718214 4.429947321615362 9.291672050426996 -0.3814475794567947 0.5098173609831608 -0.9974954668651208
Ni 7.672328247771973 6.152171942285666 11.430032045791936 -0.5945987163956147 0.457392053303909 -0.3486899254097995
Ni 8.016871417879292 9.069267728463464 2.3347837155112705 0.36698486706424543 0.3862748256421089 -0.2943632869427769
Ni 4.675371220924283 0.6697418900170615 1.7010698974469491 -0.06538546738434546 -0.6117351189655852 -0.44800341300015745
Ni 5.98126943306306 5.775089341961214 0.13905080081828217 0.9716430245783912 -0.1615390691894831 -0.049254109040121626
Ni 7.9512831338799845 8.76012039927727 11.272218993136127 1.959885091166044 0.4158962480529676 0.15823982961292102
Ni 0.17465950801479938 4.9835087998297665 5.839656959460561 -0.27052247576943733 -0.3579348410468352 -0.22925678425143098
Ni 7.250780247698755 5.984817204319611 2.366126000350551 0.382085984371742 0.6508572817780275 -0.5563692406007709
P 8.79629856924471 1.826565483010395 3.370904852877251 -0.3886224999386791 -0.11166326740496253 -0.005576979867145234
P 2.178058646040803 3.2774492805002073 1.2605495083156224 -0.9954354990122986 0.9632532578527991 1.5873682385399759
P 4.968899259732279 1.2890326533960983 8.304239979974954 -1.4337864765243564 -0.2992072452986395 -1.3416959890449989
P 8.762430999018715 1.4761184576582007 12.150793615533008 -0.856069366375429 0.9045038077277325 0.8816055629733204
P 6.656819661406551 7.79296156734407 1.0669649148594695 -0.17311057607716637 0.037575130040296584 0.5054169179226198
P 1.9246841003774589 3.243854615755486 6.039435597656676 -0.01261537477116537 0.36267672660719474 -0.4300956794818012
P 7.118630316816931 4.0642448798599995 5.8157176906432815 1.0362607605587766 0.6429022885970089 0.705671915625062
P 2.5101664230514436 8.564247038518172 9.962399129231454 0.20899597711986584 1.76790390343662 -0.347377377245963
