# total energy = -340889.24066974764 ev
CRYSTAL
PRIMVEC
9.11413903561409 0.00000000000000 0.00000000000000
0.00000000000000 9.11413903561409 0.00000000000000
0.00000000000000 0.00000000000000 13.33946374991193
PRIMCOORD
 96 1
Ni 6.653093749890951 2.0342394090217617 11.546266363294942 -1.6616620641575448 -0.024531923703093234 0.24231927386234395
Ni 4.529781858636668 0.2778609384351182 5.8345346816143575 -0.2072280865861657 -0.8865585361032216 -0.14575121022760704
Ni 2.7303682456571545 1.6420124292942957 4.886151991991558 -0.8096532410047346 -0.4064250753377387 -0.6170321056984663
Ni 3.1363211189937656 4.2605957578756435 5.014237546995624 1.0349304717831274 -0.1325208275802621 -1.250068557244989
Ni 4.93074018370116 4.3558202840564855 2.6690528743055446 -0.22884386508372848 0.7522153106022401 0.7142516868742732
Ni 7.20915649556662 6.478330131062691 2.518984015592809 0.1678287588529368 -2.1057350317550445 -0.7441865267604926
Ni 4.984914627003125 4.918618378588169 11.66389344358686 0.797363110783472 -0.7241267798961399 -0.6221617136155478
Ni 5.752707940032082 8.438334876441367 12.441717778200296 -0.4472894176522684 -1.7837149023269472 -0.03791785809169599
Ni 2.030356785729932 6.526024421405757 0.24590220939098298 -1.1970498389561126 1.0264031510384066 0.9876895365182926
Ni 2.8149383431334223 1.6415202657784298 0.35524180292407215 -0.17714283716501106 0.5593391218623721 0.7971489378901369
Ni 0.4050505735575241 9.062844807379108 5.039155603521123 0.21773335699286375 -0.027670983552707185 -0.7302951134903809
Ni 8.524235638238308 2.313606003249862 1.5025442258649573 0.7158198026923415 1.0920734966530223 -0.29780573696542256
Ni 6.978650801496971 0.6328721536378681 5.112176263825074 -0.3049917131909005 -0.21936960704470607 -1.9003622532100624
Ni 0.931875160735094 6.965635810744077 2.433851575728969 -1.9859455356985216 2.5261438229663846 0.09838660490071444
Ni 7.700609108576134 3.5667910267318383 3.905714874863206 -0.030728539432108373 0.2325611660343156 -1.3411213474884516
Ni 7.849588827656537 3.9084071915777754 12.49951782606914 -0.1872282464254711 0.4292279321648672 0.2885713628513482
Ni 8.010808835659306 8.963728543767251 7.1054521742901935 0.17949333967505862 0.10625752300835893 0.5524598782440356
Ni 6.886825849231275 0.8491789302747897 0.4554317121316495 0.466333578767913 0.30455976785980454 0.13016569708452422
Ni 1.8658010027862955 6.5621893256827075 9.426865349163956 -1.1225508393062733 -0.4161261046755866 0.041301686962264356
Ni 9.094042505801488 4.972738137055038 1.1913246266072413 -0.07716420518682839 -0.5116472151030479 0.3885168275987502
Ni 6.249838661752418 1.9844944373625888 7.024615228223161 1.8552375929572822 0.30189301966091875 -0.3784103352923676
Ni 3.670883610337448 4.850526644754223 0.42880202026763853 -0.7179718160383377 -2.447538771567972 0.8074899148048287
Ni 6.269999137624549 5.699845932772426 4.554186789126182 -0.8563663287905574 -1.3855260988560718 0.832803710979269
Ni 4.894748448068681 2.755550612218953 9.056215182537612 0.9366240853010449 -0.4925274635544615 1.4884776974196494
P 0.3082146675691801 5.8192867267617014 12.383678028470948 -0.3728752644067514 -0.20510949758126612 0.8271411133768528
P 4.0505786486887025 6.5687879624509815 12.729677182849846 0.708722786636244 0.8041343680690345 -1.036731529547608
P 2.4063150270162796 8.412633003946155 1.5794055844204975 -0.07831940183719416 0.5069891475057462 -1.1151697163508536
P 6.6903523508698255 7.589289012598645 5.759340299115333 -1.0752677379495932 0.6932264907728577 1.20227534902111
P 4.745832527962556 1.206675571232662 12.866219747601537 0.6894523684424062 0.8598157207917385 -1.0405221069382917
P 4.399212700705317 5.907365767823308 8.049712538760659 0.7142329178211957 1.2928524851797347 1.6135014452919179
P 4.78186983429095 0.8138470583191375 3.573375992291339 -0.37700599874567325 0.43605163995491997 0.6591274922066197
P 0.23543279771181627 5.288388119369465 3.6390324281356685 -0.47863347918118865 0.13365905494976335 0.0015547460816295806
Ni 1.4923582639143727 1.0742562430472231 2.7146208359772865 -0.8080326746821761 -0.3449191455134576 -1.0390434655102365
Ni 1.7659100373439107 6.476561988061246 4.806796093541714 0.14039868766644206 -0.8652217222986582 0.5215960987856436
Ni 6.1638649868420154 5.817226931306412 9.410592053653247 -0.8724079556344524 -0.050897043960183304 0.364188792376347
Ni 8.764894483357484 2.449160595314149 10.366337144907831 -0.1836338442059934 0.21771998725642505 -0.7759427361261669
Ni 2.5868387818080056 5.365366138906544 7.1503393097649885 -1.4904381635801298 -0.3443247064625683 -0.04357402793620883
Ni 0.400144432435477 0.10903973835397836 9.223145198738342 0.6007243696773783 -0.17676822743441167 0.2718784755766995
Ni 1.454425216635978 1.2469327240026447 11.487559458577422 1.0229025940843157 -0.3862761111936896 -0.8197342793898206
Ni 4.157924979982535 6.7893683589506715 1.746429476254809 0.5556663009964752 0.3034156269530323 0.36654829374745906
Ni 5.931153671090153 7.813287211291846 7.894881542324962 -0.8066553347186753 0.7302519189572714 0.5927256677426179
Ni 5.091932849286381 2.6503734460506028 4.844866764321766 0.7186498159419688 0.4103238961715127 -0.5372492319418684
Ni 0.7435651968395881 7.361836555155199 7.352219315489616 0.35460603378391836 1.169603826930018 -1.3789602727130963
Ni 5.123732080894818 4.138894657369059 7.225201026183844 1.0559428123687362 1.2867242607948097 -0.981440213174471
Ni 8.202014361573156 7.104754031228799 9.262563850703517 0.15568800972534477 0.6317730114530667 0.18167286382488065
Ni 4.711855017089452 0.4060020896881979 10.595509440415052 -1.6901069497617986 1.0799669431974754 -0.545318382103248
Ni 8.233376114500825 7.07248086438286 4.505897345494486 1.9239714079885701 -0.059615911890419905 0.0899274183897677
Ni 7.034283507068168 5.761448399508292 7.1400549151112305 0.3853613126889041 0.5789712942710029 -0.9389157095486991
Ni 2.4139982463472953 5.384651657417136 2.6874087506195012 0.6147163130810962 -2.591420532687008 -0.3504719570108867
Ni 2.392242796118192 5.490430356771545 11.420275237475062 -0.18746504502662553 -0.6634006656606768 1.0443746479151628
Ni 0.9613958575478572 3.179941389122165 3.748202498679959 0.5959680859393156 0.5175142154067862 -0.05818689275337721
Ni 3.404586691697338 2.520989126213003 2.8466418762804415 0.5098330447124445 0.4002595699569752 -0.7476757708606735
Ni 1.3746491563698104 3.3619598627398535 8.295359552254524 -1.4877480183424765 0.7823938910681494 0.40408022925464604
Ni 3.6571030318932065 2.562704541252218 6.830419353243467 -0.5160929095792274 -1.0207482667454741 0.9567835909680555
Ni 4.421278031666633 6.834893484168254 6.063240333195424 -0.15075663386199845 0.27030058956661834 -0.7878921951785592
Ni 0.9226151953254714 7.742142240831695 11.40897643913027 -0.31748418923095645 -0.23754807772594574 0.2523596888174815
P 0.2685535795017457 5.5269051417807065 8.21613580882283 -0.4911652930996121 -1.1143693319367454 0.42486091344542315
P 8.472649610464229 1.7061577408621338 8.233023397314453 -0.07585191413330807 0.5552513249462437 -0.9365307542562903
P 1.8172590974992389 3.242437041497934 10.555731691366077 0.5135323479409027 0.41894017708561393 -0.6703130765097939
P 3.9968052275107757 6.027453665694554 4.047993878816489 0.7623763102956418 0.4227078716581623 -1.0811627632777896
P 6.723518703355668 3.9830428773449005 10.425885284671914 -0.1715774272620916 -0.4352263158401472 1.884113909672
P 6.300941640149813 8.063242478377376 10.308137897742785 1.2319325097659106 -1.2504485662922271 -0.3199578475824296
P 2.2560593284502986 8.205450392045032 5.870964807341525 0.7964891928189508 1.5732605954940002 1.8232317294746472
P 6.80519961871102 4.141446616340215 1.6852143604342091 1.8333436210976686 -0.5239167764990202 0.4461635315779413
Ni 5.355750722068796 3.2713379768462745 0.3783434115104602 -0.004302741140411945 -1.205636037963227 -1.0556435359607625
Ni 1.6293984606654397 1.0667097358039481 6.9444718681479305 -0.658246375153247 -1.069516437288113 0.3234643180737913
Ni 6.688164957465978 0.9046093019561308 9.349029689129786 0.46596899633964267 -0.21102277774190753 -1.0553594290614405
Ni 2.729721141775183 1.5736017005889547 8.966414480584394 0.8166373856320517 -1.381649389509485 1.622784927476373
Ni 6.257485424526703 2.0593215200525505 2.511901418033933 -0.047812234387272494 -0.28624245760785544 0.4524203111209305
Ni 4.247343799503998 7.075123964745844 10.530452714928943 -0.36660254402416215 -0.010624312483065574 -0.3910735325823329
Ni 8.635892957365558 7.499833736520451 0.3930964686054956 -0.8134255635629734 -0.9935897040528112 -0.3091810686818998
Ni 7.459294045435803 3.8613144344207675 8.485019320162989 1.1209834948191533 -1.1308688722536653 -0.827800858448039
Ni 3.0493266604949008 8.50675471928589 12.394789986962495 0.4847473053884103 0.6663317232645427 0.20512878085497574
Ni 0.05307527811653134 4.906824682485758 10.46618345106822 -0.16047668936323978 -0.34013766496441417 -0.9985925565840416
Ni 8.826405808701521 2.172829009433888 5.922802385357046 -0.6627062106968136 1.0216047012084988 0.20673597744109554
Ni 3.7297427211793197 2.6324550484174156 11.485772175883692 0.2555519705025341 0.6219974201235416 -0.11546412920829148
Ni 1.1956474628215956 3.4816467384870613 12.705079032609659 0.03250028662055048 0.24698351210723268 0.18066627693723722
Ni 3.2414709427445683 7.796079716514909 8.145677133043137 0.9064213364654197 1.7983992438119996 -1.484065684394883
Ni 5.569367916232903 7.85678899761087 3.8037212775113725 -0.8278497094081033 0.6595270416378834 -0.31088648140878067
Ni 2.7953976287257145 8.512569540084453 3.745561221144813 1.5068875673854047 -0.5976117921903257 0.1492427683206333
Ni 3.416808752341338 4.564661669288858 9.549415887442368 0.41846169478729867 -0.21445031536621778 -0.4895881784204794
Ni 7.328387664354693 6.371403050171263 11.668522514877752 0.43788483650891685 0.5531455914571506 -1.0715175268785417
Ni 0.763600809004916 0.30385628621201327 0.20722727118311662 0.8977595470253634 -1.307733001835993 1.5460169292866988
Ni 4.599249827487202 0.028632979656368247 1.3689355025161765 -0.02973300828805847 0.21002981770101894 0.9146470668093215
Ni 6.382576984809251 5.722758878677733 0.33518613965254224 -0.9202548999144021 0.43706748281394403 0.04723090796250575
Ni 8.09081274940504 9.11126822885679 11.375241364359425 -0.2689638730330658 -0.4315390967965471 0.06436113988488916
Ni 9.113838416106312 5.006715647928142 6.042630530261586 0.2573262887941375 -0.9778396403074064 -0.3298326834939803
Ni 7.927286864189049 8.699017485344934 2.596193534265128 0.48140178595494504 0.8094370112288704 0.08332688235411456
P 8.552735551462609 1.4118348442352238 3.528141608113684 -0.11669825872570869 0.739064632152895 1.1413366045542086
P 1.8975090930029064 3.440642226304097 1.4969681955129819 0.04701622084853839 -0.10944569092835345 0.17230659211863228
P 4.734786191273125 0.8200455843772914 7.942610466396921 -0.7541333535605592 -0.20427260350226753 1.4994969313482887
P 8.719797722681488 1.7190724760840188 12.605499770727322 -1.6639986827105215 1.475716026878607 -0.3349342663866038
P 6.5395406898137 7.847611059453892 1.0649324786633216 -0.4309541708273546 0.20606389107473544 0.3514055245687497
P 1.7112343163868973 3.270280736701081 6.162552550799707 -1.172187014276162 -0.5002189186614482 -0.5551474523785278
P 6.878340585652182 3.9104305304763347 5.786459420253455 -0.3480106399545877 -0.07069685229492985 1.8008309931819435
P 2.4446764388362614 8.69556322659469 10.067693234894403 0.5042676348095251 0.025175213714046966 0.5399013248527348
