# total energy = -340870.88301670685 ev
CRYSTAL
PRIMVEC
9.22453857322777 0.00000000000000 0.00000000000000

0.00000000000000 9.22453857322777 0.00000000000000

0.00000000000000 0.00000000000000 13.50104463256464

PRIMCOORD
 96 1
Ni 8.294788289839651 0.5930631246479315 3.51386296865372 -1.135007319902071 -1.0161938146055725 0.9238215342197381
Ni 6.4870185274006245 6.4690767994778176 1.1239556252951777 1.009452896337313 -0.4175774924101325 1.251066145271568
Ni 1.7580956211206176 8.425407758933188 2.548659810816589 -1.2708821515562305 0.27169078504592564 -0.09283045096917561
Ni 4.232910231659347 3.9804530543887333 6.946260345545248 0.9423707579768351 -0.34029398803662037 0.6945176987804554
Ni 2.751541549333715 8.02619739424668 7.469182844688481 -0.2751774580429454 1.1082531917366785 0.016209005659694666
Ni 8.680872135845362 5.986799463097292 9.641123561266573 -0.4425305628110443 0.24787928444862473 1.2295449833703405
Ni 5.2251477452925545 1.7732607628713075 6.296077031877472 -0.17836513960788636 -0.4611366079480058 0.3386813921338619
Ni 0.6747750115954918 5.485740965765181 2.268458910717887 0.04584405491730815 0.23269692028123148 -0.294263528140119
Ni 0.15115052505126791 3.311055948900694 2.993559316069502 0.36463822120893974 -0.3424768546205521 0.20755435957733284
Ni 7.271916082925397 8.742030827942123 10.036096172838565 -0.48722764860810286 -0.016083792935740044 0.6207517206418987
Ni 3.42484063472476 0.8532873635694466 13.003828625238004 0.18946073530041563 0.8332338565381522 -0.19113169524493534
Ni 7.938748766633211 3.3551215706422073 8.88183793765834 -0.9013390368465057 1.2083927747727574 0.9249417638671104
Ni 4.229340335152342 7.048903633433496 2.5499014337360797 0.4001428418734528 4.87485581677243 0.0025376788201891777
Ni 6.604326987037806 2.0168439338376856 10.282180116267604 0.038578631604146464 -1.1325771131940237 0.5622634945980187
Ni 6.478153745635165 8.620294589691602 2.2844441139659235 -0.23416939106169993 0.0600231746311676 -1.4247421069339012
Ni 0.9559943007752616 0.2591707965930911 0.1164727164239141 0.5206746154126387 0.518683553124539 0.5992840376864259
Ni 6.2670870738605045 1.4193428835837585 1.0465755817576687 -1.5699760112054575 -0.46245481253879706 -0.5512558306336055
Ni 4.935451104975994 8.745194844742906 7.714577715070818 1.0405354766747306 2.0649910170684627 3.01271584026836
Ni 2.1857083407039477 2.386517325357704 1.4311512156732102 0.5637169392150937 -0.11133056665589214 0.06656817483853697
Ni 1.6566349191036822 6.919511027997406 9.338079013338549 1.179451409148059 -0.2360182713449806 -0.3091273326258289
Ni 5.043433555908828 7.05465052109206 11.530297111057983 -2.5272056885719962 0.6948326589177131 0.17322833260195328
Ni 3.0786990416268893 5.248531951094257 11.869497238725565 -1.511798631533777 -0.16563792184920506 1.1424624906285357
Ni 4.451826985933909 6.4661341716077025 7.459921407755578 -1.2581539053562847 -1.1778462694444682 1.4434016310166173
Ni 8.366140097285873 1.0714763017344406 11.965975767348617 2.2670846106415405 1.3772949691955312 -0.555755518276172
P 7.092231292072785 8.462527302975023 0.030582113410014135 2.7105597967540414 -0.3664449354003753 0.6544465417911827
P 3.8372789880186224 7.7207083435425385 9.462990337836386 -0.3001546968135734 -0.9082349926353906 0.03176726510926787
P 3.315603646518146 1.8863074855931499 7.4386034986401 -0.6561617247100764 -0.06217210265337034 -0.32160026828185906
P 0.5368478628821888 4.188936855305613 8.098561133596824 -0.668691738856287 0.6542567943778798 -0.8840895057374386
P 8.096110173643565 4.738756264617132 1.1462208945431345 0.16880963470896734 0.055496490405407654 1.1820610788567643
P 8.55846250626406 0.49416499950346693 8.642748039530625 -1.3933052285808585 2.4384383519286006 -2.1879247151809222
P 2.9052131408329536 8.08033621233354 0.7139949831170304 0.055694208238510526 0.19889539835075423 -0.9151450894916625
P 1.4606503682307115 1.3647243894804513 11.466046353562906 0.34249922321805537 -1.6361970871172211 -0.6214189219122523
Ni 1.6941326692354073 3.1908140859321747 12.53397858749892 -0.25331485364189926 -0.46412011605636194 -0.48765496595350855
Ni 6.800652845845555 3.9175693735405246 6.273611590138037 -0.6146646339075543 -1.4800748180679348 -0.8074500627058286
Ni 4.331271488646944 5.324975703945821 10.087953762485679 -1.7827000879091877 0.9002272918395657 -1.6718009523637594
Ni 2.6669525287413616 0.7815278315092463 9.43990316218333 0.36405612345322463 -0.8800348760520909 -0.5551507948126374
Ni 2.4123829320906327 3.167365308359027 3.8182174010881926 0.6969862149256061 0.17360859875950746 -0.10833446014204569
Ni 1.2936954408914525 1.2178236094441124 6.955144498842139 0.8903293159995634 -2.098468065779986 0.6339119121729405
Ni 7.8375279026244975 5.465041100747816 7.596416908050568 -0.8228147180873572 -0.8607289766346272 0.5916476041870907
Ni 0.8762749142037045 4.349019501255416 10.35630020780104 -0.39524900411626124 -0.29919721799631055 1.6785171880416705
Ni 6.369903783077775 4.6611686689571235 10.769472834381615 0.5340536078227061 -2.5908584895359508 0.09148422135392631
Ni 3.9384168311783347 0.32831978417917623 1.9583539008093394 0.4184208142470342 0.774045261993138 0.9653893303591954
Ni 2.965643094366269 2.965965953223492 10.431784608619713 0.7017522688556818 0.08447693679815774 1.4969044880307638
Ni 6.822800963451034 3.7152567890659887 13.2093144510521 1.1756451480280914 -0.8184371578449517 -1.7966159266593313
Ni 6.2580285767807124 0.636745928030166 12.233391456701296 -1.2441048834623865 -0.8669322772318617 0.15190437431319645
Ni 5.088071099054563 8.128700469145505 0.1846226864603643 -2.3559177675258653 0.13663690663116468 -0.26970537918478066
Ni 3.5791856175547774 5.138252590005752 3.2085233554777797 -1.2637509398280882 -2.5025007296261483 0.4720519693089289
Ni 7.631995954116512 5.302643095564786 3.55539184223134 0.6876592810977253 -0.2771368957621614 -0.6200150995861903
Ni 3.6472350401185496 5.850903557822858 0.7161968805232893 -0.22240839387102987 -0.6823802920869733 -0.95617295396725
Ni 8.64657530066953 6.396571924684372 5.764135701171191 0.44534206411791044 1.0421460156949598 -1.5864619246756226
Ni 8.936926883239316 8.075640922095644 12.04906118812019 -0.7302619462596005 -1.1923994846682948 0.8062426726612888
Ni 7.134581149601629 2.8081802174293586 2.7274950216477665 -0.5016898467800199 0.1430860046906181 1.1793087129226079
Ni 4.796188243047666 0.13841881663015929 10.436240060849386 0.05762793492611366 -0.49363818012013694 0.15281043106723358
Ni 5.77389710810585 0.9268170846211052 3.8993582890854075 -1.1683830671490394 -0.042564098614455724 -1.0974823263734195
Ni 4.354720266220092 3.2639093312073992 13.331269310871658 -1.0284052690700998 0.09398230518543169 -0.3028242732259365
Ni 4.7855984725307605 3.152154043914448 4.52091970383345 0.1645436603437618 1.2596312612327596 -1.3606725301475018
P 1.8693620078583457 4.457057299420917 0.6359138746324092 0.5720485990092405 1.571480877885758 1.2995805479321878
P 3.221485677368333 8.428248916876747 4.190967176290605 -0.053683348456068834 -1.7286799249389906 -1.0485915142099878
P 0.48171648442283654 1.2119014555487697 2.184428897175468 1.2473629853883679 0.27371090079974797 -0.9989332277529119
P 5.577931006310435 5.801506152667781 3.5074362324872324 0.6787604359461988 -0.4048212211857286 -0.6763384567682674
P 9.102737967770128 4.2671332705249565 5.030178816139018 -0.000199774715631914 -0.25191488797057904 0.760624874822174
P 7.92011519830207 3.2179711280939944 11.370728271918104 2.0658942456090226 0.9588031925012456 -0.08417123263228084
P 0.9088974955913662 8.280665520970851 6.555554083157986 -1.3651503634131974 -0.9143961271407801 -0.840523705331346
P 4.871617296633672 2.0913505335459126 11.635443938770527 -1.6290990426198588 0.7727553395371207 -1.0751571805136582
Ni 2.5036781923744416 4.4534228311424675 8.682697672069487 1.3126486939700555 0.2932679969960691 -0.8940545873699506
Ni 8.644924108228306 2.476797886375955 6.695923889739648 0.35690460001010793 0.46765846822692364 -0.7954954614471139
Ni 1.6557862615361254 5.965214042357259 6.704051630856761 0.04933689856191503 -0.3101313484103111 0.616117821414313
Ni 4.730408057023231 2.0665365242336518 9.02847305097788 -0.8323995335623148 1.283581344290454 -0.8327165505821015
Ni 1.1188719819747366 1.4742288893116215 4.578258514422328 -0.7653729310301206 -0.7605433708519612 -0.20503596403085333
Ni 8.882437532678898 5.545792713208607 12.441226772542098 -1.2862144110379268 -2.2250391035347166 1.0913916400946495
Ni 6.713259565464752 7.659033077274221 4.289471413629258 -0.06435728323014722 -1.2087920670937053 0.6635101946553477
Ni 8.590914433684333 7.619441356839936 1.3837223270933143 0.498006998611794 0.3129328224148482 0.4691553644874243
Ni 7.078947956232764 6.595766615052015 11.32663405410638 2.7658709106215205 1.7950169576033281 1.4405867872756415
Ni 1.9748907314762874 3.3529445794906483 6.2141123925674 -0.7260414804203495 0.6519420302017739 -0.08445251131812552
Ni 5.471203092651381 5.72823564115578 5.618486691046998 0.5031746588556624 0.09102065145394647 -1.0225200139339163
Ni 6.676896433602696 1.5313011107298211 7.878304976291727 2.4816529396428617 -1.0350274023723078 1.104799428860123
Ni 8.588433032753107 7.654513053273102 8.01187076307089 -0.1941591692173495 0.6612931323993708 -0.5910053426174016
Ni 6.278294888475521 6.625008402977616 9.127246644848844 -0.3055946368822221 0.7159835819637153 -0.5506022562100066
Ni 2.5243411592366956 8.124180445144386 11.98186688030112 -0.10051882075236883 -0.6133515715230856 -1.0211503872798995
Ni 5.608307412505704 4.239524225963025 1.527198035881459 -0.5855962557866883 1.3775358815617438 2.857463118308221
Ni 1.5334412037262688 6.6511507458738786 4.301135842913776 0.521716683523908 0.6225820889824182 0.39623142263418853
Ni 0.5859851360437317 8.986379635627058 10.020354497414262 1.0035776685034588 -0.2567537041201191 1.7618258155633397
Ni 8.329085125015483 2.1454432289388854 0.6578691993774322 2.1369993890859647 0.17701248223473384 0.20024599884137773
Ni 3.512676692966896 1.0130665221934612 4.992186630728804 -1.690453020247308 2.253145117742313 0.10945186157594054
Ni 1.2782535629774283 6.74222461722702 0.2853232864820095 0.6946357124155585 -0.19114377942979338 -0.5821836305607135
Ni 5.03473481584137 8.59168007040289 5.54259733297598 -0.6930647683840129 -1.0782054804216785 -0.8717037304785761
Ni 7.742754991221462 0.035220211507488 5.983136398748631 0.33951751488191206 -0.4949121617365541 0.6812045266113171
Ni 0.8230825337954442 2.239874832407143 9.249917328877556 -0.4936461505399369 -1.0067568375623888 -0.3123239851862557
P 7.134904008458851 1.9276703174727696 5.069642315484291 0.9758627190866934 1.4381915475705875 0.6722817702003906
P 6.405003153127274 7.375821287718448 6.877121504951818 1.5711355787311974 -0.2620614894862777 -0.2493350430585448
P 5.632614072185187 4.5664603293255315 8.624508359005297 1.032670472104357 -1.135701003534986 -1.2820073149351148
P 4.712272613786092 2.434254313532778 2.2274023335256903 -1.1910511981705165 -0.29939853537383926 1.0200877503433399
P 8.696470830918608 7.461535702041692 3.695776408075047 1.7309121567036192 0.01870477549835488 -0.9968447206549995
P 5.559140620820073 5.407313937076393 13.118141877134038 -2.109541549985328 0.45691922743254854 -2.6527002054330957
P 3.1963580337376274 5.064742240485527 5.359861064695674 -0.4090062058013537 0.16879060854557384 -0.3622003011914085
P 1.130697840687866 6.4078719846871675 11.351894531095486 1.1743410845046873 0.7696926414513969 -0.442883832385405
