# total energy = -340871.3602302288 ev
CRYSTAL
PRIMVEC
9.22159384122356 0.00000000000000 0.00000000000000
0.00000000000000 9.22159384122356 0.00000000000000
0.00000000000000 0.00000000000000 13.49673471962353
PRIMCOORD
 96 1
Ni 5.768226869316354 8.392517284858345 2.3031096770492767 0.10017634981128554 -0.72524649532288 1.0772297467719707
Ni 5.641540612227104 8.906381383711262 9.327701254754828 1.9904387955831853 0.4276449039484635 -1.1838575086355545
Ni 2.149876295421627 2.14768155607185 8.565999442386168 -0.22637252072510045 -0.7697435492939905 -1.320271500622636
Ni 2.7738185607379577 6.271984101247607 12.566080662523918 1.2421708996644671 0.35961300008020647 -0.2885767621679869
Ni 0.4988218348724259 5.439919683052598 3.9494685019812237 -0.7921244880923519 -0.04749470314685369 0.35112964519954365
Ni 0.19670766394105482 5.2990413929410485 6.444151259484344 -0.6091758428788411 -0.28358805070414383 -0.11727444294415287
Ni 0.8760606427235293 0.5070465744777469 1.958780893532146 1.6812980932209174 1.3127865050995002 -0.28520861702670236
Ni 4.9332668706346645 3.7426761029438804 12.304122844418346 -1.4417170442253429 -1.485931019738396 -0.18423342546320529
Ni 3.9057968775582164 8.887514002578301 6.074137570459084 0.6016587085661895 -1.0139752096876988 1.1968937729942224
Ni 5.310651379669492 1.5024097440494897 3.455717621598052 0.2789937464652421 -1.35910132900564 1.3352489478680747
Ni 0.06505096773613246 0.7712120421645641 8.695001241705372 0.21274875929407877 0.31386484731081427 0.45831867888323646
Ni 9.110925558154168 3.7147531165946126 10.775239748581711 0.8081100648873307 -0.34085834518052266 0.2909514330477505
Ni 2.4076751746753087 0.2577435496902416 4.519611066286898 -1.621889669355613 0.060449977755941055 -0.2720810785058088
Ni 1.8359547956522102 2.090000486185894 0.30701452593335293 -1.8821269611489584 -1.3336412370613226 2.570169850838348
Ni 5.778453616958805 1.2599648186503432 13.303259490216682 0.45677293166267136 -0.38518030702634953 -0.7551921338423768
Ni 1.2825761669093942 7.362105603325683 5.395022508799401 0.9297720953762181 -0.19775665676062074 0.024963869034189266
Ni 3.8128339893855037 7.381839814285866 9.014887268413595 -0.754420802893991 -0.06453854600301788 0.11968330949596162
Ni 2.5075911446536185 4.365696208869548 2.7146795568553643 0.08591983989227138 0.43983476114643605 1.572910668353749
Ni 7.401288155834944 9.154331600672664 11.735343231692072 -1.2657425163368201 -0.7920560967482617 0.03975748240359604
Ni 2.832080591040031 -0.02984107788184694 12.775334304974939 -1.2547667340516067 -0.4275716275083669 -0.12193662430651256
Ni 8.752934061104979 2.31516414460402 6.583140045004427 0.12345691760578091 1.0148115895460652 -1.0301142813414066
Ni 3.193318089144354 2.270171987933584 10.468418876120396 1.5362415950674897 -0.04442017798658801 1.8318027589731098
Ni 6.971654095725164 4.427268791384101 11.71466657383463 1.47815780355088 0.21220137143104098 -2.859045375193676
Ni 4.05672670502799 4.461720666219262 8.124872509790558 -0.22823657051703272 -1.3402697981214338 -1.0546929991220353
P 6.978911490129679 8.520946423195948 0.417335220316511 -1.0748077675940393 -0.03868276128217854 -0.5984425156217371
P 7.540893865987379 4.096914411273073 7.398856421521766 0.33263595727073036 1.0128459811792623 0.2622136987934258
P 8.469738912232444 5.9658917347049165 11.294985380028274 0.8095149156546574 0.9410515249447793 0.5663042403262957
P 3.688609897869323 1.9423351029590663 12.644902236440817 0.8980647369706082 0.2264437402826681 -0.1743102528122224
P 2.057955447360363 4.22839589719377 9.862198669973823 -1.2962244869757613 -0.7876674807622628 -1.0559708373931942
P 2.3729374304290425 5.352010228340717 4.897803386947946 0.22528725808072173 -0.5614127165619492 0.9405401325259994
P 4.233375557903349 7.1341016939843165 11.133740277614546 1.0559386986036783 2.3403569369731305 1.692941076776484
P 4.0573076654441085 6.637795509929617 6.930735117083285 0.061266045899333196 0.44304966853930794 -0.34446688846738743
Ni 7.994172092873753 5.351595256614919 9.247597879284907 -0.2625217169521478 0.16612128924352682 -0.55951061444323
Ni 3.713821735610043 2.171058296625151 5.358959621508752 -0.3291364287579041 0.7900334098912781 -0.08922987810211085
Ni 0.8484392024950076 7.90200226177701 12.284701245491599 -0.4053310709426116 -0.6271794785451134 0.26887337020178853
Ni 5.532984008758284 5.952160781377949 12.528451948587922 -0.32696873168262397 1.554679232947387 0.4461905281611348
Ni 9.062456860580935 3.3413246713457276 2.7003860863000915 2.050664573143462 -0.5397578572963349 -1.9685617930044355
Ni 2.2328706405812757 3.7404536988123835 6.801517532466666 -0.04537277170784444 0.4681660039909615 -1.055044983144815
Ni 6.309184011066943 2.0978388410065274 10.624953588366619 -1.4716837657907622 -0.14639578579014143 0.3723016512914685
Ni 1.601800083175122 6.592849461228715 10.422394823091809 -0.2551714472346638 -0.45595403530580186 -0.253272430439738
Ni 5.429093531806217 5.373017019260015 3.1215252141030865 0.07726987752675725 0.25727255273806654 0.37174423612610175
Ni 6.877805934537414 5.2285976370883205 5.595286941510242 0.41757106465222926 -0.3161487582489846 0.027703379452539385
Ni 7.14472497016475 2.2003553004665064 8.420342522312204 1.282230229579198 -0.7473633818265774 0.3532919429581851
Ni 1.787071126353177 9.29084807686638 10.436579478838983 -0.056413602903038325 -0.503977614372932 -0.7546653148046293
Ni 4.911716005674876 8.05083878742998 0.06342888936795667 -0.5313115263011946 -0.05714379620084352 -0.7393790780695202
Ni 0.27966327840629546 3.6212461543814083 8.479067476628389 0.6408695744376963 0.2787158102135071 -0.44598535412886425
Ni 5.802079340547584 3.04009208479183 6.524659462926766 0.6774090641246269 1.4049626103141288 -1.0561582708136519
Ni 7.18344644297868 4.248508193504125 0.45837039104161315 0.37614236519379735 -0.44203948210723865 1.9444787839133026
Ni 7.777704397509576 2.313467371325201 12.451628694070589 -0.6752737629491791 0.34857525420880614 -0.39880663956053247
Ni 3.8779015559906678 5.297187852565816 10.254062925760838 -0.40793739821720715 -0.6391608192767056 1.4384728262564324
Ni 1.8986339694355578 5.817258084117894 8.142134411424374 0.7947948358356635 -0.23088532099378947 -0.35109622085844694
Ni 2.1868456653932973 8.486964849650025 7.72817613879647 -1.533393069875101 0.5089568127550783 -0.2287299652136835
Ni 6.277590830342837 8.20393568946781 5.838241821052424 -0.6130774919260925 0.7371818133078852 0.22081996633798745
Ni 8.892705759947734 0.17149859267850692 13.594316047894615 0.06888088213211363 1.4290394487576743 -1.0463801083809656
Ni 1.6344445256045839 5.617564468069872 1.0004175251919651 -1.9401891553990132 0.19918284768418598 0.3330041392434265
Ni 8.681060958196724 7.966848510128415 10.14282283846519 0.5390410337349684 -0.23561280837644583 -0.3009638229784301
P 5.237634799116815 5.057730723592417 0.97519831017612 -0.9205189522090662 -0.5892575066883593 -0.45759722733617963
P 9.63877881496344 8.89523247667815 3.7537521593851313 -1.6891121899486974 -0.7459114798713993 2.697127839618852
P 8.69611059945234 2.4152645464604627 0.7159627065917861 1.6875463881234742 -0.41725173363959756 1.9079434079914304
P 6.494934577128143 7.049207700479902 3.9970178066419675 -1.8051759004142007 0.08050561085523554 -1.4651961011838894
P 8.838538117340203 5.48998371637168 2.0615315814773534 -0.339469435252796 0.7065242363230284 -2.7614887223934246
P 8.471020713785466 3.6939676439290734 4.786495982016779 -0.3150375274626768 0.008716553937391439 1.8723074039553755
P 1.686933838121108 1.4810433109678334 6.501457932657692 0.7000319437304654 0.18032894820247652 -0.34726450581718254
P 5.476298871014245 3.981211072526617 9.833532423155681 1.2460046715882604 -0.8599820711662738 -0.12117532066045583
Ni 7.349638008363923 7.1953238559304165 7.690642407277715 2.373797218909447 -0.3356053243116995 -0.5486711006255648
Ni 3.667308015945013 6.437797581282679 1.789909532957637 2.0375462905939488 0.16009693742631784 -0.9010772985446869
Ni 6.4731623939145955 6.916398305036651 10.305714917550642 -0.17195666497838127 0.045359401971405755 2.0523586730164327
Ni 0.22679126974264607 4.676583804243685 12.967149913348527 -0.6358371542201113 -1.0895934105436462 -0.13016492575357583
Ni 8.151796797519738 7.103393786275245 5.064460642825474 3.1900137149539964 0.8457738979866918 0.5125802684402785
Ni 5.123563682491832 2.6991974228455273 1.5244963836152534 1.415220026376079 2.9339125568162117 -0.5582224917594257
Ni 0.011596154337584215 9.284116313314543 6.372159198014693 0.10045865693839474 -1.743910882956132 -1.189536818408519
Ni 3.9740643372489806 0.8297553310807895 1.3052188685877277 -1.147553531998198 -1.1661354087654432 0.051629037030201406
Ni 3.7766023469263637 6.969551572314452 4.246626066187782 1.0247915835769124 0.14492820010567942 0.9713805149456238
Ni 2.520676586407123 2.051518774813537 2.834975249367321 0.7084134829259413 -0.1157081268982975 -0.0418282488896957
Ni 8.364511304163917 8.16308402846145 1.9874618949005391 0.13450211967634904 -2.857870638159284 2.0450300005655038
Ni 7.374434874378844 1.0646422381140639 2.0388981013929266 -0.5055148769530649 1.5838139455298141 -1.632480300387266
Ni 7.8209721161194725 1.239336113081217 4.212614061381967 0.5438181434086375 -0.101025070964826 1.5587608592159283
Ni 2.2360981984485955 3.962269918642404 12.035483981527424 -0.4547672140865523 0.046594302819771366 -1.9429690321369957
Ni 4.875539692779175 1.8644679640115027 8.197066524166765 -1.865848278593593 -0.6827150497185726 1.0537357774150884
Ni 6.996312637831486 3.5219849175704687 3.3991800293565184 -3.1566567367601053 -0.3057211351577574 -0.36414328385039224
Ni 1.8468086116803109 7.332697940357448 2.861483643211313 -1.2266478643282037 0.96057545391032 0.05993575712368387
Ni 3.110083982543133 3.7317577357584333 0.5050427221218369 2.7812088265301713 2.465576088685657 2.1998083539923856
Ni 4.679368725603487 0.1918146862141982 11.345705990833507 -0.22837875252185183 -0.34189218576167574 -0.196407598931894
Ni 5.662814829369695 6.104953370816861 8.399247204091402 -0.7040117543138198 -1.8274977038398528 -0.7563187912476522
Ni 8.167611831069605 6.582917804591277 -0.02518970591534397 -0.5871281190501824 0.5604015016886155 0.15892425727445533
Ni 1.2381188626855424 3.01572863369052 4.695230789282276 0.8767428355643804 -0.5734917592136703 0.2901363933456229
Ni 0.9729611514943722 1.6763935562858328 11.908182644124603 -1.0615989822132492 -0.05904024189260799 -2.031014145902386
Ni 4.532265859604963 4.897191995271937 5.504521559165478 -1.4692820983278052 -0.3888904088880851 0.29919207578998797
P 7.46744387052109 9.24427902763791 7.69806486821316 -0.9390337231838022 1.6840208914687194 0.1309506548796648
P 8.38826613006739 1.4402469795249129 10.58529981240873 1.1155332703378595 -0.14092113582881535 -1.3867769405440373
P 4.42751777441958 3.4783391136104003 3.4830614918499845 -0.669245554477228 -0.5260225099881135 1.1685368191180843
P 3.7971941661198634 8.813778137700908 3.0623548568012104 -0.20338583002194005 0.3409146523397548 -0.019163460302328288
P 2.204209926719477 7.703387572216064 0.6783109386710257 -0.6516720643698389 0.4950435451080958 0.019067301044096197
P 5.5505142587747835 1.0574862812425208 5.833707563328535 0.12425601646830858 -0.33288355450516216 -0.4479656177836865
P 0.29359710679920975 7.236074079403804 8.258125463900717 0.4817918223045122 0.12718116053490353 -0.3896370572461225
P 3.5951859300012785 0.3044500006679198 9.273647037752347 -0.3259534030442322 1.5239730621127818 -0.5747873380966423
