# total energy = -340859.71241927036 ev
CRYSTAL
PRIMVEC
9.37043949831063 0.00000000000000 0.00000000000000

0.00000000000000 9.37043949831063 0.00000000000000

0.00000000000000 0.00000000000000 13.71458538432135

PRIMCOORD
 96 1
Ni 8.83693332361223 5.934533459705021 10.51674198869611 -0.34906067848565686 -1.1952364398964577 -0.02489187814567326
Ni 5.687912868182538 9.139476696783186 12.762504571582967 0.4825281862499045 0.061651711373526076 1.0574389372982886
Ni 2.405269948559275 0.5518111137912433 0.7640159559104898 1.0398708465075381 -0.5007503656848861 1.03698375476773
Ni 9.215920740464194 0.3760366655213492 8.156680661507682 0.1817260856603193 0.27601563767352466 0.9307262317593713
Ni 6.326639491554951 7.575700307268462 2.9967873617736482 -0.510095811455528 -1.660216847070586 -0.43916447455228885
Ni 8.475431146464699 1.8031630019097569 4.431319156328408 -1.141527637519092 -0.5996223948624513 -4.406179448803953
Ni 1.4431132428512867 2.498271558455572 4.0118317638459375 0.5180533757397079 -2.117059455628928 -0.09476057811235293
Ni 2.8645807709559286 5.491152384091611 4.706708870541432 -0.38782597217931275 1.483934301023341 0.8451558047867186
Ni 0.10659811729776074 4.716957319986628 0.11881248490479582 1.2868373893339062 0.33278379570250427 0.5670501173533846
Ni 5.339051413629475 2.696765573814087 9.21259423451828 -2.031576189053443 0.0397130023189058 1.7828157875514457
Ni 6.161091940719899 4.884772517128471 8.215941193629211 0.44785994544375773 0.3292644696953361 -0.6772691961126529
Ni 1.6901648745808455 5.02584448055303 10.263583641684997 0.0681396330907149 1.2221980560869659 0.3804163099788029
Ni 8.80691980658474 9.117175051286642 5.916115861291804 0.39425732962695326 -0.500620524975241 -0.48069396125464314
Ni 9.244641136870454 1.3517139780725982 11.676515636645606 -0.3974277569351349 -1.210982904097437 -1.6431480645137575
Ni 1.3253830436838232 9.16368991189372 4.06243869528845 1.034710128242205 -0.09259519502991795 0.8746016208516615
Ni 8.400973635911956 8.387976836624684 3.428700893790978 0.024510326436538433 2.4470204371706563 -0.46103710625566413
Ni 5.293698487493649 7.499106336558906 8.698091524737324 -0.7927762627437379 -0.10061060913522672 0.9253019754200065
Ni 0.24975125528735465 7.032280421856275 8.294594786893446 0.6452183383246952 0.5170637581329288 -0.5448291011716552
Ni 8.262937694815497 4.346759375183303 3.6111733320612625 -0.01663478034320361 0.03298905333151093 0.8367454692358364
Ni 4.157139165826983 2.3365096650913624 0.06408537130899397 -1.9906460264979844 -1.2258796187036114 0.7500882369569083
Ni 7.123754650149238 4.673872040157593 1.016655180585254 1.760266698606336 -0.35305617279829515 -2.65009593504103
Ni 8.710535468106823 8.244946451389715 10.712586043825036 3.3241116572133915 1.6332200067667677 -1.5455212205972026
Ni 4.790571491003788 6.539966912300451 6.456072432344528 -0.8175712103002307 0.24953610332575732 -0.6792057510137335
Ni 1.6760529930187473 7.935825029841206 12.364946818157454 0.6841042167566154 0.002406809669279726 -0.9425229672839832
P 6.344968070794966 5.04875520460305 2.7705933908469276 -1.6830269029865659 1.4559403869135763 2.350528992410126
P 7.508514257600305 1.2975059868131447 2.5330293288926833 0.281132904295432 -0.367987854407463 1.1588129069621012
P 4.092689284429832 1.3949772962480345 2.6162219629462156 -0.13907225554553468 0.7728311870803787 -0.1594932424040479
P 7.066904195011622 2.951707115420994 5.794123986337858 -0.20968169033298084 0.7873633192582827 -0.6552795792154392
P 3.442352686784219 7.801668450608432 4.58315400631487 -0.200704426535035 -0.6463000014246483 -0.3254155282628912
P 8.27261735859614 3.1130473390174114 13.233505016986738 -0.9120001161047778 -0.507760735564448 -0.1333078422579317
P 1.1334202245064384 4.236600490957523 3.0469698123165836 -0.2774305157431803 2.9848368544699047 0.22476660969056128
P 8.737391147095519 6.087646437609857 6.508585311137459 2.360026647487916 -2.147438582141418 2.8371462611277396
Ni 0.7128973984830572 6.738198555359007 3.751199554461698 2.0203127003244816 -1.3059841374656862 0.2432438425591424
Ni -0.03261662506065802 3.6787782403654252 11.470878535420697 2.146517355878729 1.9140078690179552 0.6494583445479718
Ni 7.030434445317275 5.081720410005082 11.967497761827639 -1.155565860779713 0.8866644655534665 0.7380827278555998
Ni 2.509300565493148 0.32123084023555953 8.10536063963564 -0.8488342820795703 -1.7063578644030226 0.5630427959662044
Ni 0.7859484060992327 3.9589075227684276 5.692828600631062 -0.18511531384752633 1.3010211370334561 -0.06106704251464967
Ni 8.56793612307893 6.676231840372184 12.975876033393105 -0.8115620279916733 0.8490440840975313 -0.9226295707941659
Ni 3.2962675383425797 6.996981977072462 10.578567210049739 -0.035017139505133243 0.09819042972950831 -0.09518043925859092
Ni 7.744265139553045 8.111736286524652 0.7417920850600064 -1.3473974103051505 2.8890545199612565 0.4084212798321611
Ni 7.269080793008852 1.451574749524975 0.5007178565498781 0.5606239021120667 -1.2435531247239744 -0.8198132122568721
Ni 2.0371241299592024 5.54644734630804 7.099999649519706 -0.8115347742981636 -0.97564777486241 -0.4922999209246876
Ni 6.909031033950382 0.8730925543989377 10.812126346253889 -0.8426158119736844 1.4976387950936272 1.8744216220849006
Ni 5.369064930656966 9.261226814403598 1.33918007848597 3.8738965597284247 2.2803193641642596 -1.511584972861074
Ni 0.34172305390631136 0.07065873446690353 0.008992810581105922 -1.33018927395698 -0.5574545032451496 -0.7029912834691054
Ni 1.477249753163852 6.713891635855632 0.7231617776750374 1.475168381905253 -0.2741497881093795 -0.7073086798975367
Ni 4.018138069484246 4.108937626148741 3.4890999342855435 0.1270793448497166 -1.2836101406458602 -0.21253304373884685
Ni 5.151651998383526 9.189065061475498 4.254881280957188 0.06957173755155116 1.0829244831639027 0.5763593105694526
Ni 3.3886600696853995 0.5541162418551716 12.411507593917024 -0.4931314156870475 -0.6369810380165676 -1.202557399037903
Ni 2.869593955973009 2.4037894191523614 7.133860668917314 -0.3912270274410617 0.5354916258208133 0.2729570533528589
Ni 6.9869743479168696 9.192728903235645 8.99462844632707 0.2549323346406642 -1.368598726973114 -1.4277513260738701
Ni 8.893259034149926 2.125918412616866 6.417493396767294 0.8773686420738375 -0.20643747236407028 4.884938140709096
Ni 7.326053063857163 3.235265978602036 10.708581118074942 -2.5690995005923045 -0.7508120024968101 -0.9644562770219647
Ni 3.7041533899472054 1.811259061451359 4.774033602710995 -0.3694580111950863 0.12251563673843417 -0.15030977613256694
Ni 9.102557166003196 3.091645255692158 1.756865535494077 -1.1242349118769153 0.17211813025691003 -0.3206476745606026
Ni 4.729410633795412 4.302708940107989 1.3423229238219114 0.7164098708678565 -0.7307370861238061 -1.1591371230707392
P 1.457628053302608 1.37885077023982 5.873381035892001 0.2453063815151259 -1.5281986701583552 -0.11919402856436892
P 3.4690865500622174 8.020646246242343 13.914132496662656 0.6199431086976743 -0.2646109953810088 -0.0632455382232072
P 0.7629430406124418 8.199424857346772 2.0254382551277996 -0.11715591508841759 1.346446359245791 0.2603758742537387
P 2.7706233762526375 4.140787749275947 0.21226481293066585 0.4436428220386166 0.7884462679098163 -1.1565829891903177
P 2.096870050835655 3.7591016459101163 8.677122355707004 0.48658641547967807 -1.053326972012444 -0.0033501474191555206
P 0.9344970430287045 5.793498978037598 12.191950705135344 1.160520633681827 0.3654807717148932 -0.9671165974629473
P 4.072139911079446 4.241126413131821 6.5328744268061945 -1.8324396212261602 4.3236629781662765 -0.8002954539389185
P 6.795892350032206 8.365787636399553 5.356340811152867 -0.22379216159243392 0.5198657463580982 -2.8989494104774653
Ni 8.402032495551078 4.137526836405024 7.674723361448826 0.6811492478933495 0.7744579240505243 -0.06349107857511001
Ni 2.3139737586127134 7.9951773922677205 6.382562273203424 -1.4696392245569077 -0.689757815497967 -0.20099984628826675
Ni 0.4785061672704642 1.0461908052092466 2.138858052224503 -0.4172591898387653 -1.438306218771581 0.9960060268037878
Ni 3.5532518357134557 3.607244306869372 10.66244576025888 0.5616505436043682 0.7855481204264149 0.2143832095737082
Ni 2.228843317715196 2.7163966441146146 1.7010889326984378 1.0164385836265268 0.3521858543781999 1.1080734716257046
Ni 5.896667514557319 6.707351069235217 0.6866348683010569 -0.9501308615382282 -0.22522580871516693 -0.29931600296236194
Ni 5.164067830435173 2.621783318661425 6.705677508779049 1.306505814297111 -1.3764837861481456 -0.45223082081794375
Ni 5.894362386493391 4.975103551828752 4.897999829222135 0.3516886030268072 -0.92123397599822 0.3370423138685421
Ni 6.306249415672396 0.6170050080675653 6.823554823843275 1.514925350088217 -1.5150089109409584 -1.7605695745587355
Ni 6.65781892717861 7.493755815727593 11.098171186977046 -0.9485666023749019 -1.527098495115641 0.47813082851315725
Ni 1.1738536700180275 2.427112442530889 13.190687731721235 1.4045844010391035 0.37183988116370154 1.521315569885277
Ni 4.138192137594206 0.011073985146140438 6.467400356395272 0.03837834266788229 0.15973261210836362 -0.11671342823436028
Ni 6.022971665669882 3.1505946892294476 13.231351690039217 1.188694782123198 1.1090003543153482 -2.203524112281076
Ni 4.828596733619322 8.827103732803039 10.708471483935314 -1.056332591607987 1.1713722316843505 -1.7589235543148805
Ni 3.736809370852858 6.218111063764631 1.8770189302604507 -0.8754706537201761 0.9149561134093082 0.2074592287603653
Ni 8.803396521413857 6.481813966102323 1.799449496821404 -1.2273330633206863 -1.8745231806597715 0.7901048865591619
Ni 7.054685142184945 7.564259000902379 7.181656468574547 1.1748529911440992 -1.5679047304987257 0.07015692063105981
Ni 8.043669415563773 6.558023748801224 4.782083747100104 -2.578118416261463 0.34749410532948544 -1.7057058326413204
Ni 3.873945749778027 5.582598501066721 8.567857411388943 -0.206426930841109 -1.7790781748858842 -0.004390158647895665
Ni 2.748790252720308 1.5535532402555947 10.018558835972625 0.04860670526410984 -0.2054745942301687 0.3339996703874764
Ni 4.338194793677487 5.175115578351319 12.460112062484487 0.3718393669430693 -0.3106761651701875 0.08428667516422259
Ni 5.879922539556343 2.55572172170738 3.735620262107685 0.7723984704183342 -0.4533752188350321 -0.2080881205936158
Ni 7.088690466347531 2.170868409863469 8.14842436745432 3.166803338275804 0.8950809717519359 0.7189907442211553
Ni 3.8655966883757498 8.531007221859655 2.409487583281121 -4.383263977658361 -1.986884502573023 2.6516385969378007
P 7.870147620897817 9.09577296796139 12.386560673410532 -0.4902417528440783 -0.3680392764706887 2.5352663540929434
P 9.020350302162369 2.8732015750974496 9.533584254464234 0.3476175182812271 -0.8396477304842959 -1.6104071226373105
P 2.5467167295552047 7.167036709203242 8.455164760380697 -0.7846798588888486 1.928721778189362 0.33601850058971805
P 7.646906275389567 6.950710747886777 9.142539893385212 -1.6313808966755001 0.1492111437517495 0.4157952036987291
P 4.910550595599474 0.594635895408176 8.587168012665948 -0.9110670627675471 -0.43310798394556377 -0.26184731659294264
P 1.4130997258237965 9.23922502296415 10.52148717914966 0.17670009320063762 0.34105786278583844 -0.03125458713890746
P 5.217123257662664 5.128141566219314 10.119512200645545 0.5978298217384026 -0.32133467332529825 2.7759144109004517
P 4.874961667197848 1.8760462786627443 11.379896255190157 -0.056557584680070334 0.04341950463621554 0.6948162038574808
