# total energy = -381167.96245860466 ev
CRYSTAL
PRIMVEC
9.32139277018489 0.00000000000000 0.00000000000000
0.00000000000000 9.32139277018489 0.00000000000000
0.00000000000000 0.00000000000000 13.64280053999382
PRIMCOORD
 96 1
Ni 1.6484975840811482 4.878555832738964 9.135642310045677 0.9870521600446098 -0.1967079037811322 0.08164975176200777
Ni 2.9988131436491647 8.411876264819528 3.8237629044053407 1.9651507104403576 0.6861531288658441 -0.30338374527383233
Ni 1.094434014195858 2.8973404649518013 11.336634673655254 -0.7914760558750756 1.2331283298462248 -0.6926590483051619
Ni 7.983483708547856 6.843710441257751 11.68082895580075 -0.5184722084446812 -1.8495971068420531 -0.07115733687111615
Ni 3.3683411063167714 2.9269172433375017 4.577363930589293 1.3290237928939692 0.5600510603277322 -0.8158174608339176
Ni 5.0990533722012215 3.8848115002709145 13.255740671110948 -0.8416382785517634 0.9040916598909784 0.3702825639789107
Ni 1.693939372492837 0.6615746466407235 13.342890098100947 1.090379139669735 -0.638223652174417 -0.3685722661560233
Ni 8.500401529341744 1.2600378732567943 10.75624283066867 0.15043421752557315 0.31282072231701613 0.9319277082666402
Ni 5.089433695146686 7.152845101952161 4.505357105706943 1.5705419110112564 0.9960800745748328 0.5768809874008776
Ni 2.165508618799984 4.768665936618882 4.350279895190277 -0.5688678872884138 -0.3037699249686575 -0.3472318528070343
Ni 0.4044990308899933 3.2331249867885745 6.005655734793268 -0.4436394796045069 1.0275804591759592 -0.6931048775933288
Ni 3.7304865261285713 6.041203797211077 3.088634081728146 -0.34737146370869204 0.13434245417003313 -1.3561085649259033
Ni 3.052998398220887 6.397877559628485 13.1545923768724 0.6663720895841749 0.569046064737491 -0.6747014353854768
Ni 4.896667298356177 3.065507706948782 7.407835522201826 1.1771448725020697 1.0437164455058736 -0.9337135965224694
Ni 2.474447530252006 2.6221356729381187 6.860350059000049 0.0039700403913415505 1.429812322367957 -0.8302773450129894
Ni 1.4491409627968832 8.142441414760068 5.602511102232755 -1.4743708257046222 0.27525767646157756 0.05866640349295703
Ni 7.154299239181335 4.46291494140005 8.811912212983055 0.28830936743921315 -0.3505210650812673 -0.1054820782949151
Ni 8.944398096649554 0.6095957656724976 8.519178542383079 0.06578270282276413 0.3241659721265063 0.4414406721809752
Ni 4.550293674645419 4.794626014716638 9.011124352683652 -1.23774166024852 -1.5710954695218815 0.3239122042444873
Ni 8.197381702123861 7.471739260588528 2.3892639849391406 0.1833476804241423 -0.8584414661520312 -0.21852962764191397
Ni 7.320583559894385 2.441664192848127 6.836857353495643 2.000440901101219 1.2141798137681798 2.00909240612863
Ni 8.04205001759209 4.157853729225826 1.7047904054959235 -1.26825756944919 -0.8898456914949255 -0.5397717412534059
Ni 6.848194031047703 9.0316370090075 7.853505279462434 -0.2050580755180404 -0.23775582286137764 -1.566416061768341
Ni 2.476153345078537 8.324861065881452 9.392208045626944 -0.20560494916044592 0.5090727695076522 0.8029945980376364
P 2.002179179507756 4.974230605304621 11.923820879631231 0.02864723142304744 -0.35380230693570036 -0.3917980694531833
Ni 3.8797313413613 8.625075153958429 6.417232499004491 0.6860793382051152 -0.9222621601524181 -0.36124565058762304
P 8.621383882530527 6.007124786250435 0.8223584136426478 -3.0089586872187724 -3.614325954984801 -0.011057286255426119
Ni 0.2582081649388369 6.402510291698353 9.954155649284258 -0.9843324471206016 -0.036873733097897786 -0.5990989182588135
P 7.0883876728512725 1.2380766725392685 12.573505158005709 0.11519699158983387 0.15531185733284864 -1.564368692321009
P 3.12679586260147 8.69627194983299 12.123647299097229 1.8352125559856072 -0.044136842418214306 0.7564617445834197
P 1.2582481658978109 7.607346878601502 3.193329165810929 -1.9412327661721795 -0.8148332425437773 -0.5291428007846499
Ni 2.860968391437461 2.8328830358509136 13.227976903565466 -0.16194144683422432 -0.4576123968448313 1.1724477241367164
Ni 2.635884726867809 0.9277004023645632 2.2640226875195277 0.234549400108938 0.5215184514701728 0.4646819020971029
Ni 5.789311807826652 9.520777080167168 4.8849409865978375 0.6766436467135121 -1.3529738759516634 1.75009335761776
Ni 7.347205456859264 4.657750687324383 5.0266764880368315 -0.4400990705514163 -0.6775080515963363 -0.12849139470589485
Ni 5.754160836729119 8.454391135987878 12.17038755748343 -0.6186799257145345 -0.17203199830100693 -0.6974413001851537
Ni 1.1786061884230479 5.493534702577154 6.686131368995506 0.04221725679799826 -0.001114058999785178 0.04448265579340726
Ni 3.589584357178605 3.6143606184295316 11.231885525496002 1.0591230098689308 0.4621899889131846 -0.8042307844375826
Ni 4.092883623537729 0.516111520343097 0.558926540349778 0.4753404102522136 1.021045229160603 -1.5105529320521338
Ni 0.13981622672433394 3.0278586026626666 8.65428280520134 -0.55593960926252 0.15566435557626093 0.1124202001756451
Ni 2.020747393357209 0.43848109936869134 7.380386817722666 0.9187700878387596 -0.44501887645053684 1.3492946273278632
Ni 5.626877222213915 5.602967850464997 6.812096006472707 -0.49696055962515057 0.03500994041628164 0.17843224540039593
Ni 3.1572954588441458 6.63491124937635 5.424336413253459 -0.5681330660049183 -2.0159030012925605 0.8206855875594962
Ni 3.521379728294845 6.353843301483497 10.490153428375558 -1.1453007314082793 0.20009558930644247 0.6670971406756575
Ni 7.301530633635208 8.456162200561874 10.096804647187732 0.23127612867430491 0.09204420762245438 0.15593689251135726
Ni 6.745034180308799 7.006471275607802 0.27689942116922023 0.1553033726924164 0.20909779280505278 -0.3277791433990613
Ni 4.7983359289295295 4.786982472870979 4.7819517173415855 0.12597788425542178 -0.6359207150728532 -0.13627129576162983
Ni 2.8786697157849064 1.0047062900418238 5.224414915584015 -1.1217393991485713 -1.9482338800803611 -0.17694537644222427
Ni 6.337521543225267 5.680680299693355 2.9257940155418893 -0.17164479016491732 0.3474534818995371 -0.4411210840580274
Ni 0.1522062216282964 1.051275966945372 6.365811969446699 -0.18454530027666927 -1.3710096504074518 -0.9790501156757396
Ni 5.66121723216441 5.89334786946006 11.49607802441644 0.083045860778586 0.19846448146092271 1.7724493567154571
Ni 8.499991388071978 8.706301768157292 12.695443886064448 -0.07511092220222548 1.505052571059195 0.1965469527232357
Ni 5.170995879475358 1.0759776570563413 3.017950894580044 -1.8026757597001666 1.598833301756782 -1.1149840827026087
Ni 4.391671538563016 1.0046130761168766 8.027901075924376 -1.1247262496910373 -1.4315586156351023 -1.379781740173127
Ni 1.3016112837831808 7.596934883184916 11.719343085310376 0.44404802789683523 -0.21122358089880397 0.25111604621836753
Ni 0.10175511688995277 5.851010104749107 4.42435979776345 0.3515489921251494 1.5308816163071572 -0.292592053974967
P 3.5329848619507533 4.654180593998911 6.989984528702417 -0.955571058717193 1.2148896953510109 -0.6454132279443207
Ni 0.6258233778665303 7.268495618633971 0.34055148195856566 2.6337046381672 2.384604851047912 -0.36880212277864227
P 4.9598756608627745 8.126753511191477 8.239255261488577 -1.3753463301095925 -0.6210399413062788 -0.6251714469761491
Ni 0.26281200069197197 0.24851484888359276 1.4438725117588758 -0.006591280064272519 -1.1171687490587534 0.9132987803115432
P 8.402974334987084 4.768414259021526 6.848153949059976 0.20491795039575028 -0.3892709321559554 1.228963656945574
P 8.64797781531792 4.389285262084372 10.603061591385428 -0.4369816079683571 -0.30292223225638154 -0.33440719023854015
P 6.841016558826781 9.179520900936003 2.710223764152334 1.704319493816755 -0.3564487434196119 0.9431060934809627
Ni 4.9474502446673325 8.195899600717203 2.2288101952315285 0.18950315850257687 -0.6448905226716313 0.31526172765834093
Ni 2.750435319235244 8.118811684785989 1.1272387908024748 -0.7560408549959172 -0.9224071703707146 1.2223682631162431
Ni 9.210607744905845 3.692930635767403 3.6912229566623735 -0.07148695229639301 -0.7734438809637131 -0.03242109664318287
Ni 6.221078708181408 3.640479160199696 11.124065910648996 0.2485804242807074 -0.9716378823720687 -1.2633125667390888
Ni 4.128472700082514 3.0773085898470787 2.271499376439531 -0.8266893705514149 0.21827868797337244 -0.15115155530757193
Ni 1.1092923138324184 2.5590112029639736 1.441430306925263 0.18828471271444347 -0.49133550012888927 1.5269737966123185
Ni 4.93088613020424 0.004605700031633948 10.00266883652295 -0.20046197150692574 -0.32310153541773384 1.90933077525726
Ni 7.406321728060686 7.044866091293493 4.891598325117556 -0.16238856167397195 0.4754018596177683 -0.05890243076316307
Ni 0.8541080086188639 4.9864695936501695 2.008029285437433 0.7842836518916945 1.3901265737425608 0.6684366854226875
Ni 0.6198148082644432 3.918415120214328 13.452223507089094 -0.41126671970075623 2.1231311157443047 -1.183456159432078
Ni 0.6074956559434406 7.846179597100845 7.888239584315454 -0.4809693264032169 -0.8749962851869189 -0.07034538249278208
Ni 5.072944151823552 1.6185759141731435 12.115543280462331 -0.7348685917936764 0.3175050151665629 -0.3094587478233186
Ni 2.783973689431194 2.8617793525845 9.049024202427876 -0.5648477103854271 -0.888217154752567 0.7264744541927102
Ni 6.692797096768469 1.6857924754524647 8.94855823411994 0.4321361069505977 1.0386521436090885 1.4091136563680249
Ni 6.4354707355596314 0.15813089869793115 0.5839619363120577 0.6360752383728465 -1.2930376046073473 0.8335609008602677
Ni 7.290633925808896 4.783990305880178 12.912118722464626 1.3491935829736248 -0.09455977495545649 0.23157180553785278
Ni 2.276200154674611 0.9249692343636144 10.893257046809094 0.4637092537711885 0.1266959933683689 -0.39637463308027215
Ni 7.532673203326417 6.621134231269174 7.6036649285660936 0.7458286903496059 0.6155488362847206 0.36607341099356955
Ni 8.897325064551291 9.017543063555507 3.947094248502788 -0.48928735935060885 -1.0165200875967397 1.189906543043112
Ni 5.741623563823739 6.5678624731619335 9.402945357641595 1.3117691195785797 1.4476154119876488 -0.5464218995800718
Ni 5.9931893044708495 2.3553201341696703 1.0840136295260268 0.8182499815348102 0.593865437774016 -0.6330225675894517
Ni 8.967049080411687 1.7248491100052803 13.328224751289026 -0.3545957493712732 1.1880617765248893 0.10277085001133912
Ni 2.873244665352988 6.704747121946682 7.843259204832254 1.104813312817194 -0.49607918546146185 0.053903434886674914
Ni 0.7834844783827283 1.509646121480016 3.6081796030662923 2.082134104506653 0.901431596560312 1.1335243075986412
Ni 3.008572641591121 4.792854950142643 1.2563857516773689 0.46997040418955194 -0.15991387488123426 -0.9617270510162598
P 4.852372041221337 6.446320836423469 1.0212443046059299 -2.001229972661418 -1.5099410094997479 0.14593658676553578
Ni 8.06859734341701 1.7414877956083292 2.5594707476139624 -0.7957839392218101 -0.09752425690041913 -2.226345738161282
P 8.291052375303154 8.35468952186451 6.338322250840562 1.1549431395940497 0.4123180437834061 -0.058350929135067245
Ni 8.026464649340943 1.7517320059600108 4.782797167640855 -1.5321885080440387 0.7037901252213169 -0.0949734654541074
P 4.753844922552301 2.3462038123098488 9.598391654774332 0.7704333762721635 0.9482724681732508 2.3398527436432026
P 5.762317055161986 2.20107905255978 5.610561056791184 -1.412807303169528 0.448230441409299 -2.3363799546032538
P 0.24521227952271865 8.601361531451898 10.140447406847944 -0.2152674119508744 0.6853524873414197 -0.25621480089751364
Ni 6.306304199760499 3.227699936356656 3.309197803077115 -0.14459035715028645 0.26082324620380243 0.9661112961268844
