# total energy = -381174.7721833368 ev
CRYSTAL
PRIMVEC
9.20088561669187 0.00000000000000 0.00000000000000

0.00000000000000 9.20088561669187 0.00000000000000

0.00000000000000 0.00000000000000 13.46642613979553

PRIMCOORD
 96 1
Ni 9.132854266696294 3.359123726499084 2.6111800545069257 -1.4885741137881976 0.4855962836522669 1.41185548077922
Ni 4.336635015115192 6.434151707865877 4.515198442421322 -0.13909359570177335 0.56889205565813 -1.6294253156110259
Ni 1.9937951092135449 1.3410658819189603 5.912286676672487 0.39394005549685057 -0.2023098233489419 -0.3532191807387207
Ni 7.818093716750426 9.186633443115577 6.199403992640721 -0.36975394516895027 -0.09896278911915861 -0.5078180711649448
Ni 5.429451802257642 4.1103116307590675 3.98105298919768 -1.7195805337408838 -1.2594854796835147 1.0981086471035089
Ni 2.6085706833465303 4.7053789079048665 2.9821266393128143 1.187982843657838 0.7806414271534169 -0.33432800026117265
Ni 4.292709987189502 7.252460072686799 6.7408889923193955 -0.028168492014416006 0.5669745269204429 0.9548866310556586
Ni 8.627836057063845 5.522960402762208 8.701048423990429 1.179093254477692 0.5282866234319418 0.36355244434392875
Ni 7.86918623457015 4.245684260811578 4.779853636337819 -0.09366528816564514 -1.6874422584454423 -0.2869798499945122
Ni 0.3964137160994625 7.916929630026038 5.054313293965589 0.7228785093113358 -0.11603439988946469 -0.3199071968501523
Ni 1.287176294872297 7.399968670865406 1.1184476941999693 -0.3450153047716897 -0.3446306677387613 1.0389174814553332
Ni 1.1821941900059103 4.858720867563341 1.0980640522086464 0.6842309721424668 0.2516446650283279 -0.8973880226185577
Ni 3.572611875422377 4.362517106349999 0.2767893218654712 -0.921058112541988 0.8404224038667912 0.061107665944597996
Ni 8.742359480312917 1.1231613079004994 3.6465603131981554 -0.9443317383579479 0.5555251474329207 0.764843797999528
Ni 9.147502076595266 4.447965731055883 10.977224233257639 -0.0352397970389006 0.8402344562257013 -1.166778698776397
Ni 6.953670513227461 3.581260707900414 9.391067920593775 0.33511912870390026 0.489983356976369 1.2057267979048203
Ni 5.826175588202328 8.655346705052494 0.5134627824498341 0.74881631222302 1.1293321238941647 -1.636009653696763
Ni 7.173268050199069 0.39092262756447044 2.154035892906097 -0.04021076789093075 -0.7766647018938561 -1.071315438170065
Ni 4.94690215529686 6.483900896385821 11.730658073696228 -1.207290028626882 -0.33286195723860734 -0.5544131453156645
Ni 4.741041540548347 1.659241707368962 13.379810089899856 -1.2676628732879844 -1.351955461989478 2.334868917275366
Ni 8.789891255399661 2.2357139946869813 9.712902018164275 1.303902315235993 -0.28543795942868905 -0.15116209683053322
Ni 4.485229317796362 2.3696328848123325 6.2346323434831765 1.319369814743973 0.3141705514766912 -0.689363922493658
Ni 6.62027642297036 6.707491617714311 7.737552844431548 -0.5970865158144748 -0.6379081778165272 -0.00016892147769648327
Ni 1.927511929243567 7.127861679689374 8.545592100817641 -0.45821634897741725 -0.3846131216689699 1.1433315234970503
P 3.6654764139338964 0.6396391273302193 7.235026234623624 0.006219755657466707 0.17080635342402198 -0.36999537175579505
Ni 2.3440360210315885 6.227867852379077 12.441307796025379 -0.02924089914298835 0.1201715619862898 0.1628387618375131
P 6.649599645425152 6.89872282433508 5.582049410269869 -0.5127103662602396 -0.003703416993516203 -0.049890199962223755
Ni 9.059688824286345 6.260319375942947 13.05082506402943 -0.15491976410075256 -0.07220506140934016 -0.9714280803541077
P 5.277637189611246 4.963196923720907 8.736774542744653 0.4912725081014378 0.4642939226300649 -1.056543679177529
P 7.261081302507991 5.29698665205945 12.025114936119495 -0.10348458824891209 -1.1522835904840156 0.9962693077675036
P 1.6194662788556062 4.602706225327827 9.224313829974411 -1.5447694300328427 -0.8098249906959085 -1.2019470191474138
Ni 5.109527808540803 4.213251139018939 10.794579293092726 2.9482140610405483 0.2634051479983657 1.321874840554014
Ni 3.2900250755309357 9.058630722440627 9.148106574780167 1.0598262065835427 0.8515280268616497 -0.10144981720707044
Ni 0.5624740599434598 0.5771154292225028 1.2807163530820527 0.9142652579898706 0.2869878204143122 0.3038162048255606
Ni 7.499485449676523 2.893706128553307 11.70127412539638 -0.7808383736555713 1.6426466993973066 -0.7339033996669296
Ni 2.729028677817235 2.870253071120843 7.670799499206647 -1.4142116397162223 -0.6054796249741766 0.8452560778100088
Ni 6.974068876635768 6.488473736536442 10.177803446427053 -0.9419064167459068 -2.016328004645121 -2.4680841998194913
Ni 3.3095861583482837 5.11196604322876 7.7366907214494285 0.4717830319182585 0.27658025192774305 0.405773814906985
Ni 7.709293244353843 4.7662887706757235 0.9294375813666443 0.22794912118360097 -0.8193308733038146 0.4989408232799729
Ni 2.2513278975755227 2.306855242261644 10.27651238748118 0.5428943460427875 2.024235432417656 0.1780553216769514
Ni 3.5899739465777554 6.787511719907384 1.144660097228352 -0.32194890987052943 -1.356980168897579 -0.3246310846883828
Ni 6.6465633531722235 2.5308139990147303 2.7763460722691513 1.866996276155107 0.167979168387872 0.35267539242010876
Ni 9.174966720155842 7.114336377835423 10.594764580281785 1.7124223254295474 -0.5065309769224051 0.22860089583498694
Ni 4.6183569317588296 1.3535422828128094 10.69026885287623 -1.430214957123014 -0.15401525000861216 0.9731602325538659
Ni 8.321566177599566 9.156454538298597 13.136270008381068 -1.0475836417707634 -1.8129928253554581 0.41778909420030624
Ni 2.503211342169932 1.532729530163632 12.991936635828175 -1.398534852410914 0.24567276371560914 -0.7564378333240198
Ni 1.6741563429507687 0.4198078878639914 3.6791222473894036 1.9869323250918232 0.34300778742335764 -0.3807608378024152
Ni 0.4060268013899446 5.748731733981436 2.9260656432610275 -1.4527933566441626 1.5003950176825256 2.126043404295093
Ni 9.02316130839506 2.2157020684745015 5.729600332522305 -0.7239714852651983 -0.011364275972883654 0.11718625410572076
Ni 8.622757168204402 5.8451110107978606 6.245674326309658 0.4276395046318248 1.064733928297805 0.4913612111605021
Ni 2.035990370643628 6.530926622763744 6.29197226263544 -0.40690561451858315 -0.0007353355041277658 -1.3613209623647782
Ni 0.7914555801537385 1.1923335659535668 7.859262159345883 -0.41871571977963373 -0.9105476999289673 0.6331837757576643
Ni 3.738163410291868 2.054033307334512 3.8843231586393263 -0.6728096176794026 0.04482589806543893 0.9889437206403677
Ni 4.738649310288464 2.7409162220317285 9.041385502532558 -0.3038974516854573 0.09436925621120522 -2.5464617085881303
Ni 5.279845402158831 5.180006592351191 6.1103237783826225 0.3039776701040894 -0.851746827740675 1.3317656173051644
Ni 4.411088581511231 6.944635243553597 9.388024267632355 1.058751742572441 0.5822628205380811 -1.063496456346278
P 3.8133254448802565 3.1292856038380545 11.959465697168387 -1.5755506770797576 -1.0150815553780002 0.38103466028909216
Ni 6.302717056856558 1.0182620110046472 12.08335654206202 2.1398417436307664 -1.337053605176981 -0.07091179651921335
P 4.893794643527467 5.405925137740258 2.2428336399758164 -0.29013305091151326 0.12616557478619564 0.19506779707454794
Ni 3.2595977468023523 5.29775032556549 10.390694457873938 -2.4483748943160224 -0.09063858552417937 0.3478915978782202
P 4.594876271669519 0.9196680810207084 2.2588983862594896 0.8757388197798982 -0.5788021156829902 -0.35393780407230013
P 2.4911949855568287 7.824065091514518 10.736808772493683 -0.06323936757562013 -1.122178543568519 0.9385403284871514
P 1.0425799516849152 4.951143763565345 5.0014983703587506 -0.47319148223001084 0.13060432728383958 -0.6683811495944038
Ni 1.3014284666898284 3.7093830400883574 12.644448628986119 1.4284462952583656 0.11109376805473771 -1.678708735227186
Ni 5.922361646420839 8.629354203190308 10.379517222028916 -1.5024213040839351 -0.3609633434605138 -1.4795521127952453
Ni 7.680411664408568 2.033423323557062 0.38541405734680995 0.28487385939510296 0.9464986641022797 1.3868473887706567
Ni 2.292409851846199 2.485794065700863 1.9803452546216356 0.8898652318789514 -0.6920810643145049 -0.05748960957603648
Ni 7.713212821625803 7.13814826980687 1.537448664395531 0.8119777753728531 0.8599555888037126 0.3781547676381358
Ni 8.155665009076706 9.119614192296405 10.817162866834579 0.41198919968907755 0.9454352558347717 -0.5597096178279134
Ni 5.826239994401632 6.231474599540132 0.33727870416372596 0.03939804218164828 -1.072851672308933 0.8175182455751082
Ni 5.615898548358647 0.6208619599672637 4.194387483331203 1.1128246131574449 -0.011485889152412478 0.40583089339716555
Ni 5.651349560632984 8.950391504066554 7.814526533397517 0.05184475258543329 1.0999382441130798 0.5745438546272686
Ni 1.1989490027107035 0.35912620705638465 10.17080157247409 -0.6036232884917281 -1.7355162311345338 0.036792743348317274
Ni 3.233899673279844 9.00040751826933 0.995167788111165 -0.8197129392335819 0.9895343030365152 1.5109064587368108
Ni 4.162517455738198 8.61238777011637 12.437147155550306 -0.9399248675395039 -0.3364944117848721 -2.2259436176268563
Ni 5.417619463356838 7.754828427262146 2.405979143257003 -0.7008099595470705 -0.5960246502088639 2.5369139169986954
Ni 3.1040935790243678 4.321057915769111 5.248216437768936 0.7641706831919033 0.17815430914866093 1.3531116870811084
Ni 7.078268906224885 4.250137489449206 7.300136301677697 -0.15703115401680054 0.7210350283446937 -1.6368509186511357
Ni 7.418177223497359 8.08994308312924 4.0024643701121905 -0.1401742303604618 0.2104424797584053 -0.4238442992554507
Ni 4.61886298046765 3.085829821078726 1.9654112971800377 -0.2918171234821555 0.7142930816351698 -0.9065252090331356
Ni 5.745778249699042 3.567036138739727 13.26188417915038 1.6036993715998316 2.2680019802494877 -0.4316722799403017
Ni 0.10780677675017124 3.481661121118763 7.68802263698924 0.9928726233811289 0.8191565525094796 0.4486531307690144
Ni 0.18797593329020637 1.6459096241129239 11.873953586351758 1.2945334724265833 0.07272776668202958 1.377958313811143
Ni 6.742307768881218 5.829625920307928 3.5540049244432974 0.6563478725789536 1.3284694630523959 -1.041796088554709
Ni 3.616417291835073 9.024247012897622 5.22829928067829 0.18424730942027623 -1.0296831073412591 -0.7336884554426462
Ni 7.353531801166839 1.9777487647011016 7.558960894380012 0.12072049251122435 -1.3048651933698947 0.9473000769576524
Ni 1.333539557485945 8.45875138211822 12.562546025596228 0.20589496959703896 0.8571906244640656 -0.992621169491955
Ni 6.973314404015343 7.491489880077146 12.045637511483603 1.0815641124812663 1.2305906510260354 3.5510261664848906
P 0.6149531512253538 8.268109032176804 7.2002560878847905 0.04224271071929499 -0.08841226729682193 -0.3597132731034966
Ni 8.062717662594654 8.408174113892931 8.461453682223326 0.3221833944788387 0.13398584216156278 0.9741269673425095
P 0.1281830580330021 8.289059448722007 2.8285012923773993 -0.10580295196944359 -1.096191118365822 -0.11916523220896252
Ni 2.4853340214201163 7.344570138577894 3.3580012184540617 -0.4745004308494215 0.013681868362466758 -0.019333667331605412
P 0.608045126305662 2.699539839421374 0.851907238820972 -1.309376965197319 -0.6628460787087874 -2.722771251218569
P 6.65192746948573 2.3069196484609487 5.591825351235736 0.16173370169879242 0.33539423674215785 -1.5997511855853608
P 6.8918957672088 1.2494342620798415 9.609076464619685 -1.4574545095652576 0.041908467308327826 -0.0752495046626188
Ni 1.5343764886887048 2.8920131656001598 4.237507433765588 -0.7039449056316264 0.06368211153999355 0.22929072281316
