# total energy = -340894.52338740125 ev
CRYSTAL
PRIMVEC
9.05477837693793 0.00000000000000 0.00000000000000
0.00000000000000 9.05477837693793 0.00000000000000
0.00000000000000 0.00000000000000 13.25258342567975
PRIMCOORD
 96 1
Ni 6.441098363138137 1.8339457218852588 11.507668718800218 0.2364191063278251 0.32915956868635565 0.10295365544610656
Ni 4.495090706247511 0.43259202851336404 6.125874369655442 0.14657987677648948 -0.9404213475599481 -0.5391857868429488
Ni 2.7935348964270124 1.7415960390216734 4.73186138497043 -0.0217445907659432 -0.5511241901517476 0.06985301623739582
Ni 3.425685181694035 4.284096264627032 4.890852424431664 0.47602843745817375 -0.12079685427511455 -0.386914773218953
Ni 5.428873762918766 4.477578765208373 2.714168860024658 -0.6654128109946992 -0.38164195485578795 0.29977211666317405
Ni 7.419593914561856 6.266250596092757 2.5729496337369073 -0.03142967926419104 -0.8089914390510197 0.023283910228605063
Ni 5.266974328699635 4.435818128149165 11.869119165950446 -0.7206519339736621 -0.7533494242066833 -1.538801642485182
Ni 5.721125784107617 7.9458123496650295 12.500670930378437 -1.1965924397037198 0.037966709051760424 -0.25004363908979516
Ni 1.6443115020389925 6.5993577765207965 0.3390235725040349 1.2394277897016912 0.24635282050176927 -0.4126916250727409
Ni 2.5252418183558247 1.435037468276546 0.26871774716877556 0.7279577236064559 0.6589287459322524 1.0193403306543543
Ni 0.5685649163119331 9.254254963924929 4.834979915547483 0.21344964201584526 -0.9190860764172818 0.06985841555403452
Ni 8.773428131939232 2.475277552247259 1.4455518767225892 -0.30545116932582234 0.09206734755090595 -0.18174665448560956
Ni 6.9233196309666605 0.6270334301061036 5.001299892483939 -0.40101598850702547 -0.23349550492312693 -0.3073468436866384
Ni 0.5494557123982836 7.586754174915288 2.3791040365497396 1.438488509985716 -0.9684049772570675 0.39795380464193403
Ni 7.83146861055322 4.056767003133436 3.8139875735968825 -0.5820548182923331 -0.7695653718449134 -0.801676136336529
Ni 7.554238466398459 3.8912094385214355 12.484595982639666 1.3702668587041562 -0.7908888159130378 0.4573771409055736
Ni 7.774867192023925 8.712118228745847 7.242696145731956 -0.028651088077789367 -0.0272673203563853 -1.2913401623002663
Ni 7.059648371548497 0.6755742850816021 0.48929304960286035 -0.5187362607393453 1.071351947834955 -1.1828853745302725
Ni 1.807062085408939 6.419747196142124 9.24862017545096 0.5743451083529012 0.1980155668489622 -0.5021264200968062
Ni 9.479537845545284 4.915694208423844 1.44144372385317 -1.2922655023280132 -0.6705678728330774 0.37451999909902595
Ni 6.187772833431839 2.016834131972395 7.031210935133027 1.1548968597371465 0.06906985821446814 0.16612977388395905
Ni 3.285345174369521 4.210716342092813 0.2081838384671452 0.09413322894099917 0.19357938545447953 0.2031839984237791
Ni 6.187646066537036 5.632053930952495 4.826722863306744 -0.7606829817536189 0.20717820718483673 0.26426878155024164
Ni 5.203101923275601 2.807787117314088 9.317824939757077 0.4782766100624021 -0.3976696977426119 0.10053553292291717
P 0.21099081970919945 5.548813354958285 12.29334820131813 -0.141108312138957 -0.5386265719053692 -0.03090748821213387
P 4.085660800370195 6.07868992045433 12.663453205472084 -0.8124385170593557 0.7427292254886757 -0.002502197596563432
P 2.3294412945552394 8.518563289938903 1.3486892924040366 -0.06394205006959955 0.12607918571997642 -0.3262827613591929
P 6.165407531277406 7.5652219123552715 6.044463764335488 0.10990000485695267 0.6812533775713815 -0.8382331095249563
P 4.756810015345372 1.1763877289885452 12.75743999223426 -0.25435872152538125 -0.5703820099400951 -0.3347835997413524
P 3.8424313483570924 6.1002312377925465 8.25298030698303 0.8507536105894704 -0.39984819345116945 0.29026700538621625
P 4.766915147816767 0.8356030021245763 3.778947392917845 0.7926235392159574 0.711736119541271 0.6129833895503894
P 0.31291230860819 5.796995770646883 3.5897668174594073 -0.7481126012877761 -0.845685966258576 -0.14956801287053598
Ni 1.3998868193034664 1.0499468062013004 2.597745238360267 0.062097026441060785 0.8718870501339758 -0.2507023557197166
Ni 1.8947938313904353 6.60212853865005 4.734723600359504 0.15395791440811551 -0.35562624751831656 -0.5349087567341497
Ni 5.781041251458175 5.43115556702521 9.3800321714701 -1.0454077171653673 1.6036006412384383 -0.5861143330736873
Ni 8.468263997036932 2.1674875316669078 10.13348207646231 0.5611725755266852 1.7758372993510836 0.4473752924978553
Ni 2.305763049561781 5.382105833514862 6.900739730568884 -1.6026619314742527 -0.7720349164313285 0.6754151736230496
Ni 0.5365861561423747 9.340547000172597 9.1545528011628 0.8825291032288543 -0.6622812073442529 -0.2787440923482812
Ni 1.5144569278702815 1.1802993931710208 11.198194509474634 -0.377817181793059 -0.27581946250231854 0.9795648505286291
Ni 3.766995991171434 6.897178486302755 1.4558761348264289 1.6591644945466715 0.803835605881693 0.023248943225611572
Ni 5.3158067475331805 7.887418085052102 8.093034893899498 0.6503772568178153 -0.4020814536570623 0.9526636552624108
Ni 5.300105762134076 2.6803230045902233 4.8188117035932505 -0.06953317100413187 0.7223403774196785 0.12469927465331428
Ni 0.8311851758407107 7.5979368259925035 6.941663706122395 -0.9436210854441685 -0.20223011915094202 -0.3682580773497141
Ni 5.0088226022126445 4.470334942648233 6.9619400709460475 0.6938882927265726 0.17787534445566142 0.44166924325201357
Ni 8.478894306643937 7.3283851337514925 9.303088288236292 -0.9006299265946232 -0.6068713631153806 0.4742888290592477
Ni 4.635285837120822 0.5182773946216207 10.47333053926038 -0.3972863462612642 -1.0388292926169012 0.07917017987326365
Ni 7.986287208219813 7.339495346603107 4.862108031035208 0.9075757617848368 -0.013053490749848488 -0.08910955047416266
Ni 7.140217787973654 6.307911630591762 7.535869037863764 0.5641887366451896 -1.0254271602783824 -1.0592549074611048
Ni 2.653421258557503 5.107990533060962 2.403091049479823 -1.1484850426735318 -1.0554918408742466 0.6127820721728608
Ni 2.2417367129083434 5.324689484947552 11.3205290903481 -0.6166685517114605 -1.3883836229095248 1.067305288569407
Ni 1.1573998591027779 3.42337621325299 3.7681205946238956 -0.19601396303790114 0.08046395898402271 -0.5736395976454443
Ni 3.8872706100043595 2.511795472728565 2.595491504066243 -0.47472077439034377 0.2960301331222386 -0.2332929019940176
Ni 1.1730917897236814 3.3341323193120647 8.155228543445219 -1.0713367783263033 0.2640669499520807 -0.48472313701869424
Ni 3.483164913708746 2.6363077277591724 6.978372682423726 0.6656632364426084 0.22370731518811152 0.3102758444079753
Ni 4.022023819179365 6.5449657238723455 5.9191999627142655 1.5717855536103706 1.547457261277651 -0.35172845512580714
Ni 0.9029741738451589 7.498787004700587 11.328758978254239 0.1982233119843941 0.0011297427290690222 0.27331340825101313
P 0.22748953106773845 5.708539642409374 7.93907921659538 -0.6616854827417831 -0.5882833157005481 -0.22085596178224545
P 8.45728055108012 1.6338803975523906 7.937753597066875 0.007650831677038436 0.4600228060585368 -0.18482169386650749
P 1.6585093942568667 3.2233289984765223 10.290100764035097 0.20616956341466428 0.15752891958882548 0.8514238971836174
P 4.069190158824076 5.968601927096602 3.646329300442441 1.082261652768923 1.5024742688090575 0.8198402088400655
P 6.786673973147819 3.8950486644783098 10.31661949294995 1.481918299034577 -1.0283489619108679 0.7770565380156359
P 6.374292209577245 7.631792641682959 10.290961873441933 -0.5475094762172958 0.48258243652660754 -1.134990864841839
P 2.567038674527833 8.396187962563538 5.72490343757273 -0.995206156610312 1.2567490545889581 -0.4238880080091926
P 7.145433340216955 4.040504621485922 1.4997284256498769 0.45588307285855034 -0.14985160554922577 0.3321932133063569
Ni 5.34221048076489 2.9654670248919364 13.870285815203077 0.45740285193718644 -0.45240334184006603 0.0009723912155983254
Ni 1.5952798780850443 1.135460131523754 6.892959865139293 -0.4052428821041795 -0.4070241423743184 0.2851582234047412
Ni 6.98642238024368 0.5747502353004726 9.227257237243286 -1.734153289348736 -0.5451296631312096 0.8598139210195258
Ni 2.7816006987591817 1.6590164618360765 9.09242525149794 0.2780727773128695 -0.9525790659684046 0.2905400565419448
Ni 6.537866777763408 1.9185988432786956 2.737877891263996 -0.08701307295645015 0.9237042919155833 -0.18396834472727672
Ni 3.894333337000496 6.7958464634645965 10.625219010701397 1.2360874124745485 0.9377463718309463 -0.9412376728136563
Ni 8.234161761449606 7.014102837201616 0.33875736202494977 -0.2330208792795535 0.27854843139770735 -0.18632553210554362
Ni 7.582751962950811 3.880633457583631 8.096016632360815 0.46656523516274484 -0.21475499109083016 -0.04161767554078639
Ni 3.223066409908717 8.507652282207694 12.440664009768057 0.14082960455627358 -0.9834207339396096 -0.1791089597524464
Ni -0.023144013079647485 4.778342277905389 10.022265857740837 -0.1885780755851462 -0.0808298269638737 0.6040457207411274
Ni 8.709492343067796 2.354414372831322 5.906768657723245 -0.1215797551877261 0.5190406793536416 -0.36146470857696456
Ni 3.4724802754325395 2.6547342013965287 11.602609879184694 0.4586989450407907 0.3303926697625084 -0.7781104332014471
Ni 1.1086942071640362 3.362174967398007 12.620368759840012 -0.7111005428398012 0.19235219791559774 -0.39801576822812096
Ni 2.9091281949304473 8.172734146139618 7.842388673062631 0.8923329766931535 0.48904001922649326 1.1892635101424744
Ni 5.7615282044367975 7.87801922528032 3.4929830097111956 -0.540185688862373 -0.3449435709934898 0.6462840605850483
Ni 3.025952943269106 8.592214855819128 3.4763113520890334 0.5314956172875427 -1.0581606459556616 0.3085390642225267
Ni 3.3942560465612273 4.1834161858192855 9.35567391263381 -0.27310309201241995 1.0002984835315547 -0.3987037954340811
Ni 7.199870666756408 6.067923789174322 11.47872512028336 0.6016713069716799 -0.3423344155054169 -0.40071414099589053
Ni 0.543011426753219 9.040870060859604 0.14818597263496516 -0.2346599575448733 -0.17173889254062036 0.22838260917659378
Ni 4.883939101275829 0.2460391496886171 1.672065302700349 -1.0771371870581643 0.4711572254088015 -1.2161045415947185
Ni 6.003852178629883 5.6286493343492285 0.47465418968663736 0.17111077203831823 1.0846131837202353 0.7356193539167718
Ni 7.9022226474093875 8.571877823981534 11.574726595195074 0.10547050833068931 1.2778331289527671 -0.3476946513760657
Ni 0.0009199654651377874 4.856258644317895 5.720053698368716 -0.02866857157928611 1.0082799590751343 0.9314386844453636
Ni 8.005465228447784 9.078230075713526 2.477450699015301 -0.4463545645428248 -0.19620371045120402 0.9288552399889036
P 8.5803802607115 1.7210598020636763 3.6912156469363486 -0.5180528615190756 0.5134570146182771 0.08652224936296067
P 1.9377768635066663 3.1189183510503034 1.5997058536692899 -0.267786564895513 0.028904855959808285 0.20665550191214732
P 4.782389763760866 0.9446487905114646 8.282122205142473 -0.5634420882871523 0.25032311800342694 -0.09949295059101575
P 8.599811814729074 1.669474730657279 12.432646003671803 -0.3976912950091667 0.07076781474218136 -0.3524835881242768
P 6.408953900527516 7.818013210147759 1.3201006411926237 0.5150454421513194 -1.2508329462148393 0.7788007744002522
P 1.72488091846415 3.438579185851084 5.938694900179243 0.26461845158017655 -0.9894522848456702 -0.09042235574831524
P 6.941519735149012 3.8306873010314657 5.940444283327517 -0.7197091104444187 0.6273751394956874 -0.21095104396370767
P 2.4220173468738286 8.48112178208118 10.11132322325084 0.3132570385234863 0.6453435510486498 0.26302745294397284
