# total energy = -340856.52718488156 ev
CRYSTAL
PRIMVEC
9.36901495150754 0.00000000000000 0.00000000000000

0.00000000000000 9.36901495150754 0.00000000000000

0.00000000000000 0.00000000000000 13.71250041607713

PRIMCOORD
 96 1
Ni 8.693846061049863 7.1081309474226835 6.642513400518983 -1.912908208195873 -1.4857045055498865 0.24353771965047738
Ni 3.6683627690224165 9.046739370217201 6.008200184925368 -2.3801578710201525 -1.6392091344706672 0.2380021345442288
Ni 3.246616570536573 3.099888430705699 13.375433108764039 0.1689315049988123 -1.4728011672246573 0.7489993747681037
Ni 3.199228093985615 6.276087486462319 7.295776385324139 -0.35292453231643733 -0.5578828490318198 1.4908001749052389
Ni 3.766278342061971 2.534618295429794 9.970427722652163 -0.7677584005431616 2.171778187328047 0.33551919235579636
Ni 7.2353340605370295 3.242962654788278 0.27699492076494414 0.3842410830415318 -1.789624325832847 -0.19454097803680045
Ni 4.912661616537798 6.423190386882762 10.831489832964301 0.654169376870396 0.6824607676159214 -0.7639950768459874
Ni 8.175374154396344 5.260167742230087 10.36569052717466 1.3970184157663876 0.24397172186410238 -0.7943135253238708
Ni 4.154455360737201 6.671881514120532 3.794715175598442 0.4445457934688602 0.7212340317293772 1.3333676716849618
Ni 8.329634982077549 5.366009501739019 4.755248115396847 -0.7317195046417333 -1.7529012593802005 1.4915514512489667
Ni 1.0132120989725988 3.1319023540696027 4.134551825825208 -1.972937039253996 -2.7613707087583217 -1.1941455208251242
Ni 1.1903145845880134 0.06478392621726227 11.821217559591581 0.42773206434563105 0.8506600224343995 -0.8367691233849202
Ni 1.875386311334284 1.4982272539923729 5.667390094067196 0.2399769988824125 -0.1914353425282832 0.05631872919638688
Ni 2.8312787781323543 5.980757403852728 1.8982214109581765 -3.0174546405049254 0.26269140976079275 2.1084763419456074
Ni 9.231140318314466 8.369322128512872 -0.000771069913037541 0.6049931722560613 1.3817170095226268 -0.48787505238411466
Ni 5.9617664109763355 7.6547192673085895 5.666429770056427 0.7583304223610423 -0.836514841282269 -1.54381992163538
Ni 1.2529558171344168 0.7974568061490711 7.91209921881551 -3.028560263499784 0.557711356450962 -0.4296940731680083
Ni 2.212239867268084 3.2836335477712186 8.055339274458973 0.32816120932882836 -0.4817203456366284 -0.6067417795160519
Ni 8.020663614007658 0.10738764694090273 6.320982868191172 -1.1920672981398568 1.371550096291954 0.5192648795493057
Ni 5.524861146642439 0.6384646260245623 5.838000789369808 2.422891662443253 0.7194795109321157 0.47313208974698523
Ni 6.952867635164383 5.107181100553416 1.7559819660888614 1.0051707240221914 1.530615507129964 -2.452787935782053
Ni 3.835974442707005 4.669057864303421 11.917383000677848 -0.7168076205269074 0.49364923586373044 -1.6623436636056015
Ni 4.30231715135152 4.322694758409317 8.126850153258994 2.4229394849620527 -0.41773432970297086 -0.8569764515707305
Ni 5.575538147366863 1.335768538414354 9.269649779597069 0.9289727394033743 -1.8446991553198038 -0.4493151898330456
P 4.651875091271698 8.637397747246082 10.451119077369787 0.055372820343349796 1.0556299091140078 -0.07142344604830925
P 0.17131337140805272 4.4102669391767755 7.951892235117385 2.0864872392690264 -0.2893326664974049 -0.28646485803130667
P 2.1219694102557303 2.557703547747224 11.500852532697326 0.4211011892926748 -2.388255817536938 0.6131569390137762
P 5.595297399451871 3.418294396617981 1.976369299799458 -0.4234972003286771 -1.8557315018745655 -0.8904193046102084
P 7.927132739866057 1.7792227440509625 4.663963930989709 -0.2617277602959428 0.5251133679102827 0.06826947380035985
P 6.188009378898942 5.108043049909424 5.536943428050133 -0.006612363110195063 0.892167911870199 0.7388064933955019
P 3.5432021011212194 5.789601396128488 13.789564172069845 0.27505430220151983 0.6045568560495911 -2.189679750198816
P 6.236381601997518 8.957611933003031 7.684004933580433 0.8184998927620871 1.7088166103561602 -0.08437460689233857
Ni 1.6351272973618087 4.2593227427132545 5.925321880542256 -0.5459285048834212 -0.23951317187211651 3.0689957458070114
Ni 8.253858390866764 8.66527056609525 8.552308355384515 0.6194250314106752 -0.1330918695923837 -0.4003595858699492
Ni 6.778950614560301 4.876778290086597 12.150385712734801 -0.2331401784662372 -0.7606081626516256 -1.9993011310698212
Ni 3.9644798488701025 4.214117246596533 5.503237460624327 0.8109362214822163 0.3960041371147309 1.278668480369869
Ni 5.205921146890021 2.326260776644352 4.329557561705792 0.16697643815497049 0.8248132365746246 -0.6199109699081581
Ni 8.9503415775654 2.742404304316144 6.258220775354633 1.098346731256244 0.3245256694587701 0.837658467968409
Ni 3.2773000938075083 0.7270570924971224 8.546740349924997 2.3728399972025005 -0.33102618958144925 -0.2969655004523144
Ni 5.248606378041893 4.476524611412517 0.0419225933520994 -0.5699492932780507 0.6995064102442986 2.119171873986241
Ni 7.944709011516827 2.5633530636349717 2.557532094777496 0.17509572482799524 -2.2785746135590115 -0.04438058299790421
Ni 4.0164966187022335 4.332447902752841 3.2278260745756 -0.1861884923070471 -0.7155022714519226 -1.4292335670463514
Ni 6.598999948464165 2.82893652444755 6.84992839642166 -0.06275728573287902 0.21766136610434772 -0.46435460066467127
Ni 8.19073933856866 -0.030145741824903913 11.750132034060721 0.997909671584404 2.030934441704386 -0.5279372105123231
Ni 8.64626083518938 5.041494938216767 13.578652659866494 -0.1303688142342658 0.8361751985546633 -0.5065039803392116
Ni 7.173610991435068 6.852356845042064 3.3103343028765124 -0.03556915535386133 0.15945621851852537 0.31993753586745544
Ni 5.328514704752672 7.140069918668673 7.713747807771551 0.026631486544599292 -2.240709720192438 2.351536350628718
Ni 3.839675203528995 0.41995015836033556 3.7133996228738315 -0.13413213793143997 -2.1998862584181724 1.5880668072688973
Ni 3.6862107421006245 0.9157462386405265 11.702370670723141 -1.1150398756412088 -0.5047458599975243 0.28035308870661396
Ni 4.985402646973077 6.635501629888153 1.585027427945321 1.7963796422788096 0.7202991786199338 -0.5111023983431713
Ni 9.000362747258078 3.0102269596513946 11.858885683350602 -2.3252902724479956 -1.533457347454133 0.23821553610661556
Ni 0.05237185549074788 0.3573857517347937 3.5111956729691074 1.8582493832004126 0.49855850023988973 0.8223354644580935
Ni 2.053369484335185 7.895933920784466 3.9915441217472774 -0.6019356163766602 -0.302985224283833 -0.37309097996198326
Ni 7.6383609675739175 4.93296427147768 7.5490470869664374 -1.5165302326814913 1.1925812616617977 -0.9536031363575449
Ni 2.0370861367184263 2.7234976325724043 1.770845907972629 -0.23925683288693633 -0.06463059149619191 1.5951751361789044
Ni 8.13058089492815 8.692693672236938 1.9909456129307312 -0.7178574019476606 -0.1300926777547437 -0.33789309190461164
P 2.249678450165994 8.239729916640025 7.441197547598891 -0.5671213369109522 0.6487482058548247 -0.05378876368568155
P 6.589050054811117 6.646032402455033 13.149917176385195 0.011409527388522286 0.9809061950478719 1.3914139250954165
P 0.1332751715668326 0.5874896906314317 9.769991705828728 0.4372777990525372 -0.3944349928553981 1.2776027581095157
P 2.9455994959802774 2.364617522986705 3.9573041204813357 0.7462783762925147 0.571849338514241 -0.9438386007716133
P 4.8516318545265396 0.48554450435254004 0.024754810743958577 -0.980284502303473 1.1687972718683226 1.01079861173193
P 7.052001180120035 2.027548479713903 10.920319335509763 1.0951680764179463 0.5449926233327131 -0.5221468290827911
P 1.1413802206050843 8.488580317128362 1.710840179272367 -0.18411181228367646 -0.09552985217820967 0.9882310108440593
P 8.89709746680243 1.716010001605467 0.4984915458206637 0.26942770004336175 0.4880390887658046 0.1290117859857391
Ni 6.815218070615809 8.167269956646921 10.358353651732381 -1.0448963247465874 -1.7264006419865108 -0.909493290522524
Ni 1.1304934254781145 5.235649030657557 3.99106442819263 1.1933790749727446 3.514904481061669 -2.0625566965953577
Ni 6.916365953740394 -0.34083819790238906 -0.09602490586518063 0.36814829124472725 -1.5807556183194647 2.6961809023245507
Ni 3.2383249924923665 8.633275380760827 1.5440005124022904 1.300470920956941 -1.3041026041722572 1.1693785982930893
Ni 4.769624868514175 7.833629972768674 12.997160075569635 -0.8293784873478038 -0.4879195324688048 -0.17880222714530497
Ni 6.658118431468623 4.135520581949244 3.6436716675786847 -0.5428632356945361 0.12320623504755554 2.7295954732292538
Ni -0.09231009152108118 4.238832707478587 2.261451554087294 1.188618677469624 0.7412030186521363 -0.9592076270285158
Ni 6.553073038212524 3.5588858317946683 9.23166685694281 -0.8044210460715179 -0.7566988002948902 1.1792624330657044
Ni 0.9672477126620012 3.5735483398615426 -0.029595780659711888 -0.2237178567110728 -0.7770956187836876 0.6822581646868121
Ni 6.229448531090498 0.9956639343660457 2.089373671076521 0.9839046155545634 -0.4442961393518993 -0.24241543312057603
Ni 9.237323868042349 6.507230449093536 1.6261377277195301 0.45907715431581586 0.8712807840085447 0.843916790173295
Ni 2.2693721191478278 7.580526039588732 13.309627023038727 -0.877043911744567 -0.24783917523930862 -0.2747131168120172
Ni 8.095297185420259 1.9722338166935676 8.750741276856704 -0.20370593236552015 -1.4712250809867888 -0.5908042823501889
Ni 2.3757291744674167 0.7846259404637138 13.772012259857396 -0.5897192768161262 0.6088462274535643 0.2684421962016409
Ni 4.093322539563811 1.5004102344266106 1.8374474230492992 -1.053487151739392 2.3003042919266186 -2.137868421954479
Ni 9.262779481088801 7.657764197098835 10.595566799013136 0.4887530841136937 -0.3886106728641372 -1.1667136498664166
Ni 3.1194790405254014 7.727910010451351 9.293811531708036 0.12445167741888244 -0.21450199453975957 1.0172227700907193
Ni 1.3151004918996416 4.415466742357041 11.445521942351935 -0.24737791933217398 2.67117923807389 -0.026946960902489072
Ni 0.8747877169050926 6.74798602084719 8.478055165970327 -0.16348025207625394 -0.4226883312741365 0.027144421625275833
Ni 5.497428671486013 2.816569424991784 12.213244306423155 -0.36204423522951845 -0.7013663462711728 -0.7511341617229192
Ni 0.5618916685609436 3.022772070387206 9.588245936508558 -0.0068003107512850615 -0.4280207992306435 0.9715682054763977
Ni 7.221421073649292 9.202677251536725 4.1149434148775015 0.27160799552413223 0.30250597065456936 0.8890188247182561
Ni 5.919821331988862 0.42430675021407127 11.858968130680307 -0.42692319529109046 0.8424682306522264 -2.121715209233385
Ni 0.6884323923332272 8.653156430037443 5.995146336689217 2.4624604258748106 1.4462815236675737 -1.2212619174259418
P 9.316117281999162 7.130091917971407 4.458660711009252 -0.09736047762904523 1.6529617081700694 -0.49716727631931795
P 5.6174270122659005 8.44779699596855 3.101726631397533 -1.7645925796751998 -1.2484302503106177 -0.7904982653428386
P 4.5294033306006565 2.3754106279662834 6.717616359570019 -1.3273883141730753 -0.0806382797783579 0.9925640910017747
P 2.5453926623798933 6.134053223015792 5.441915385353205 0.7238773828894952 0.34035672295375574 -3.430618577228395
P 2.2144322167170607 6.271843322785454 10.685274178239663 -1.906377091945575 3.5513105304945287 1.9417816966971142
P 6.3334914397695 5.584607353634425 9.306838209801443 -0.8022582340922442 1.9891180198892324 -0.1687525562187868
P 3.0642018535640223 4.8346739378485575 9.674374352104703 1.7156426321390583 -3.7459749214830715 -1.831473400658149
P 9.299730875220272 6.734194831151063 12.45712069698644 0.5770964458457932 -1.3173077900086216 -0.022474526953432262
