# total energy = -381168.5928960278 ev
CRYSTAL
PRIMVEC
9.24549728158640 0.00000000000000 0.00000000000000

0.00000000000000 9.24549728158640 0.00000000000000

0.00000000000000 0.00000000000000 13.53171982078620

PRIMCOORD
 96 1
Ni 5.051111069314097 8.499977444354139 7.106859428748249 -0.18571360955315758 -0.9699712933029232 -0.5441601001290887
Ni 6.8315904618929135 2.949692726519843 0.5277745946352411 1.6759913362960235 -0.8575328382948328 0.007672943164225495
Ni 9.102025742113733 7.09089892663789 4.355752589344687 0.02775017353007479 -0.3898985384376253 1.296786015906186
Ni 4.584712708971633 7.16759957282195 12.135394842583533 0.6481524812523547 -0.6716271673355272 0.6299963791686182
Ni 2.4297351999111956 3.399310509135201 5.006275954366535 0.5432998090113225 0.6026760940871104 -1.624338902227054
Ni 0.9800504577445623 1.0992249188478085 13.080747873247073 0.7164391814438952 -0.24746379417776088 -0.12159723868922283
Ni 3.3163691522261844 0.10561778830916631 13.130261209864011 -0.5795510780338728 -0.8964991922557012 -0.0580987039149451
Ni 2.390691464516393 6.931478815481701 12.918246237817362 -0.7711234603606526 0.6630034302222582 0.14966674323192933
Ni 4.02775470188702 0.32250606201970405 8.847944681581929 1.3029972869232205 1.0411620545151359 1.4317452777246116
Ni 4.111999673925251 9.28673228857771 1.9068625679816908 0.004287828742076486 -1.818844656150545 0.9162583771604994
Ni 2.426878341223771 1.3954968820792688 1.5024136627689635 -1.2003958726102102 0.7834637270935604 0.4375660197169174
Ni 6.414461357036811 0.9019565151067974 2.1164422760210018 0.4029471440914673 0.22086418931236157 0.8091163946646581
Ni 4.115346543973301 6.686131051765887 1.106878341570948 0.8459672449444204 0.8190570508171379 0.020306315657519863
Ni 1.4705610752287845 2.472662044201527 6.783924375650564 -0.5255501983373853 -0.5390569745745684 -0.7860394582405366
Ni 4.998809290690275 0.22846363641816111 4.037093578780767 1.3047014140985207 0.21344424269920662 1.39711123259051
Ni 1.0682802391493937 5.005826623194337 12.906378717392837 0.2032495615543919 -0.41201259672784524 0.753754887175218
Ni 0.5374786686751145 7.810059939587154 6.8580519999164675 -0.3571511688032753 0.6785701743122636 -0.25024058559194967
Ni 5.837015327779601 8.47527347538068 0.5436731519132195 0.32238394052541897 -1.299943073477929 -0.2669033909596113
Ni 4.4274837806922065 5.347651151969296 3.548436683519291 -0.5201508816986848 0.5157447822111891 -1.028288026765945
Ni 4.842828504555841 3.352112245059788 4.928523170581734 0.1364741558010553 -0.25049769590807824 1.4933411961595378
Ni 0.2140896616565461 7.313197665409531 0.7293624947476592 -0.5790031759502028 0.5057146516686968 -0.9662866453624844
Ni 2.87289037986471 6.592843983299498 6.752166092183561 -0.19699663866614459 0.12345563205420029 3.2854633487135736
Ni 6.532276730026623 0.9087177473337023 12.714891523157478 2.5381776142024672 -0.2776233484802767 -0.06091123366307575
Ni 8.614834258185452 1.150574411242489 6.9190121868275805 0.3599888953623865 0.5379591135246993 -0.5293577450089335
P 7.9456174220305815 2.361189082407746 4.537036452682175 -0.5839510068737814 -0.07414855828895617 -1.019790016597263
Ni 4.888149932665081 1.608614841962196 0.3855021074517591 -1.266186545852774 1.447214062784172 0.9434421366641429
P 2.1104881757145244 8.229851747685904 1.2255757350098861 1.0603519971800255 0.4971107120497696 0.3426668591441711
Ni 1.7918975818311451 8.803312967576513 11.125455540940246 1.7890658822262158 -0.3665115269722527 -0.8757894705121756
P 1.3412258125155718 0.6566799417207346 7.7737297576705355 -0.5067592908831272 -3.0066369810641316 0.4722843970347092
P 8.259243183826108 4.812124207789053 8.200614711351784 -0.93706605793447 -0.07633990951332013 1.1892971915938872
P 7.932377869796303 1.0481343003794967 10.85350848129006 0.11653525078528318 -0.08003818430051378 -0.9475314762421683
Ni 6.218752668702171 3.2852950355645856 3.0852862664030156 1.3657275760729062 -0.9557214682521282 0.3027941913189495
Ni 8.991421857072762 8.713021440258103 12.047560768466152 -1.9901027524000048 0.7526850511498069 0.1392136662194054
Ni 3.1463074735967735 4.6178023440599585 0.7505217400293419 -1.002960346634434 -0.4816131306348028 -0.3832807760107915
Ni 6.035053881451558 4.481662395282201 8.807742485366626 0.5870237322618341 0.2278727594197108 -0.8549038853124179
Ni 1.7465206807376823 4.22642194938016 8.333090669521692 -0.7783935116595045 1.5779096642302375 2.166614640849237
Ni 8.932195200918581 2.6733540556187627 8.794684144880806 -0.32813524118689935 1.1221260930640287 -0.6453661767564692
Ni 6.917018857594543 8.26027867953158 10.083675670903359 -0.3760706314155975 1.3339014327012446 -0.5597731240759972
Ni 2.9559796647316507 1.203671302640157 4.007283321609688 -0.25003541155967907 1.427517612796509 -0.5452271079410222
Ni 2.082511300671978 6.389701915079132 4.812353496123837 -0.42259551445001414 -0.7447917644446592 -2.2601927686177135
Ni 3.648541381746544 1.8133841177197365 11.257836270487235 -2.6992235458056157 -1.4451574373654597 -0.047675965919724346
Ni 5.328503726915392 4.374488589765612 1.2408548439640543 -0.7360258453265711 0.42001309843481854 1.0607757149810053
Ni 5.883353760599575 5.327329548749364 10.943493982645512 -0.47180488629512934 0.04536814372215413 1.3286931490274279
Ni 6.371867350651811 4.596926010997808 6.4842916741249965 0.27900531642946785 -1.0017511568176813 -1.0102231988444346
Ni 7.867271077314608 4.8525825042815125 12.575406553431142 -0.3813830447674464 0.4357333373835528 -0.12074568932220496
Ni 9.165366644597702 8.453759202999978 9.17664430229 1.0656968064317067 0.582082843316791 0.7618762307307717
Ni 8.43209700266135 2.6092827588425407 12.35264738889046 0.8624845258731534 -0.6681523214130494 0.09518815256807477
Ni 4.845814800206449 3.4824090394995126 12.431185115402 2.67738613821555 -0.3660055338701116 0.4374809162022788
Ni 5.668617838676844 1.1956924384095828 10.753847566936582 0.598610151547853 -0.05531779873569828 -2.070310629509164
Ni 7.061969765366202 3.1684504397986566 10.511074674238397 0.3546823955478085 0.30085120865996573 0.07444372093187178
Ni 2.44768995580433 8.089773217028396 8.602736524876406 -1.268067564925571 -0.6437512668608656 -0.23006873862976504
Ni 0.4269570685607378 4.55319480843626 10.755525624709293 -1.8289526911188243 -2.0413129567252324 -0.9131522274313499
Ni 8.407938518032742 3.845562930707768 2.286481765456724 -1.2905873432946418 -1.81168439095668 -0.6560699363272186
Ni 4.8026198364923784 6.273125438736942 5.697571038241695 0.8873663767164974 -0.5619246232013612 0.09303433944986558
Ni 0.2047628039093813 1.2359935614467472 2.4779282795036535 -0.30368096479927703 0.6195836684757265 -0.49253929062900337
Ni 3.4597945529317435 4.998809290690275 11.7399713919037 -0.6916966843918926 1.331948679850248 0.08844337764507348
P 4.181960352526357 8.95181414633837 11.169541770600812 -0.3737432688340015 -0.35195522642463256 -1.8910170645497366
Ni 5.888586712111168 1.2056498390774024 6.064131895230908 2.930348236503721 -0.3327665693113237 -0.6243119271893313
P 1.3995094279379818 4.672692861947467 6.332046993477903 -0.3158991041320237 1.9393820861166857 -1.943539559928485
Ni 6.527145478986102 6.522559712290431 7.757423473958527 0.30517169041219055 0.6851578548321103 0.451999421533428
P 6.028092021931718 5.779896645025849 13.41568543103089 -1.2768183145350076 0.2347805422831376 -2.227555699308983
P 5.51926607415692 2.7063974632202363 7.514258572171841 -0.3005190221315276 1.0073340502220973 -0.43971829017322983
P 3.572663584828441 5.46945133432571 8.463779473049916 0.6913583272158674 1.6207139038799572 1.574190049286805
Ni 0.5167068097332477 1.0885833513745862 4.668930869067489 1.3491002519288702 1.4140229207441841 1.7609228441330962
Ni 6.807062157369492 5.5989530159915875 4.156389155899564 0.383293631526598 -0.8356836036302252 -0.5606740386237119
Ni 3.7856428622508136 3.807665636986883 7.157656964949923 -0.176492862285838 1.2442514363425796 -0.22829596300005844
Ni 1.8431823557442333 6.245999149452462 10.302266965229508 1.270431437172057 1.2521040996177792 -0.6981954047423589
Ni 0.24401733664422712 4.7618102110998475 3.994563366327622 0.9427008876227442 -0.11857182159933771 2.16211495320667
Ni 7.102132205942812 6.2811412849569965 1.5885160552288873 -0.09969349663759605 -0.625737089671632 -0.5426773449359751
Ni 8.031720739040242 6.180910847965508 10.218546212892175 0.07098481584899388 -0.2728956039873042 -1.1106072937911518
Ni 8.261831923089794 0.4312895086284632 0.7055183570296397 -0.04251216233059775 -0.4536302722686317 -0.22234180229915254
Ni 1.8716492421474058 3.6264631340262525 2.6416891516752012 0.5188460468443322 -0.45448799228323666 -0.1299109007612408
Ni 8.629959891883273 5.82222253198711 6.29877244844217 -0.13838217145704554 1.0008379009747925 0.27204225484807343
Ni 7.013504868151057 7.27029855761131 12.186572368727125 0.6849843053687235 0.004722088066017673 0.6920944340509435
Ni 2.4318154368195146 2.105107296245006 8.812018527900394 1.5393184342206006 -0.1543466652061019 1.5793340553815898
Ni 0.6357703248680502 3.0868311890135938 0.6852383585478732 -0.16471155338019378 -0.21817687228818555 0.06722740568909068
Ni 0.8558353514750252 1.714290876904795 10.514078536334011 -0.19973974862892052 -0.26664165265779244 1.4902569008072593
Ni 2.3970893486966443 8.973605783640183 5.882793483458934 0.524906136995483 -0.27003936548543167 0.5375600783140677
Ni 6.87650508811786 7.4034059832516075 5.503093850156779 0.022385309673735643 0.7311389495479149 0.7219824798596275
Ni 7.444862793460061 8.647211989976265 7.635786936905569 -0.8166677246493548 -0.8087458986991167 -0.6930719674728645
Ni 4.809581696012219 7.036766539534748 9.558252206249389 -0.8957206622184638 0.004404042604966608 -0.2838341052766789
Ni 6.746818496504576 1.5110563537107253 8.576999833846685 0.5687786700087173 -1.0760182429623726 0.9687569612798478
Ni 2.769978748635832 2.676127704829854 13.09210134401781 -1.1364841615579138 0.8026750099146887 0.25743581778880825
Ni 4.401762807008016 3.3702981383871804 9.9129187308717 -0.12687211393491699 0.9431505735656531 -0.8967678725360556
Ni 2.0086490221806024 6.117218616581469 2.134818626594222 -0.712019712219961 0.5121627212868857 0.752745214963781
Ni 1.5796579441983971 8.525199161180334 3.750302873102555 0.7124753117001407 -0.44121544354404657 -2.337357488025175
Ni 8.083708170753475 8.08807204551226 2.772243895491557 -0.20120913408559538 1.490416566313575 -1.6647751558652297
Ni 3.798004092234913 1.5825610303726731 6.52166659724446 -1.5246785728202388 -0.6072513721626187 0.19921472936338594
P 0.2814190717060636 6.739690218032071 11.77519488778509 0.21311051350887167 -1.1511690172635982 -0.022550374496690197
Ni 5.788763077003973 7.574632594549677 2.791864690010821 -1.6637390012912312 0.4871482015204191 1.5447807428867526
P 9.017124339762214 5.81614824021482 2.1949125104017377 1.487269021823529 0.7197877862011539 0.9714635615777334
Ni 7.780982850357542 0.12585895570197755 4.824951410840615 -1.1955771110653282 0.047886796378949784 -0.4528396580465362
P 4.0398108304579 3.1926921339035994 2.9744752822209484 -1.3283082548841834 -0.29873390520664683 -0.597866588513609
P 2.2803464534017888 3.6088227250437086 10.714849134478893 0.1428414927799798 -1.5913722174930465 -0.3251445339896917
P 3.92444551427122 7.685042324145874 4.372071816753014 -0.6513733021824976 -0.35327703055984966 -0.3137854002231305
Ni 8.66549033827736 3.5849323598388376 6.205024029657004 -0.6645715460403264 -1.2745660281657212 -0.05345554871597891
