# total energy = -340869.2660429429 ev
CRYSTAL
PRIMVEC
9.22044625158997 0.00000000000000 0.00000000000000
0.00000000000000 9.22044625158997 0.00000000000000
0.00000000000000 0.00000000000000 13.49505510619162
PRIMCOORD
 96 1
Ni 6.696680931627394 4.612352983685357 8.131526187055359 0.9851569999044258 1.1391812487741027 1.1985135679858325
Ni 2.4818767029063995 0.6159239568111234 7.636541289749166 -1.3083156138123402 -0.14932247251863315 0.3486706421360898
Ni 7.502649347533087 3.866557199167024 11.1625828034349 -1.1391493670949029 1.0243521820466488 -0.6728201592023638
Ni 8.211148427490912 0.41629853215194984 1.3667790001161928 2.665047671254855 -1.2469276976231622 0.27022911289873464
Ni 5.254676921830879 0.20360773533894697 4.349833973988438 -0.29608284073704494 2.101797387263535 -0.26742866733546206
Ni 8.288720040709094 7.4024968617639315 6.720820981617472 -0.9728606990355761 0.501891935488497 0.5761412810213755
Ni 4.760414907500593 7.964695123115682 9.949957675886262 0.6462853461366289 -1.1795653090181042 0.6154861013675852
Ni 4.503616262577306 1.6238219868616934 13.381575366977977 0.20640276247139291 0.34865907217186404 -2.3106910344775815
Ni 4.279015415509468 7.3813820401462396 4.685375228787309 -0.45766073358426346 -2.2629973279460445 0.3970914566416387
Ni 7.921700182852234 8.200010128576427 3.5305355591252354 -0.08996418516497409 0.5000301996894098 -1.636025851646679
Ni 6.81553248213047 1.3518372671766867 2.8700335114516435 0.5818262472212947 0.70168464884254 3.141946170022808
Ni 4.312660823405955 0.7483885739676317 1.9343546256458632 0.16266444104317793 -0.48499335996094545 0.8419599235572404
Ni 8.912381795905182 3.7946284989750536 12.85370206040185 1.3364159715929822 0.6258319633782835 0.8305879342748728
Ni 7.575832028397548 7.062557454165218 1.3476622491729788 -0.25908595179772154 -0.4018917062437594 -0.5570004464268665
Ni 5.1342671159333095 4.6299087131002405 3.2744533428655704 -0.35594994940632246 -0.9587635975125616 0.6070557112120448
Ni 2.967222545837425 5.001796966509128 5.09621894501392 -1.8585448029536444 0.5815256852617404 -1.4464237056723928
Ni 2.7755940140992226 2.9190180535154635 8.9522417844874 2.226017922508218 -0.8787305554183705 0.6139429252501813
Ni 5.238928399855762 5.9969965981614966 1.3123912766253127 0.054886624735550636 1.2619892199419749 -0.3907709137402496
Ni 4.832675543752928 5.39342619506364 10.164367163856268 -0.9818744724984122 -1.336795466419588 -2.3717256810923995
Ni 0.304035912447128 5.501416060035869 10.02693364828501 -0.7433941127661843 0.45196394030980225 0.9225802056134691
Ni 2.10530446286791 4.5917452866043345 12.377218910282584 0.7170660163946166 0.3466001327603063 -2.527068391663183
Ni 2.114294397836141 6.88366235852048 11.041330248761845 -0.1388639961894705 1.0633871844619236 1.7987795099695536
Ni 2.369746857625724 0.15797390339559364 13.334099289899596 -2.327163321100992 2.3770887451765255 -0.19158600917353455
Ni 0.951144340084974 0.854310292874861 11.206091322547302 1.1223582636794929 -1.6063090413085368 1.4682032634413296
P 0.3397033641780085 9.090198099353733 6.911033252831448 1.4277184159534055 0.8361520586262114 -0.012733388406268394
P -0.054266935646691564 1.2499236761983703 13.161929587655706 0.99161535393526 0.7075462498296395 -1.2694418195652784
P 2.795639263966848 8.282238067085848 1.4878296270191902 0.6849094862667301 -0.9022057557221752 1.3230598620010505
P 8.355983195163706 3.2999976667999165 9.315690563561496 0.24746379417776088 -0.3208885869268151 -0.6701649809677039
P 2.387247264363881 8.873499174611817 9.689057776528234 1.1037540183147443 0.6798973777641194 0.39261825136163353
P 0.49859839014111634 6.055435785678059 12.491697203190347 -0.4165318247544375 0.4087074436140123 -0.03302710565829796
P 5.837187825987771 0.7125772832772596 10.817703080804412 -0.6979876596069269 0.6736639952598978 0.8966855972348945
P 6.824328787730154 5.412872115933383 5.741147659188699 1.2559003334354177 -0.3811341619814339 -0.10435490666900737
Ni 0.7141207859579589 6.112270615569522 7.433912765788298 1.4624195668800168 -0.7643848560852383 0.17329261018098543
Ni 9.211437745402216 5.733715979614961 5.075503368713278 -0.6800979238106997 1.5343513200233123 -0.5055876391725294
Ni 3.6946880834666875 2.83297285031184 4.113711257447471 0.23829035520860897 -1.281715751836625 0.5200328680635818
Ni 0.5539561045639533 7.9947998797016036 9.02525019892017 -0.701196910572844 0.5536829520178593 -0.7117590023594065
Ni 0.9278166113981794 3.973191658559427 8.363047900981817 -0.7787627220734653 0.4920358686300235 -1.391108478039856
Ni 8.586134750796544 3.109512470380751 4.461222495400964 -0.09137957745526198 0.9096102757163624 -0.638959501899177
Ni 2.3535649746829077 2.6445345929315947 13.460804816408764 -0.30939755556808 -1.0142212642602337 0.5174743633077862
Ni 0.7893817553781535 1.5967230957113023 9.050728135642444 -0.42405692948688906 -1.427325294280045 -1.2587437164214839
Ni 5.09330067381654 1.5454666357232032 6.961234893783275 0.699981035887872 0.4747076617642212 -0.9683592116207967
Ni 6.87241341425254 2.4959563241335676 13.135330444685087 1.2867720833136096 -2.7648792361322125 -1.7930541774500022
Ni 6.808718572446857 6.222104569766003 10.962883615206755 0.040444481168291635 -0.07101669752819383 -0.02424344592839696
Ni 7.039755290907336 8.753190793621581 9.556429035430769 0.8029244069213333 -1.5905924019042283 -0.6752408528287146
Ni 0.6834840096308393 8.444324289451524 4.775468207838166 -1.233475171662682 0.4481296541653766 1.545109586981081
Ni 1.3541977013837299 4.542360577178852 1.0291557685831412 0.028965019773782377 1.5481152065766242 0.41894377663003984
Ni 0.05216006370798303 2.407200309770293 6.779389255379732 2.1176109572570243 -0.3558224226895227 -0.47530852857301364
Ni 8.0251535883328 0.968801494407192 7.9213138461597525 -1.5145545970123595 -0.3056540293652478 0.7457965515600897
Ni 1.0731585036076432 3.11892654587056 10.663063290726269 -0.3921279419887763 1.3546317232700604 1.634699676636088
Ni 2.9560842469229396 6.8253983594802206 8.93356484882417 -0.716662867418927 0.25845371753036134 -0.8753631816080344
Ni 6.607832712802907 4.654665610935831 -0.06015050231666928 0.4733282649181913 2.442947038432232 -0.11679647486646981
Ni 6.273102857262708 2.5944214682625315 9.446281586066165 -0.5063445719432118 -0.6049373793174614 -0.2190926992342356
Ni 7.987543388604171 1.5367072119080036 10.679284821587407 0.15742787523458693 -0.3025594496003241 0.5195993800705889
Ni 3.00712863665025 9.030495710718558 3.7172532812592536 -1.1496962893728135 1.9949783353247514 -0.35356216590043626
Ni 2.6031163489548828 6.574178084460297 13.494299008988863 -2.4342363980321107 0.3309259165581591 2.2792528705729582
Ni 3.528867580421899 2.6628463989284223 11.100964406095724 0.5858453956830167 0.09154232828537137 1.3823736692700193
P 3.4084208927398447 0.9310898697712277 5.668422312451852 0.9076788630216046 -0.5920792924078706 -0.7402877059267186
P 4.7821013967778025 3.7257978686798277 12.624408006258292 0.040976956632993944 -0.3842662798525124 -0.34942654646550786
P 6.405840399624405 8.861881412499026 7.260218001755951 -0.725894413319524 0.2794622014612284 -0.3513875268466206
P 6.299215160678123 0.6977093139067234 0.9471841584758917 -3.2847784068314074 0.30348196141459344 -1.5186601345403006
P 7.885592915841369 6.627407719918347 9.03271230596611 -0.13299725299604837 0.08674542111736028 -0.5444496063450495
P 0.9269222281244168 4.172924962438219 5.895179821867452 1.5539711511367689 -1.3012265681760429 1.0528402621840127
P 4.8043779946067735 3.615318483254858 8.310160344074866 0.002109847254151205 -1.3195485064136825 -0.28788513541760097
P 8.335237191390865 4.6984166277812225 1.4909064898898554 -0.4269648471623034 0.8900261829368479 0.01582951083308887
Ni 8.646989695196877 7.703618191192128 11.189033497222965 0.8524137719007127 -0.3386158290032491 -0.17959052737455522
Ni 9.18591555053856 2.7262093046737395 1.6082597178982263 -1.117939565786507 -0.840413662116043 0.0940733222373412
Ni 7.292201885261387 -0.06427941808977071 12.45991709154419 -0.7442407770371957 0.06976585584022824 0.7128041557944691
Ni 3.2616313904893426 4.926244630991502 7.685636477166442 -1.9535115835395327 -3.0678469769145487 2.4249876257403336
Ni 5.930590945196162 6.658794118515125 7.225630264265871 -0.6040156388341404 -0.12333016221992953 0.947085646954001
Ni 7.227040992522424 3.1297513496169223 6.441055127450731 -2.364201604801212 0.2973905038048749 -0.8532820334382788
Ni 0.38085605930642813 8.110968280383393 -0.08614017379867242 -0.09192233733260943 -0.4676828937069558 0.1008468935157489
Ni 3.2663338180111863 5.752212194534214 2.498501167263036 -2.1875197664330197 0.38951287296343245 0.3672363209534191
Ni 4.926853180435506 4.273520029621195 6.084245069583944 1.4350907971580769 -0.8925641188673531 0.02409406483472625
Ni 7.438272192714431 0.8049744518138208 5.455551716939484 0.5776314924136569 0.5240576729522588 -0.04255535686370736
Ni 2.6879260123782567 2.78587481152443 6.657515242638106 -0.07274345041131343 0.8579125902317547 -1.302310545268841
Ni 0.7900917297294908 8.405607636188341 2.348719630246184 0.6538590447188287 -0.04189535468220527 -0.14117156127672462
Ni 4.3069902490413785 5.876476146910471 12.26163416384027 1.7293630670489444 -0.4293559731022992 0.6833444557724554
Ni 5.76430941984531 2.8998303051371157 1.5273032789089278 -1.4805586996828888 1.737848478812136 1.0719384164660444
Ni 4.2336416001467345 8.290195312088496 7.605732091079579 0.6628409365024649 0.3058815719950216 -1.59567418730251
Ni 0.22548785398470333 6.16526973987454 2.753814398316188 0.8912392294083424 -0.5867311407220798 -0.21548801260211276
Ni 1.6312905482199163 3.758668759102129 3.1163457430012187 0.056535987413515544 -0.06617993826118279 1.6239015575793194
Ni 1.7848017556928188 1.371467596968855 2.0996956654923458 0.5741221937088177 0.10809868998215577 0.677727109585678
Ni 6.575764001193155 7.769313869806124 5.176892316307295 -0.7598805404569815 -1.6814665004779814 0.8349863204528845
Ni 3.5684048533898736 0.10280981834130325 11.477328264051874 0.29462862478902163 1.7646478583931673 -2.2745737199297342
Ni 1.4538615035084586 1.5790936027274483 4.902321261485274 1.1435842629378048 0.9920475563766721 0.2837544010786791
Ni 4.5305676265897565 0.9425601047460784 9.10515366296242 -1.3412648150448514 0.6246754811763371 1.0776439514912537
Ni 7.279145733553679 5.291309754270656 3.635014278214487 0.5845359328429739 0.8386833096884975 -0.8063115782260113
Ni 4.173229237160221 8.1161317302113 13.184708699798286 3.458561840605882 -0.8048650755874719 1.3638874375403738
P 5.982225443475233 2.764206763139463 4.432167025583641 0.3128729157111902 -0.144799387837299 0.26670515890587615
P 6.253057607395082 7.118461018998434 12.865415715154304 -0.3407999811387615 -0.48807919797512067 0.9732049697488723
P 3.4786991330761086 3.1655451214596644 1.917323539615279 -0.3119020671574887 0.08609338935565818 0.0859460651445165
P 2.5091507825330948 4.953841426232442 10.099766874241476 0.37559806265455314 -1.1047698611737682 -0.4974228439735498
P 5.7153027487107995 7.411044215318341 2.950895901890505 0.9022618057710914 -0.24193335127783494 0.3705203910213296
P 2.1501158310172466 7.197996587240446 4.075250010541847 -0.41215580717392886 -3.5480020349465864 -0.7481653089025825
P 3.6670636268873844 6.395697908891016 6.573306752301838 1.4974817006904726 4.204495946185101 -1.3334247501751422
P 9.089607990801971 1.223792931890712 3.6938803723864644 -1.4881465393324758 -2.067604800542226 -2.782975174401975
