# total energy = -340863.52142864704 ev
CRYSTAL
PRIMVEC
9.32891346724912 0.00000000000000 0.00000000000000
0.00000000000000 9.32891346724912 0.00000000000000
0.00000000000000 0.00000000000000 13.65380784034324
PRIMCOORD
 96 1
Ni 0.6958100486058221 7.5316140804687315 7.725569648220412 -1.468910573920999 0.3699979428589563 0.43220012741931374
Ni 1.895747101311852 2.3910750745184246 13.623181675506078 2.421090861789088 0.6473829500761819 -1.6801398112467578
Ni 5.151285913911999 7.809167904840472 8.567163555687475 0.04977115788585622 0.0964824458994661 -0.4436698186218101
Ni 1.863581008732067 8.152994328309312 10.432450822636723 1.0665722670581244 -1.3608306529919207 0.7681142412206836
Ni 0.9710932155141292 4.7280051370493 8.945714992616212 -0.5897424167445778 0.4369610391430668 -0.5617418177665938
Ni 5.479682315012227 1.636170092601725 8.512507319258692 0.30217866922213765 -0.6236920342171453 1.5039899341226357
Ni 2.6644961903597584 4.552360360050404 4.7670494373028305 2.729861325296131 2.158678930941927 -0.6614679674143383
Ni -0.09127315347777212 2.28454821513079 10.488131373730607 0.17340059651375941 -1.9667149696036836 0.6525575522985858
Ni 1.9713112979174954 5.41168386698031 10.893444663844852 -0.5632554261976429 1.198836241432574 1.5342489901174932
Ni 5.0295249393321395 9.54235869431858 6.709426178159577 1.1523236996933317 -0.4231326179004068 0.023999705348707052
Ni 7.156927612262675 0.5720321630005138 10.062391495358616 -0.5516157850761855 0.0352847913442231 0.4730001921548112
Ni 4.358113730208095 3.5084176616605385 1.0285387969781083 -1.6774668924002851 1.87662325772191 -1.0184934092730265
Ni 0.14553104531457242 -0.19068205212341852 9.328691133057303 -0.8099427472206953 1.1758395234270846 -1.0118391371813027
Ni 2.045429512983154 6.281138573603267 6.551547383384853 0.8263204172477705 0.6804717622103507 -1.1186579320097703
Ni 3.3896139525527764 9.38768531410604 5.129380692918207 -1.9068715150834898 -0.917942963951774 -0.2808575391468583
Ni 0.4586616129178296 8.350170236884235 5.16597242190166 0.6063183188253881 -0.14162253277121414 0.3104979877211104
Ni 3.9744528475409733 6.818698536690551 5.217993240362408 -1.1646729652873038 0.5710859779856551 -0.7963169289071447
Ni 7.789941014815259 7.527145531064521 4.077054100270378 -1.15284846184855 -1.7209838418463137 -0.9817469457816126
Ni 3.7129634116328023 1.4076397068920405 1.7495854214675832 -1.353754977092062 -1.704749125155006 -1.1332821096808483
Ni 3.0378113083311202 8.570938966843809 7.6997099009375916 -0.5438371695720312 0.43938198987973354 0.0974689781824515
Ni 4.8418551932684695 4.290628372400043 3.4136433670733712 0.1311234330121032 -0.36828070305753347 0.25751372221459523
Ni 4.169408474783533 0.5095321763858016 13.263868323298349 0.6020690566307307 0.25672567909566113 -0.9264381459069787
Ni 8.260006291181329 4.174287496366835 13.68657630489295 0.4515553920174739 1.6238393368828163 -0.4715596030535427
Ni 8.918571586882413 2.322927363875928 5.629260242856124 0.37214687088115905 0.44087914325055044 0.10255744844895243
P 1.3526364348936613 0.264624883621647 6.773026043635994 0.28130928197229615 0.02876704483036336 -0.11545410190596245
P 5.765884041884393 2.378798224798298 2.0145097632017044 1.120190823714529 -0.41290322686291475 1.2143595338791537
P 9.11781851417912 6.476392726066986 9.782502644022632 1.1630228312783906 1.2696187114627746 0.8401861194862691
P 7.142029337944254 1.2853563131751549 11.985749380953646 0.36756413660648307 -0.44764088745441616 1.4418769668419749
P 6.687478044165244 5.371532224734546 3.7553297378630326 1.1017992085812187 0.5536155891150337 1.413734442969488
P 3.0523177682967715 5.0033666668281604 2.3555822915053595 -0.3097364269647375 0.5321651325507416 -0.3643381734700177
P 4.13341752780766 6.097564220417361 7.506617257653322 0.36236356624215016 0.3310552430471718 -1.8954912982710068
P 2.321173528201624 1.8654561202774664 3.4997305777248378 -0.5572956090697821 -1.6575799236683713 -2.3637742874558065
Ni 2.1109091544615506 3.0975629971285454 11.261292105812439 0.1213730384935587 -0.09350973642438734 0.06123956353677195
Ni 7.489671286896019 0.2548733706942545 0.3759328110043919 0.19438079830985236 -0.619302904010514 -1.6509580474764796
Ni 5.257150420465188 2.2873562179923086 11.10708517125796 1.4054724600710118 0.3111639034398835 -1.1032148579818226
Ni 4.417790787700231 1.7536770827800814 3.8026805023952877 2.4143784827659194 0.7438026610585127 2.310941717035807
Ni 6.1130035716991316 7.651313365239968 0.9113312649122265 2.1860619509405708 0.7693010624399332 -1.1029706031815005
Ni 8.71293435407029 5.023573092735299 4.9272632590418 -0.7401046433816351 0.26279939609356673 2.4643830968188203
Ni 3.6607494846696187 7.116206906314079 12.53977954022701 -1.690168913347986 1.7502573939994501 1.1098724725076563
Ni 8.819750409765922 1.9968165465001901 13.228368077154753 1.2481345734470697 -0.5824494826275904 -1.4065075862037453
Ni 5.29539896442607 5.55758806882133 10.062200252638812 -0.4925387764083711 -0.2228979319129387 -1.0326439897417956
Ni 1.0361343980739497 3.5415539612090874 3.9772309978803753 -1.8839961531472134 -1.0476623175274988 -2.102897305195933
Ni 7.102596022011901 2.3164717559683843 4.006723423948164 -0.7166294430778304 0.22479926270070963 0.16868339354374817
Ni 7.648654624989029 -0.09851985322138493 5.587533880068752 -1.4166639579114568 2.72676057488362 -1.1073003409051059
Ni 1.9721788868414862 2.059376238159134 5.47247293092126 0.4532962859679806 -0.5731883690406386 2.8416809157732996
Ni 3.2097431778918617 3.811476734614974 9.274403388698389 0.18515413750526175 0.9140780816797289 0.8964603685979656
Ni 3.001409889176155 6.555259357931691 9.142602637774456 -0.18381844941297376 -0.5320424909299482 0.2538709832556854
Ni 4.983552055273793 7.442690880216263 2.9518845549860266 0.16579527336267577 0.44647489217077296 1.7317796469102367
Ni 6.877134848732248 1.9095725506167363 6.64566305670284 -0.30887870695013253 -0.6942004246503528 0.650426621998512
Ni 8.509564047156335 4.253555271497472 2.832291619824828 -0.03439776075357947 -0.16473057954358727 -1.7171981495516362
Ni 4.176778316180873 4.96816867747099 12.298243716679307 1.1625227517135206 -1.6942353701078758 -0.24067068251532744
Ni 6.598508199346971 5.027724459092029 1.6876106526638461 -0.49860220899363167 -0.23582106773251 -1.668920288381855
Ni 4.3819304455086145 0.29321800246069596 10.406194596544553 0.30329529932508414 -1.2369446182685213 -0.06934110959798381
Ni 0.8700013809342041 1.4550585724903722 1.6389211890929603 0.12970289851549277 -0.8984866549993753 1.248664477808611
Ni 0.5011604097149492 8.673668958574838 0.15626116123257378 -1.471899224235678 1.9295201057209415 3.2527620018258108
Ni 4.550933036336742 6.179453420146292 1.0580946596553922 -2.7018820664743854 -2.8105386858425403 -0.4886962627338294
P 5.48376837897683 8.982558602255018 4.614645781662409 0.33209628271717645 -0.11686949419625034 -0.6852658411648842
P 1.3017005690335608 7.419835042971347 12.504620732305115 0.681474235332936 -1.955335009901516 -1.639716156014073
P 0.11723831747931376 4.063413363446086 11.602773240512555 -0.31170820597912774 0.8359348004090829 0.8229509865549053
P 4.533236088069963 3.5196963176724174 5.605119814268912 0.0357308777427062 -0.5013625453475882 0.09350819376249056
P 5.95847012518401 3.5523661715629067 9.38992798482999 2.0443201189826725 -1.4527946421957432 5.250874511904169
P 4.565579429999811 7.442550946518845 10.732998552168167 0.6404646256897938 0.6305183131103593 -1.1196105257310267
P 6.208186472682758 5.884762382297443 13.033583169023043 0.2849587057994254 -0.17147329758405952 0.33832889389044957
P 2.466984440911032 0.7856027035649132 9.69498157941829 -1.1425367955098968 1.0635512208436135 -0.5571583121609694
Ni 9.370799981284286 9.178372489508408 11.650056836870048 -2.4638130832479628 0.15280657441249168 -0.18035157391029585
Ni 9.199185294771025 6.2823420034010615 1.0981362207258543 -1.189444515805029 -0.3218563501567231 -0.29118900297985334
Ni 6.807765050465635 4.096782885823664 6.1917834446714375 0.5442873697355723 0.769302862212146 -1.0893926073867497
Ni 7.635762067000264 6.185498555874743 8.39660023768748 -0.724606547746036 -0.6165191706177898 -1.9253616034678775
Ni 6.2585626037531865 8.212634070148802 12.144979935245425 -0.9772863389070976 1.0887511171480089 1.2668352351803667
Ni 6.543141099735305 9.395801468556275 2.41991914112151 -1.5867529735534802 0.727354028584186 2.226557854172088
Ni 1.7897240032349215 8.937024177115248 2.699698844173511 0.5390636594427878 -0.16364865933331815 0.07973865078222396
Ni 6.277602915515177 2.7875352260427007 13.387312233812485 -0.19005157480687915 -0.4040159516756139 -0.04004955972271812
Ni 8.09569614367328 3.6250104183490977 9.009887653360726 -0.3564775397750183 0.9471509529742977 -1.2169967143916849
Ni 5.145119502312451 4.154118386112342 7.824040991093359 -1.723405821024245 2.423046957074195 -4.619270936149432
Ni 8.763198538182785 0.6580447423466905 3.2789068071776124 0.4851735942925515 -1.5114096236254744 1.3687661057889136
Ni 2.057501126613735 0.8162090018641471 11.940677669906668 0.9203587724821183 -0.3823847465590834 -0.5153999972772607
Ni 5.9345787785782 6.522757424478103 6.23243045220606 1.4374667535894212 -0.08449364896870609 0.7687534174665792
Ni 1.3062437497430606 2.117542011719157 8.119018426576256 -0.7683081023990446 -0.667689779954334 0.4299802369498595
Ni 8.233269626061356 6.856601910864468 12.53068571567748 0.4144944826094345 -0.37291794471922873 -0.26172724607531056
Ni 6.85490404866913 7.592084095579568 10.122154378851835 1.5044717588550607 -0.7938944355085812 -0.548065605831082
Ni 0.5907319694321201 6.207878618548438 3.357143737403937 0.2469449455598134 0.0732278462468997 -0.5801588868212009
Ni 2.0296543208275812 7.0833504741603655 0.9347179173160152 1.9716936537651977 -0.7398282497917968 0.6704256908282582
Ni 1.819315315782218 4.909946930431999 13.32330376193961 -0.5414920663786223 0.09401084443052196 0.6440770256314005
Ni 3.602294514801599 2.4812110334818476 7.515233441848998 0.21506892278682316 -2.6759769165728495 -2.0856757991113244
Ni 7.939156980828502 2.133447808658987 1.7486842484562122 -0.9598434608403018 1.2996365979811038 -0.15829150878646286
Ni 7.079273739108925 4.43290362702136 11.186223274495655 0.47904382724572986 0.12671296264923337 0.9009721404253903
Ni 7.32692839679905 9.00004098551909 7.856428178915064 -0.578027956521127 -1.029467134675711 0.39367188943712844
Ni 2.2010357845118125 4.1292941481904135 6.924242128630996 -0.9528965972088235 -0.3850283548295175 0.7714944705468261
P 8.304551851526012 8.03725983163158 2.0438930409855063 0.4561795210530466 0.7239817696778434 -1.097297464056123
P 8.270277424571798 1.5117410488577658 8.485623257310774 0.4050600766694121 0.11779483422399713 -0.721833355876273
P 2.0979886097333016 7.35850676784968 4.14515983080365 2.07064358736855 0.026190285242122635 1.438846150435451
P 3.9093463625890243 8.325122105046438 1.1477128639383691 -0.3233506753140625 0.47518434429032347 0.22444676445729733
P -0.04367983720332635 4.013177166073075 7.096429610412355 -0.21497456330080394 0.25463974310090987 -1.0348911339047595
P 3.9085440760571615 2.781667339664312 12.544968281727263 -1.3600199841651675 -0.14956338488484563 1.8581015447686389
P 7.975399808459727 7.299277498189282 6.2895989649491515 1.533768965157281 -0.8541726635733483 1.6746358507093932
P 0.7120544850934032 3.531991825218867 1.2694215966045255 -1.3387870429283202 1.8703397387060432 0.604256808310669
