# total energy = -381163.39055195835 ev
CRYSTAL
PRIMVEC
9.26484443198614 0.00000000000000 0.00000000000000

0.00000000000000 9.26484443198614 0.00000000000000

0.00000000000000 0.00000000000000 13.56003633103790

PRIMCOORD
 96 1
Ni 2.5524276329413467 8.62910951020769 0.3073936471656375 0.8523381814677709 -1.103209458665184 2.195650108849638
Ni 6.01779452487293 6.138311623666746 3.155637577437693 0.732480551177474 -2.439959159448501 0.8965099908889786
Ni 6.844264989041314 7.328028850781711 5.332511954326075 0.3301790110898055 -0.16408034755409803 -0.20345602113824315
Ni 0.42363502016814425 3.835117575800156 7.614381109334906 0.5562005762333906 -1.2801620341962598 -0.582260506545236
Ni 3.7380312690458206 8.931384330721759 11.90163051437993 -1.2507144183591041 0.7904378444185484 -1.6595167356797678
Ni 4.125477806135194 0.1734536414889436 9.65711906584069 1.6341746573705533 0.22422667802669125 1.1928584265825843
Ni 1.3121706784339882 1.0142966591135725 10.855663836907894 -0.6854275635537292 -2.1903906602229117 -1.1567202860991306
Ni 5.3308804151888065 2.0862113869078596 3.394605714675461 -0.4283810107835397 -2.3263755350923745 0.43752333940444
Ni 0.9108407716842102 7.664407564335451 2.155421629174892 0.2337950384414167 -0.3838783003854743 -0.9118090831398941
Ni 6.682815806724198 1.025117997627654 10.757462042861524 -0.8995351508685476 -0.3780123285230006 -1.3000613442233482
Ni 1.2681626664974395 6.721607711140689 12.672057933452695 -0.5787260110294162 0.12113701122335266 -1.633104050014194
Ni 8.790299276875492 2.139938220848922 2.62123670743641 0.9831178579872102 0.5810271483587671 1.9310753660232034
Ni 2.2543868464178027 8.45194715141807 8.77337055278908 -0.09803359243666987 -1.1035185052651704 0.5010033622359564
Ni 6.4552804877453145 8.408689591895598 8.846785181543861 0.37978381860112653 0.0012590692180817027 -1.1297599554602027
Ni 1.9350461821169695 4.368791155498908 13.431270258115106 -0.5245299846029869 -0.34569510444753365 0.1485997354199957
Ni 7.879175927430427 2.641629556925576 0.4737050199383947 -0.34394803984943995 0.39844642800763636 -0.37396515503682043
Ni 4.284444010094626 6.973370598796219 9.118826034615292 -0.6654575481897056 0.4438893908317839 -0.2985248745196343
Ni 7.061636773474008 2.6548782847296315 5.125490854300856 0.20770065534721005 -0.04025576219625325 -1.091886834563513
Ni 6.26347040961429 3.3253936194395046 12.211097633771127 -0.02748534990446234 -0.2627052937178637 -0.3124219442167006
Ni 0.33802600292686075 7.291062120755009 5.28979731469823 -1.150175543002077 -1.3950510076273714 -0.3307420826821271
Ni 8.06505650500579 5.111164625067701 3.627771279728837 0.030340559965070322 -0.030702314179863258 -1.0101563501622408
Ni 6.379818328329907 4.881757807475937 5.28886156539179 0.008985491328061944 1.3584798933715572 -0.3058172944159894
Ni 8.395005416394486 1.6356341985899294 11.91265475299115 1.1437711821376302 0.5142532852673273 0.8093249111310384
Ni 8.132560162894146 4.610612864879088 12.688085188157755 1.0064318501228022 0.7034913630339755 -0.0718960148093536
P 2.0060056270479225 0.6020129265716722 1.9445361624594133 -0.558069254011013 0.8359810802659862 0.07665461254026154
Ni 4.019052536005693 4.081618031712538 11.967220055370163 -0.5536466994632852 -0.5155977151103637 -0.5505523768086777
P 4.464200525377346 7.797988094040957 13.446497956729612 0.9822359696028891 -1.3348802516747462 0.6635371912385412
Ni 5.8989821574888675 5.534781115546609 8.102731995645785 2.5677134188780553 -0.1644017354492588 0.07797898777863989
P 7.537516252444299 9.238282308700322 -0.3393860821168156 -0.08607359186131629 1.2424735185065505 1.2268460963819388
P 1.6144454989480586 8.09686271658014 10.859650499547115 -0.2336145469994944 -0.025410469653304624 0.7512015246257451
P 8.176521850607603 8.078944507088503 2.7238995241664523 -1.5618029884763618 0.8263386720802156 0.5264004621528224
Ni 0.7264953788620864 0.021889121895008367 3.862454426330678 1.1813216295875784 0.9535625129275965 -0.6014447927831706
Ni 8.325815556785612 8.568767577209217 6.6932202272304595 -1.3091393952652164 1.1956547583807988 0.2764372985919755
Ni 5.441975167005892 2.8677751492117265 9.820775134145864 -2.183895539416871 -0.0005589578272635535 0.5809379310790705
Ni 2.9659732373202488 1.7067604107240102 13.161588234483474 0.4811207643794165 -0.23430745930146102 -0.3295282648796841
Ni 4.005127474544507 0.2967446347614545 7.480421647484515 -0.263093787405534 -0.44906270750260724 -2.045233117715245
Ni 8.275340683305547 5.518021011632247 6.706780253813688 -0.8000496564766996 0.677789330282181 0.06830958300967589
Ni 5.835240026515509 8.037326825063454 10.965621792290325 -0.8818606164069198 0.051567844774962804 0.5874232816930981
Ni 3.3354181813164194 2.5398274442605664 1.6893638119843772 -0.024924274045505464 0.9123919522265577 -0.8427181418795037
Ni 6.8544377884321195 5.085519535164466 1.1676492937188243 1.360529062591102 -3.1771227179239414 2.638133877583147
Ni 8.564098095521633 1.6413042834962805 9.17263254622007 1.9600326724875017 1.023067144686638 0.8984041225878978
Ni 8.09677006813396 8.202815479634115 11.52026820075134 1.103417460910932 -0.8922298754563859 -0.8935740481891062
Ni 5.372776042552402 3.3266073140844914 6.604090569034253 0.9769320408914722 -2.1129392628129677 2.353059986362096
Ni 9.186204617101302 8.734784327923114 9.36533390240337 -0.3061692784387695 -0.24848940722879784 0.5032155393959269
Ni 4.382141796593764 5.224779414620943 6.620918306314327 -2.3794351339215147 1.772563513695818 -2.7006075706373363
Ni 8.11535534643811 6.98195910975731 0.2922243170722246 1.3529106268138957 0.6238059340871901 0.062477806819247236
Ni 3.367391160093899 2.011638652575801 10.865656898313107 0.6288530095927943 0.7190658204334648 -0.5949427299985948
Ni 2.8172354218193325 6.965838280121606 6.783109602685361 -1.0692971221884553 0.07426734325500758 -0.47392578929287416
Ni 1.6319560552764958 5.572785508170551 8.385648849814544 0.6365272383086006 -0.1843403833547148 1.6911233068414553
Ni 5.498008947256891 1.0926679797391017 12.727070727826767 0.04268339780113939 -0.5372700578774746 0.3996646166854536
Ni 7.850288141910814 0.4795131510295573 4.416517149580749 -0.6799197463616226 -0.5373402489937779 -0.5666739649608886
Ni 3.645623708823687 4.41554156144245 8.524815154340377 -0.03725117104197456 -1.1445183447162999 1.885786669388733
Ni 7.114001675256192 0.9547051785291765 1.8825126601627344 -0.5442752855507142 -3.08927223666786 -0.24231670275918266
Ni 2.3511581484551187 3.067441815579002 5.584660259517724 -1.644359311213039 0.9071260758419282 1.8373707399791903
Ni 1.52831023853246 8.906397044786416 6.272914065733643 0.8294638479727585 1.547544935895451 0.11280997941489604
Ni 0.23069926341600602 4.0554819050445365 5.054693544150722 -1.426855296622162 0.27822524373033375 0.14731186984650757
P 0.28298170808108764 5.189035644083846 1.2872593642245163 -0.2824729632630942 0.4941382596850071 -0.42144905955039674
Ni 1.2369864643571264 2.8344680328092227 12.02152872155325 -0.6155043562000302 1.1748473347171444 -0.20667169986206343
P 1.6438521157662913 5.215412656711921 6.080442477696877 0.7047617451059669 0.8037145069227964 0.7993492879755653
Ni 4.23854596985596 4.398105123870959 0.6477571703896753 0.34989140191706836 1.2280498868820529 0.8757740438932079
P 3.7141835589985206 2.210564131373619 8.315895687652883 0.02406732536184887 0.4137771448274357 0.6861127625462119
P 0.377771259854566 2.0551185683691107 4.767301770031361 0.4019140748412626 -2.038282654539341 -0.6293672302250516
P 3.8306982449172646 9.066428705876945 4.640732874732924 1.0168671865235135 0.18954249638094453 0.21048953094625686
Ni 2.7985574950689993 1.8595747578569435 3.6944587048063284 -0.9933518770103925 -1.7667409934767702 0.5711091179141068
Ni 5.005841871447768 7.545233868011278 6.928961419087702 1.8491175961024735 0.23602495621319997 -0.49457920387716764
Ni 0.4443632570324896 7.302772884352441 7.724678158030362 0.6226373677003858 -0.8458296909252918 -0.3875884022472099
Ni 5.664664972249446 2.5119773213381946 1.0836597713168057 -0.02591594853481343 2.277246124555575 -0.6729780249364667
Ni 0.8503644984387743 2.249096620140799 0.6899974499730674 0.9671021992852441 -1.0652383787380493 0.2324814618363157
Ni 2.4140664434128376 7.590594547262086 4.165968883054666 -0.6637840171420245 0.7076568072655748 0.06871504597821068
Ni 4.080682282406097 7.337015750061384 2.326590559980983 -3.145816965832124 -0.14829531680569943 -0.5283334175094772
Ni 8.032119982388014 6.416117989544095 9.23953769514609 0.42823805744777216 0.1759120500817035 -0.934400852397481
Ni 5.773767782473614 8.344502748380565 3.3104253364743066 1.7434856224932553 3.754699188729947 1.3300278086784512
Ni 4.152253207081853 1.709817809448023 5.567168232878524 1.0605188617751928 -1.3129410283994936 0.26969535188245164
Ni 4.128405497034553 6.499937038805139 11.478327175649119 -2.685811386164768 0.6952527771742671 1.6197291713691846
Ni 4.502353155515179 6.869632133606002 4.596730421703146 -0.25393114706965947 -0.7137058416731322 2.3298059009301615
Ni 7.460738485093104 3.9577099997884533 9.795458946226576 0.7711501998335301 0.014230284666769042 0.5500726089587816
Ni 1.4442410384667248 3.6653670927051154 2.532485981385088 -1.5274383949535628 0.42430735493479826 0.11838155996540257
Ni 6.558277765366075 1.5336560538771733 8.43641741886901 -1.691260089529636 -0.48828308645581076 -2.210629098756973
Ni 5.988906739353318 5.829931270549268 12.981551920893285 -1.5285809931984384 0.6383149263366427 -3.26060206669552
Ni 0.1216103504587657 4.959165584261172 10.70746616184822 1.032664558567086 0.6051322689370868 0.10415256085021417
Ni 8.537665493825848 1.6837002124692588 6.65927939545607 0.9537496892377382 -0.11774778303614561 0.33986255692615663
Ni 5.410289398411577 5.2203600837380515 10.307431480376069 0.5884512087369801 -1.3193083653784181 -0.03590005633071881
Ni 1.5974537739182415 1.2807906497120742 8.03398314264074 0.11788302306242925 1.2132215636199688 0.08913166196134971
Ni 5.97093294079397 7.2133022798742825 1.2769457391955128 1.3924477656765697 2.1124769784645685 -2.060056041660691
Ni 0.679637500720973 9.04713003453719 12.948262407695555 -2.0688042201669656 1.0356804625752745 -0.8865418239326732
Ni 1.1323678389281777 5.770747443128074 3.7673989735166566 0.6972350977116186 -0.8870881833544465 -1.1872950735621939
Ni 1.2762601406937641 3.106669167692549 9.689758186946218 0.8683697810093367 0.4230703972039036 -0.38514431158209156
Ni 4.612456568958114 0.5873865163728871 1.4837389240431236 -0.6471682629622145 -2.2383275931135063 -0.07509472425230938
P 2.386355293159739 4.766095487262069 10.721188323212266 -0.33398192977566354 0.2460121493328989 -0.1831777305051813
Ni 2.4540627776296966 6.24316187021115 0.9563376441509069 0.9792750872023522 -0.05611715470854207 1.8138600584517597
P 3.182742806852759 4.803303103248844 2.874510691249173 0.23004199915688772 1.5070364342584432 -1.1685789852099295
Ni 4.192379249123367 3.91377610660885 4.506773412882532 0.9561472429356372 0.7015663780971207 -0.44694437560802375
P 7.088986594786996 6.226068231890533 11.071091856939688 1.0819940009298334 -0.5911387828714723 1.299119549135369
P 6.109562810816406 3.904325965098265 3.096624223157474 1.7076498437415688 1.7632064979609503 -0.1569527353703813
P 7.644645650764786 3.422961698113987 7.754170937903544 -1.4465648592359475 0.24050767457490194 -0.7960819300782032
Ni 6.37725196637066 0.46977116691349813 6.161179113153438 -1.6421669315474103 -0.17291697200912157 0.5564826262501835
