# total energy = -340868.4451255606 ev
CRYSTAL
PRIMVEC
9.24378890633166 0.00000000000000 0.00000000000000

0.00000000000000 9.24378890633166 0.00000000000000

0.00000000000000 0.00000000000000 13.52921944091645

PRIMCOORD
 96 1
Ni 0.01762605621135899 6.601118893076576 11.957082815222149 1.04568513919647 0.13765814880682742 -0.07147795343532852
Ni 3.114075254169945 5.0760693966394985 7.015441215128531 -1.0967462195383435 3.7146072058050676 -1.7556849927729248
Ni 4.247178867757309 4.311062691166529 11.890816867475992 -3.7463163639828903 -0.18672713841933647 -0.38926064774331026
Ni 2.972820919700794 5.410084455975164 3.753695512782542 -1.7926669693139126 0.6879919818467958 0.371854793562037
Ni 0.5354741893285104 4.587498190957116 4.371168578151593 0.24089025472530123 -2.2768275489609175 1.5176221801940897
Ni 7.5410180799418844 2.4850077046882935 0.9621776419077864 0.025687634574091244 0.4049207228780704 1.1521154403372675
Ni 6.482456378085378 7.109046592206927 1.6863767179751208 0.7415066659354843 1.1094528684717344 0.12993481202064075
Ni 1.2698469791918494 4.816069353081237 8.472402813075137 -3.1278354416530387 -1.2814072194572705 0.6059018001132597
Ni 4.643349162023316 7.020084370170992 12.995788859043204 0.34844155684441924 -0.6192499392853915 -0.4266542579004201
Ni 3.243035349725152 3.247657244053702 5.720086001137413 1.0344103376135994 -0.8791653289629441 -4.0310056181710126
Ni 7.588984099283578 3.767925401041283 8.822552905511772 1.8645758396390726 -2.558388027712071 -0.3276449318140422
Ni 0.008586555283580537 3.1711556491275394 6.622539524531674 -0.37334731894716344 0.0059680446579768185 -0.6382398501243332
Ni 1.876424390870776 3.269990237449257 3.195818077264683 -0.14503001579086636 0.08310705303382461 0.5250033246949798
Ni 4.972307868963548 6.2454086617626965 10.72260996646329 1.3530528088187148 1.9294067200715288 -0.23708167961248847
Ni 8.612012677542191 8.310618948377433 1.7701088043888673 0.6221347170323543 -1.6633476793900837 -0.7845559317164746
Ni 6.9037050709780985 5.757808053889309 8.226820306685354 0.5817033484901852 1.0432649597907517 0.08063725133709339
Ni 7.567603216119704 4.921577956813381 2.0987199448755915 2.116945298648567 1.948339809530606 -1.7325265523785902
Ni 5.113294133561642 8.247021682416582 7.180903183332896 -0.9423522460340737 1.3673167749368969 -0.30712650014571624
Ni 3.6865615732814847 4.10767160934435 1.7272213225353845 0.023744909025423623 -0.7660658433320872 -0.6164569499212866
Ni 4.025494328182727 6.876075386682027 5.447891551582704 -1.0428304433564943 1.2556861605420826 -0.05481643361924753
Ni 1.4183392001795099 7.357020466722302 10.143031812694023 -1.2673980496623722 -1.3638326730430381 -0.32699572826581746
Ni 2.4718075744859536 8.373467467457058 4.09574065132463 -0.4622879479436296 -0.9009171188177386 -1.8205436411195228
Ni 5.033159729693239 1.3529024202758961 3.708182794950443 -0.8781026920263844 0.9468737880535112 -1.272362592756499
Ni 5.31458687535866 5.0266243711126695 5.653820053391257 0.16754156662982114 -2.1987102358322006 0.5345842835151955
P 8.671163681158976 0.7009675864143098 0.3226026778596087 0.49482654400128323 -0.19726146229175706 -0.818561599237958
P 6.059007663492268 8.33421834081901 11.650538447017654 -0.9192624540941459 -0.7930331159495503 -0.11833450877755103
P 0.08284838021812779 3.257843899153827 10.262589126427226 -2.083961644633695 0.35429647296329947 0.6290656398242328
P 8.953709325251905 0.39745795402594186 4.315834334871324 -1.1284535779439535 0.16522757378466382 2.080810757709539
P 1.998451644933158 3.072524424156279 7.304141373709359 -0.5999011024451345 -0.9546338916149043 1.9574569413405256
P 6.952928245577159 7.192046570559031 3.9598809919157634 0.9083339801071001 -0.7641454863809226 -0.4083639442316645
P 6.2254882972066445 4.324161139693641 12.072121765059764 3.132390150903257 1.4510079826089655 -0.5440783390485597
P 1.7767671053585767 8.247696478988551 2.042181235933303 -0.11165812519863995 -0.5373980988149067 -0.966610604360806
Ni 6.597107088799394 6.859547492563131 6.162261707170944 1.2695153531156913 0.21878673795804254 -1.0345918574967858
Ni 1.62408744810925 4.657630815498536 11.248449354874506 0.044095447657317606 -0.05710291566057908 0.545968356982421
Ni 5.128943867758114 8.21904073415154 3.4635071042279217 -0.5859724081791844 0.48255081195772376 0.16682859972319655
Ni 4.226250930237634 3.390630923213074 7.723777025481415 2.5471553922210455 -1.3248557775592087 2.157450457851465
Ni 8.729039041941082 5.5406437269680495 6.598348529616042 0.03868198995123016 -1.2029723750881345 0.38826614504052487
Ni 3.637051841234056 8.545956563798551 0.8518742849992048 0.02579819201002654 0.06493038212479785 1.5793692794948992
Ni 5.160964351666308 5.825703681575711 3.1600741952854077 0.8634731150386676 -0.6113515103739213 -0.2859922892702623
Ni 0.765652846300101 0.7467502228751964 2.5613382895242993 -0.5252056705137729 1.2063590321721807 0.3232946252651464
Ni 2.046658002779936 0.2512332343958682 10.375774696639093 -0.7586978330027901 1.5429822562254327 -0.7070230303363179
Ni 1.9912507335692768 2.675679333318303 9.669522436249519 0.86103030992513 0.48156068013031256 -1.5297523877987202
Ni 6.85362222403393 0.04906048391869452 5.468713185532823 0.7380194787178322 -0.48257575165838823 -1.2017079065534144
Ni 2.5210492366623276 9.10798815793891 6.150112595738917 -3.6454342463538314 -0.8865243404311764 2.9719126902090687
Ni 1.9875439743177796 6.353533257684799 -0.3017570100589817 1.0139448706703957 -0.664294895340172 1.7118880501926323
Ni 3.346343931756906 1.3468477387054956 -0.2859778628213114 -0.4465479115005535 1.1629585536993583 -0.4648662501937671
Ni 1.543047152952451 1.6880637094050417 4.942656568088166 -0.4642556131929617 -0.13026699854907886 -0.4904908927404069
Ni 0.028386750587089535 6.541172923635279 3.589694063185999 -0.987282787998177 2.6249580023228214 -1.0118170256941155
Ni 7.100274236771339 6.523045854078705 12.447301264043226 -1.7207598987609656 0.47403506117722877 1.707762200949717
Ni 7.531728072341498 4.955872412731223 4.42922234405478 -1.627758469431564 0.3458118325310561 1.1453195004613566
Ni 6.6088004814506265 8.961788396538212 0.17529273744119148 -0.5032466497441784 0.8433272362184122 -0.3691991011067448
Ni 5.615287320374135 9.034814326929304 9.287619929775746 0.78622252078562 0.07463243990391018 0.9599725302189982
Ni 1.4078197686877296 8.709811961534312 13.065410302071886 -0.04584225514509524 0.8504695036901483 0.46489478943885737
Ni 7.69032375433137 5.20839423126589 10.673498641706981 0.5572917524150403 -0.40741237895167254 -0.6014746175798416
Ni 7.48565702967451 2.4354702412748925 4.456957407541545 0.46939961928774643 -1.215855658808706 1.2185064661679919
Ni 7.882132368966202 8.129551616162152 10.562437294128518 -2.4792091060880592 -3.403209589087823 -0.5463095423719236
P 2.968596508284499 6.539647698506858 11.40373853366173 0.4415743695453621 0.028386007341860788 -1.5823707853253843
P 4.871245527575469 1.30921627508244 1.2130956631104475 1.20793768951321 -0.7103852619403314 1.8291347252226433
P 9.137753157414775 6.057445463209217 0.5787434396535315 -1.8312648841917687 1.3982304337966178 -0.6486512752656441
P 4.92582085580699 6.14468834055493 7.772766332227451 -2.211747785742449 0.04433533158226558 0.03615048177862806
P 4.428939484121873 3.867591930342139 3.9443089055440117 0.537682719934861 -1.592574979551896 -0.21817095875091458
P 4.235772032554447 0.047798706767000314 5.322218547273962 3.6005903505662635 -0.09831409979156616 -1.763993255528304
P 7.055525055882315 3.6973952935876064 6.636798992914118 -0.2860429400025396 1.4679209563142201 -1.4615443633639151
P -0.5369994144569319 3.282728178218741 2.888907655029368 0.5230220325988928 -0.21250450449375663 -0.6643735710969073
Ni 5.644525423896543 1.166094695304555 11.35658874085846 -1.0195933272054247 0.8587176026315533 0.6743458518182709
Ni 1.326345015464047 1.9614672465160994 12.106946814446522 -0.7120341103976641 0.7635374204832786 -0.3941012636650632
Ni 0.04622079204323328 0.8282268248566106 6.594398658722864 0.4665446663374546 -1.1868898677039752 -0.16055305112712995
Ni 8.99695176858982 -0.17910764901997683 8.892931414831471 1.483606228259961 -0.07126506609357404 -1.2234260149567961
Ni 5.380467357117814 1.8063657166386122 5.930330427869967 -0.38985225858072214 1.348502213333555 1.1250250118783784
Ni 3.4289834023513834 7.549818166743444 8.913671703441407 0.7939965083040842 0.6845163645933694 -0.22886289124712197
Ni 6.1861652202593405 3.329686624596811 2.6479387235583443 -2.4872494598940325 -0.661415516909848 0.41076612591525385
Ni 3.7506857351957903 8.811623049803616 11.729887128850203 0.4239980512244956 -0.77035058675037 -0.33911899389191275
Ni 0.6593538986377754 2.5200509074873607 0.9815757324047115 0.8884441831617086 0.47366816475611323 0.006883357383394597
Ni 3.235640318799472 5.179553610655738 9.278582277605699 1.4963504152995066 0.4059859309177911 2.2514669587089418
Ni 5.71683958256104 5.2234338754109935 0.6468276406285386 -0.4427807311486374 -1.199309838634883 -0.5397365171400963
Ni 7.325101664489334 1.7717847032724 7.426919223410698 -0.6503543739996799 -1.4117009574792267 0.9706863170920768
Ni 1.2911816434124372 6.889136860054509 7.502939216947825 0.6152084222261662 1.0795694506487408 -0.049326871259586014
Ni 8.821615585341942 4.217672694363844 12.922920997438148 0.1483768207759122 0.6062188171330464 -0.135397892017741
Ni 5.484136446907194 4.369039733623863 9.52515202062406 -0.33360089228716094 -1.1338438957215893 0.6206267650282602
Ni 3.6225113616764366 1.1621938164912586 7.827180818536338 0.09804979038658597 -0.36719955417821276 0.8703664997243914
Ni 8.935064603530535 7.70995756143905 5.976153737000945 -0.17608020022845158 1.7737246238834548 -1.5108342107379786
Ni 8.962722019192578 0.37623606402697085 11.468569845408306 2.2873844985411576 0.7205884277255784 2.325067100693596
Ni 2.81885637582813 1.6763333415991815 2.183764649278646 2.3383188234971795 -1.9121307065999003 -1.2710577579021465
Ni 7.748994080937986 2.201241880492626 12.300887971124547 -0.3650632245615003 -0.17547881919902683 -1.1698987324626173
Ni 1.1796183581098927 5.177492245785204 1.9125038223783044 0.8228946793956732 -0.8475106781721404 0.08724550068223039
Ni 7.684722018405167 1.4778322239766077 10.021457504275839 -0.6050775044397514 1.3455775834875923 -1.3085994636013463
Ni 5.405970970022754 2.9247532186838723 13.355977705961449 -0.10232142117874636 -1.7824553188882335 1.3573110698744366
Ni 6.980557929873232 0.6303228559812858 2.483220880340876 -0.35550977654511035 0.14299370208712792 0.3805919163247188
P 2.226690030665623 3.613877663070705 -0.23553450811951462 0.20682339494857926 0.3847396199445051 0.27546799270017075
P 5.563383447064517 2.0124005220167227 9.319088559501113 0.1022118921840756 0.8710108181766096 -1.3122362890229853
P 3.7167887621902036 6.208914184144463 1.2429466298208216 0.4948232015671736 0.3086910164193587 1.016758171749475
P 7.324519305803936 8.687007534917246 7.536397109992199 -0.3185532539254191 0.2454678467936547 -0.39400921817188916
P 1.8902808300677694 9.05691622560843 8.21160040866144 -0.4022951123297652 -0.16791849035326564 0.4997802884621328
P 3.3799266159481514 2.028170425465736 11.120178845953118 1.2316283482619304 -0.7848096995984936 0.8291275476792624
P 8.715043945914232 6.619717395854662 9.068433061896313 0.9903064053158495 -0.4868597237457228 -0.08698221971851472
P 1.4665548018149452 6.234833767538973 5.22434808610918 1.0815124333077246 1.9695799498563045 1.8616319265194006
