# total energy = -340891.72550093924 ev
CRYSTAL
PRIMVEC
9.08698603118755 0.00000000000000 0.00000000000000

0.00000000000000 9.08698603118755 0.00000000000000

0.00000000000000 0.00000000000000 13.29972258326940

PRIMCOORD
 96 1
Ni 6.344906220801511 1.9438698800864138 11.541938003914602 0.502092224424761 -0.7663936589851511 0.00921046285467446
Ni 4.554261099351664 0.3945205859901072 5.950083038176213 0.03441884379950202 -0.15159044261720345 0.4494098064293809
Ni 2.7014428194039293 1.678384495889644 4.929595423013148 0.31121532550310915 -0.21032138079950874 -1.5354633221405685
Ni 3.4575164060245505 4.054395084179152 4.587433141897198 -0.8375232279421253 1.5872867345697632 -0.39708682865594835
Ni 4.982421707668457 4.759945028407452 2.6512599389881752 0.19121165655325134 -0.3634120621113225 -0.6376991471295146
Ni 7.240774000688942 6.140185512266153 2.385730937258405 0.45802403046095314 -0.44608819825531554 -0.18487337304004936
Ni 4.983630276812015 4.363861480818158 11.690988201163572 0.83705271606361 -0.36407206429282457 -1.0560651968792134
Ni 5.686853952613618 7.942789107346988 12.559872175999924 -1.0235826508704757 -0.007854720157728408 -0.5704383170993272
Ni 1.8159796385343416 6.780618114519027 0.36826555721957976 0.019876427208952867 -1.3261032768130645 -1.1454195163743306
Ni 2.805452461638192 1.449964927757312 0.44292696063469217 -0.9289583412256711 0.14798652731602902 0.7372478906591302
Ni 0.21576048787752222 9.077680968077512 4.856433372294931 0.7151466878847168 0.14830045901202202 -0.24695420153119405
Ni 8.698008517279682 2.4299600244195814 1.4103420338207155 0.25248952952712644 0.3398057355462922 0.7088875943488824
Ni 6.787287962273697 0.6860956158114442 4.908808033743962 0.36579444630057 0.33189393689838326 -0.41193572074332285
Ni 0.6981913029316633 7.428156739856576 2.510987770255568 -0.19377736039789853 0.3368050010467554 0.07797256002073669
Ni 7.447721020804537 4.079411556752184 3.6486593400162746 1.2664804229441091 -0.7003420187717164 0.6551484529542136
Ni 7.541207933202415 3.7058273866023477 12.793801183769391 -0.37300459089576404 0.36344574356273535 -0.26781870368502914
Ni 8.1130519648119 8.943575228072861 7.000907556239774 -0.04692031870062242 -0.5529447883002541 -0.25466339724999365
Ni 6.870770103039568 0.7212740648750037 0.5219701087191528 -0.019920650183326984 0.23642347720319926 -0.652099895935877
Ni 2.0628912232617047 6.305904876710174 9.247815699039236 -0.26211753953519373 0.04083863128291676 -0.6014159964277642
Ni 0.407654006916298 4.866081025375492 1.3141799127321374 -2.5706347062899084 -0.5394470109241355 -1.734213967383342
Ni 6.398383133657412 1.8186330384585427 7.064387423330471 0.7474261167437127 0.3042946871238759 0.4295858297249182
Ni 3.5199712610897333 4.541339405200247 0.7004139797174838 1.215361749891423 1.1450202240533829 -1.596157811807148
Ni 5.727263779541433 5.447357348496351 4.770304192495086 -0.0901369632974125 0.9933585618786119 1.0159385040616569
Ni 5.401431721041173 2.6439131107733926 9.388805739669143 -0.399061435883816 0.34753498586974985 -0.16468275702478735
P 0.29528888101661427 5.667853064800247 12.441557800338686 -0.3991935905863061 -0.22839597891303245 0.49266398913232573
P 4.061537455207994 6.125255594199501 12.493798883092902 0.25124614403832857 1.1224693353360602 2.3277996691334106
P 2.3366003298262896 8.511189171246638 1.4366097843717014 1.160200531338247 1.3802424818596293 0.8115717981836862
P 6.374747882962731 7.808129061193786 5.891617369983373 0.4730107336777724 0.22100148622117424 -1.0395954813589643
P 4.782680667483996 0.9655195278977072 12.769143647145007 -0.4265416435819557 -0.7456219736554385 -0.5519600557894817
P 4.169081935012511 5.9850615735468535 8.203508367364842 -0.24314356953585223 0.10993908562500421 -0.7600376348601362
P 4.81891048083259 1.3303711044613886 3.929110081525259 -0.10643158669237798 -0.825577882654791 -0.4163482479887216
P 0.23096301552542736 5.489502789758147 3.4352914555635543 -0.7551520246330606 -0.09016241721870923 0.46971380809405555
Ni 1.515463923146493 1.0703106509315639 2.7378680029524216 -0.7855239520566987 0.34431776448403284 -0.058344501377164036
Ni 1.6908609277250135 6.616870626046073 4.677259816317444 1.6494642365397723 0.7373463639102075 -0.23687933379369525
Ni 6.188728191701365 5.82100512754848 9.118449730953978 -0.06919301405589375 -1.8803834960952905 0.5150402999449968
Ni 9.047085086074825 1.961180588496013 10.250229298965191 -1.519514512120796 1.7785053331015497 0.41894249107845916
Ni 2.6037758934268314 5.323665294495584 6.7097232668182345 -0.5262163711664745 -1.1963031905980752 1.2879108249037432
Ni 0.742293172288255 0.278491587318376 8.918102588800531 0.03142016618249427 -2.022737764826207 0.3058265503873701
Ni 1.4538632447692372 0.9016180246546717 11.681053399324089 -0.22592129212029477 0.20215504293863246 -0.34519811020645713
Ni 3.9842526389226185 6.986292956588772 1.7293761180631164 0.9481053464677672 0.45209969455671817 -0.7065838859163702
Ni 5.673986780378451 7.828602040745927 7.867955959895686 -1.3440763163517175 0.4437091565001777 0.8318218066819739
Ni 5.341848353565193 2.985647394846775 5.21377092010066 0.32546643610548465 -0.6995858573319823 -0.5664124837693858
Ni 0.9694269318956745 7.292324472503985 6.894961477280007 -0.546906295415658 0.4144595156064411 0.9801932281412474
Ni 5.368509570611788 4.1778963114730425 7.341899433553543 -0.28976666871103 1.2774844873640967 0.3572329298838041
Ni 8.374348248443408 7.223554162139761 9.256859976246625 0.5066261077393727 0.8253038030577982 0.7565386205679422
Ni 4.617197564677062 0.29171587810498467 10.358847860519848 -0.0766453565688809 -0.654131324543609 0.6055999526021247
Ni 8.069734302350716 6.8361123382762035 4.587526737853429 -0.7180237523221956 1.2643402366726548 0.3940076755099924
Ni 7.568723326936937 6.371812786471235 7.178511789727844 -0.7998701934760418 -0.7458235481432832 -1.4370913725278736
Ni 2.1554149151391524 5.487167434345407 2.4518169519458852 2.9707191841216 -0.07745139740994403 2.0458854065872636
Ni 2.4355485208352787 5.094600550354285 11.53556802669931 -0.6675697094367019 0.6063332312237235 0.5477663294231082
Ni 1.1706764117630715 3.3849204745367354 3.656479600203834 -0.791036654344812 0.08360944659153986 0.008093061420779611
Ni 3.692560386981343 2.5977966566113375 2.5172650602132327 0.11218134469196162 0.45191354668784106 0.6423420452181647
Ni 1.3557419694900503 3.250405820160202 8.30348247909795 -1.6516579017569812 1.776711988646553 -0.609287428756041
Ni 3.6360665947595696 2.6861312479235226 7.0219212114614 -0.22302314463689332 -0.31551909508478565 0.5889895977389533
Ni 3.923460702303082 7.098035623944594 6.066615455874659 0.9942597335366424 0.15147011498925525 -0.4807101592045591
Ni 0.7431591620580371 7.578918925275819 11.356686162973764 0.482607119116956 -0.61544393527574 -0.24223262768580864
P 0.1840350935098407 5.553148039994804 8.191565341610126 0.8018892807885996 -0.6145373643010708 0.12346154559147124
P 8.549427208510465 1.7748701136813094 7.9955808614553385 -0.27687078658496833 -0.032338050011073344 -0.06370807968192255
P 1.8189419959839632 3.328017767943082 10.45806411761707 0.013148878677132193 -1.646268869530926 0.5960220791057026
P 3.9168181155065374 6.363970717517176 3.8446838029096457 -0.8412073616619318 -0.5005048253329832 0.1699728017791331
P 6.908063093755051 3.8204688025054985 10.580953790750348 0.12769795227032202 1.253395564735693 -0.49542741081007585
P 6.384870785413279 7.575602175370568 10.238286273210475 -0.2439619516720895 1.7791465662299746 0.18354925491198712
P 2.2850498580112473 8.580713701452328 5.731635528526136 -0.2534614065220925 1.1339289992362278 -0.7340905759770712
P 6.7937942442796135 3.9864607765307722 1.5423823018980707 -0.034699094044082175 0.2017624354859041 -0.20265923626856067
Ni 5.160353981352636 2.854567621194036 0.4055630914280835 0.6224550764862505 -0.006658128746465952 0.5403630949805016
Ni 1.4407052889807335 1.4060929591475773 6.826561007247684 -1.1471583534423082 -0.6531316796345009 0.5450363320864549
Ni 6.991299885897796 0.42440132219130644 9.111892561826227 -0.15377510897334806 0.28794607056252347 0.9260691926033341
Ni 2.733647097936013 1.6681798105647199 9.289696709007217 1.1124415187864132 -0.5019364155731871 0.6419355538083654
Ni 6.539767549481534 1.9466959327454088 2.601027080149192 -0.16143468240113487 0.5943570326984539 0.5223738574919325
Ni 4.258352485887 6.697472192236701 10.477827403559347 0.045338318925483206 0.5640552963911188 -1.0306873802360572
Ni 8.199341984264684 7.352689320779557 0.09793590076393448 -0.000209802017960929 -0.5109540456907652 0.7312441076672116
Ni 7.581245193702515 3.7520619715829464 8.406927819499018 0.9346960150403968 0.270695768122508 0.059940899330006445
Ni 3.022767732827464 8.48038428856499 12.439044339999526 1.7013791802415086 -0.8686135215890266 -0.21835942061263683
Ni 0.2312856035299107 4.775192990985566 10.423989737357587 -1.3155337288273343 0.18180501852737077 -0.7650047490574244
Ni 8.579178000811268 2.6239580894256345 5.800022368079395 0.2913311849846724 0.040198169485440444 0.2557993106266498
Ni 3.415689009274217 2.5459281402848326 11.75288511528579 0.3369155584826907 0.22341883741341523 -0.759343437006589
Ni 0.7371817426397513 3.278257432378271 12.597643142181205 1.936702996622626 0.40325824757398293 -0.3810529151215373
Ni 2.837156955937978 8.832014300437875 7.850041875612913 1.3089164806211329 -1.0037206218392263 0.3727490232415322
Ni 5.823049699407881 7.7611402563717204 3.7331128795900135 -0.8526675397827315 0.09588389308351873 -0.28773395455171735
Ni 3.29969363245084 8.740035827722933 3.5928670631169273 -0.03940626971176439 -1.2226701106273783 0.8779342847693203
Ni 3.43989674008953 4.214953040551439 9.332229255874392 1.342291970757785 -0.09605332878184748 -0.2909928278086472
Ni 7.3093353103742045 6.096259021740168 11.539358208577339 0.5787180406096162 -1.1195588465574846 -0.9754600843316361
Ni 0.3784993208998373 0.1307653639356928 0.7584643726482144 0.38156816419505896 0.05290353286725082 -0.5507207840657418
Ni 4.682251297750196 0.5059270348623827 1.7764303491846838 0.4740042079392934 -1.1466755002686186 -0.5071783806984169
Ni 6.0832464577283325 5.685654470456102 0.17736797185098357 -0.9100689605203358 -0.007617407335941719 1.5643856616018734
Ni 7.7401674925872825 8.805789258721285 11.48150409454511 0.47458707702595687 0.6505137823956797 -0.4192296833015748
Ni 0.14746360948607562 5.23406761212359 5.823563114119241 -0.03869793079083013 -2.1850543356116625 0.2574723274536985
Ni 7.941280667664052 8.782717401161195 2.6636418661687102 -0.5233938141160147 0.9434971582717944 0.5333303565034363
P 8.482537904256892 1.838042840643794 3.7548843894475246 0.32225512825703856 -1.1789343603023246 -1.136746928300997
P 2.0292330269629355 3.3910178421707724 1.4589928483898245 -2.2920279108504396 -1.6770390608342471 0.12746963830959984
P 4.806061482569508 0.8889598530984663 8.219521454167674 -0.4417564036491811 0.26199798323819395 -0.22044664215896873
P 8.585275368445306 1.4799974166254088 12.622447887979463 -0.5232413476985505 0.3597055597940128 -0.8294990720860682
P 6.414830578393041 7.83885216100106 1.374526587035627 -0.8740794297996042 -0.19621553752574594 0.47671646466413375
P 1.7641838180961713 3.4658128242806994 5.932979513048367 0.041361336555606185 -0.37386231091036903 -0.2796025836938346
P 7.017833885139805 4.148727086278915 5.925678119763792 0.7087307570560439 0.5114484688286804 1.0508085764659645
P 2.5411302116547705 8.213199637978406 10.203812974263757 -0.5436283959953347 1.2917263419950915 0.027638330542558855
