# total energy = -340858.23491949524 ev
CRYSTAL
PRIMVEC
9.39898222039590 0.00000000000000 0.00000000000000
0.00000000000000 9.39898222039590 0.00000000000000
0.00000000000000 0.00000000000000 13.75636054323333
PRIMCOORD
 96 1
Ni 8.14780835272265 7.811653759900183 11.337813459652676 1.3500402472446362 -0.23209451081054222 -0.5860246015733585
Ni 2.214559952385045 4.08392349122079 12.730823429896988 -1.1927861785837524 2.007524547420878 2.638832703422384
Ni 6.569399702057248 4.053076032150656 8.375518430613582 0.1560014272007055 -0.1253559344007067 1.2615827285321757
Ni 2.0114479504028417 1.6171982495631607 3.792504293337448 1.232721324215793 0.645845687496049 -0.18324020831200055
Ni 6.635916297986357 7.388380002507007 9.360143570921451 -0.11785345537607446 -0.8257151795636037 -0.8128560642127485
Ni 2.628528717554141 6.113323497328675 4.65083249221841 -0.08951218522922004 0.0005371034503926234 0.18769130210481869
Ni 2.3535051039492707 2.1971624366206277 10.30010192885912 -0.4245994322539204 0.24116279166039756 -0.8540417944224389
Ni 2.1503649050209335 4.3242742600634045 6.234850455367986 -0.8094632364811156 0.5260353655039198 1.280268734977453
Ni 1.135011672714896 4.059946688025204 3.6713382562086476 0.42922407551012526 -0.4495054514669806 -0.30961095713046677
Ni 3.6956891388896054 7.486364390321189 11.432072090984407 0.5360845222098057 -1.2561235051898174 0.9551116025822712
Ni 2.6230209140760494 7.080506946656518 2.328979400202285 -0.4997198675378426 0.5108267760842815 -0.20739700806386216
Ni 0.12607230575604292 0.8175225183346532 10.65091705387464 1.214724116307424 0.3333203849322647 0.5633261315345782
Ni 6.383863796498308 8.036477410405242 1.423123368816769 -0.3104501652023105 -0.14110522681516344 -1.0631200468434658
Ni 3.7760598343523455 8.15029908296445 4.293718169436651 0.31575409391372716 0.9243295842044081 -1.4586901817445717
Ni 3.776473389562305 0.9451710333795631 8.18407150524684 -0.4357063408003593 0.01881996091998049 0.22759096651323382
Ni 6.504142569722104 2.3997292976442486 12.21278631583629 -0.47775236212781585 0.39268432871287856 -1.3430661299196482
Ni 7.461748456346575 8.135364100495698 3.623301938775485 -2.4720778943599164 0.14706170150891446 2.0466405395857334
Ni 6.137854840464888 6.308014011398984 11.476546194222696 -0.6450157353955859 -0.00275776525079525 0.8691326273172904
Ni 0.6069157680701449 5.590674302778727 1.6162621109515258 2.419279776722279 -1.118107458822939 -1.4292667342771321
Ni 3.428053125171732 6.329753856867972 7.536229749660216 -0.5866457800971251 -0.13057707359032994 1.1093873053411218
Ni 6.253565708415045 0.7550409053972588 2.8310730210208552 -1.3221458348272135 -1.6916969199567382 0.9974026500409985
Ni 6.796262931665967 5.964650399348366 6.744606126349254 -0.949672690954887 -1.57227637720386 2.679646909225269
Ni 4.47055061762236 4.867770396788112 6.064863285805305 0.5748050787084552 -0.08653304799623807 -0.0022530577002348295
Ni 1.8507723523516724 7.618974627987404 13.281779538670435 -0.3696315606584731 1.279760942103099 0.29376139169271986
P 5.852050594454947 4.3989021774969395 10.775164077317635 0.510186057176489 -1.5343940003357897 -0.1884351222493787
P 8.421290533272218 9.059631797808235 9.438156061789218 1.895700071847703 -2.2837232476394864 -1.9006147355405012
P 9.611774998013907 0.7456720000952755 5.413980959527277 -1.6145784804061807 0.9350914507066025 1.2401381855051545
P 4.777728148801554 8.49449920441703 9.414743197516307 -1.051737001817505 0.005682137986441827 -0.09576176568335766
P 1.5438109977595031 3.3043907184119057 8.358571126089098 0.7389754148731983 -1.4707304007385575 -0.34387527762997555
P 6.634741425230791 6.167217260371987 4.32471037283027 -1.0126202383217013 -0.3016289673662548 -0.35841563733799564
P 6.429383066539946 9.048540998995694 5.27930576550588 -0.5943552329262409 0.9577017319069505 0.319820550673617
P 4.756749620878172 3.0555338708189947 0.2987898796026587 0.6190316526269984 0.12997697811248582 0.6064129354217234
Ni 1.9169787818733124 3.0833454586887465 1.3140209251421173 0.17295630988748922 -0.3135779121980148 0.16007302616691788
Ni 8.095869577944601 5.169252144848322 10.234841976829365 -0.3735077557844277 -0.3850008440256918 0.4775538729637646
Ni 1.401266036072224 8.598696319362643 8.183988794204849 -0.4188913261255495 -0.5749218067919776 0.5389610724266525
Ni 9.679259689093602 2.974608635415627 5.6501773783062115 -0.7524006871401687 -0.7930092046901503 1.4338324992709435
Ni 6.794824887413156 2.2140806043007744 0.7775025926872666 -0.815098580390022 -0.6584667186941692 0.09309887413921385
Ni 9.12452236984364 0.07151403468218377 13.1484258415245 0.413095802489695 1.19258177588243 -0.47688384347993357
Ni 9.011302232135284 1.8979552422151922 3.4841142934745104 -0.9081213498756617 0.546966202119316 1.4740075288279326
Ni 0.9531789660814991 7.074735971681179 11.259181575868173 0.7406420039423439 -0.5185498557601521 -0.8973563980496739
Ni 3.063992954659068 4.536587865467198 2.622746463800349 1.7681774688129805 1.3049785790193074 -0.5261109559368616
Ni 5.283985518665849 4.386833884551769 3.8336088615127726 0.19625436118348139 -0.3480322372211425 0.8223472915326353
Ni 4.122581504369925 8.130598816599123 0.10795388806881046 -0.03403549231815428 -0.023099047911308606 0.9099098092346523
Ni 5.789406379128181 8.906024234254549 7.35478334118885 -0.05141820657097597 0.5478570893647017 0.04848277809173585
Ni 8.305607862268195 6.305072130019047 2.694073458739847 -1.6498473309108037 -0.013090514635371005 0.4215796715909901
Ni 4.389127236170633 2.315317039902362 2.464121723631295 0.3012594998419779 2.201225546054886 -0.24101829566273328
Ni 8.18487793790626 7.13716401042092 5.771508837518995 2.552964028483023 1.3106411766217234 -1.2483214926468953
Ni 1.1771191122743716 6.5832162056627 7.02956916346621 -0.7278710774299206 -0.24810708418871466 -0.8181674491233328
Ni 5.232084339815977 7.157653791277986 5.85356477046232 -1.0580755424410229 0.7014751039348952 -1.3297894674154003
Ni 5.975233653130502 8.512084699822339 11.404188130952914 -2.417496459569611 1.1964129767030622 -2.8654816177373235
Ni 3.538180997787441 3.9469051309756917 8.42398240172977 1.3190671959018898 -0.1549804421353589 0.23530196200424636
Ni 1.2230049426157468 4.3721902705263975 10.351853663894484 1.0348695366382046 0.7810705442710354 -0.8748229928338481
Ni 0.8211881213320182 1.3503987452472501 7.8716784789311385 -0.5922937224115219 0.8658961226578636 -0.3679444027640373
Ni 5.038446511734655 6.6476556265599696 2.659888421145702 -0.14234012766352905 -0.7104302562456539 0.7217485094719506
Ni 7.902758092857772 2.578244163615928 9.92885905626803 0.05265207897807706 0.11971596250610995 0.5104745349511853
Ni 5.257076233072372 0.531736130390596 12.847051241859596 -0.2798077577261052 0.833663744986719 1.9049174766809127
P 7.836344885731153 4.230472419259037 6.467717754706749 1.263032830715141 -2.687340678325101 0.33353095828117396
P 1.9791812450439845 -0.2559991340485459 4.964725596068417 2.108138756100531 -0.9000969369092886 0.7637125126085622
P 0.7952544500747626 1.1774762735920639 1.9860603600023727 1.2914124102990985 -0.13680942765328696 -2.2629315077051153
P 3.3377101097597492 3.535492888922707 4.647146211460547 0.29234419963021907 -0.5881519323290063 -0.7052170874758307
P 5.4496707741467505 2.0413273143223893 9.01657882065508 0.2953914710969751 4.042260365149225 -3.2440135662092198
P 6.936918697962297 8.14957536134702 13.084636830184712 -0.2564963366936744 0.5982892778733244 2.3715302772521416
P 2.1939949796716225 0.586190072763761 12.018684178041969 0.9860867108075468 -1.43041447472833 -0.24128054818518446
P 5.307717948328277 5.694175893053045 8.342819372080676 -0.9244041461960854 1.3240317389960166 -0.005940276743834931
Ni 7.169646892366801 1.99611821068822 7.499348144117496 2.4441271747832616 -1.5923039852786964 0.6474461992139495
Ni 5.3022947356885854 2.7545784657532772 6.723710309467864 -2.9221947541586513 -0.2819397164674435 0.11736237467226884
Ni 8.339763763018002 9.212609629564938 7.107650266902905 -0.019342409082353785 -0.26742378223945557 -0.07695800271329327
Ni 4.487177416859126 1.0684010869653413 4.944296908594641 1.4434556241830043 -0.35985185556388993 -0.8215582199724368
Ni 3.3691121087705107 8.475682442363889 6.68444888167147 -0.902561339289381 0.9837297805395961 -0.7004656888337742
Ni 5.162889034004178 5.985544336433347 0.22288746020388578 -0.27449945813931437 -0.5934548325991587 -0.5132392421805161
Ni 2.7152625238610257 8.97566129222244 10.121173507677481 -1.2862079832800235 0.4861585839136402 -0.24715834712220014
Ni 1.045317187063986 2.197688779615121 12.454114578811536 -1.3995571230278412 0.7444670341153888 0.8403658395972429
Ni 8.716268185757619 7.356479857447885 13.881268231128995 1.2377630004047586 -0.10390650627767911 0.7300241192171815
Ni 9.146168225492184 2.7248588845284867 0.739210199939664 -0.7600108953872589 -0.013742289286756977 -0.21107419980513326
Ni 2.8475156002095487 1.9333142126666982 6.249019420800108 -1.1858249167745707 0.2993759096660199 0.2570925755167766
Ni 3.7240928626281624 4.584889234194017 11.322832422171905 1.7200353618901152 1.1972259595226606 -2.184139022886245
Ni 7.420844086488799 4.584278300361123 12.424537862113821 0.881614561834385 -0.41036966180778356 1.945991106792771
Ni 3.0761552374246848 1.2385320609533037 0.45055242298100406 0.23482270837498267 -0.9514932891033935 -0.013803224431679454
Ni 8.296124289385267 4.452955723235008 4.274334648766225 -1.876456907347375 -0.18687780506458782 -0.2241670284333494
Ni 3.8309028945821537 2.4694227495044077 12.257481295152623 -0.055863129716207015 -0.34111905504107704 0.26897030079096906
Ni 6.593677272678258 0.47885745740809366 9.526843916463163 0.23631780486327042 -0.4031824000307249 0.45505132098587436
Ni 4.503541044598646 1.173566297061541 10.526353284736741 -0.14019171386195856 -1.5094980084250584 1.740215950603048
Ni -0.0045632057826172955 4.6442626037692865 8.228628319527118 -1.4725080614642705 -0.0859578922190584 -1.4845775910342949
Ni 6.975680099913921 2.5798043946353193 5.17240550332426 0.3263727499698379 -0.4239877668118505 -0.9739482756728001
Ni 8.986648702232493 6.853765903814377 9.030018425080549 0.7907384063781028 1.7184986135306146 -0.6884362684730659
Ni 6.389409195904578 4.49908592710954 1.8313427766692287 0.2687748969507113 -0.2030821827385922 -0.9038923993959787
Ni 8.257767043661557 -0.10903947049495319 2.0134085780573296 2.2629297079329027 1.5195255678643895 -2.0041584591621224
Ni 0.33761049514116376 7.932599860849142 4.022731418619904 1.2719874688052675 0.731998726445049 -0.7868606685902513
P 3.9532776408018804 9.723434904702874 2.4466236387590015 0.002996363624162582 -2.1780894742580554 0.07404571416250473
P 7.097641290923689 2.6222126016202196 2.892769818957532 -0.49179958424950143 2.0371068890636854 0.35031100595299025
P 2.835719877743669 5.989614095658626 0.4551494650989817 1.071492587177877 -1.4280560017984827 -0.17229810747820004
P 1.7731273616818446 6.413846549220344 9.291224595181761 -0.022471698739954846 0.3944992704344303 -0.6911909484000677
P 0.1701441325628246 4.285221489668399 12.109173817573845 -1.4458881448838967 -0.22161032344976675 0.7939414866964326
P 0.9260130882782062 8.348269841768298 1.4125438746274506 -0.4454726761585038 0.12579456460002206 0.4307106873579808
P 0.45510434998516797 5.895784057908125 4.509555453208938 0.6986006106005775 0.4158533106301741 0.994754413784874
P 7.933699541748352 5.5461325268697195 0.6754334072765339 -0.5936201545324292 -2.015309847793252 -0.20421758189461606
