# total energy = -340868.50759582303 ev
CRYSTAL
PRIMVEC
9.27151110644394 0.00000000000000 0.00000000000000
0.00000000000000 9.27151110644394 0.00000000000000
0.00000000000000 0.00000000000000 13.56979368298024
PRIMCOORD
 96 1
Ni 0.4933046602739455 5.874142074842424 0.01735905040607648 0.47373167100419705 0.18916325866465486 -0.24027833217291525
Ni 8.318270040926205 6.597347762405946 4.693370621199422 0.6308888090759006 0.5143365890097529 0.13435685234773634
Ni 3.19363693090097 5.5915464136891835 10.623520040854658 -0.029956951373406475 -0.3624802943256725 -0.47323364832185594
Ni 6.461038004850994 0.9927377894462602 2.9678765605100486 -0.45156721909201586 -0.6367432109741485 -0.030045911542786966
Ni 7.220087354685462 2.5199225700840344 12.085000403123185 -1.1322765512344695 0.11774495482266818 -0.42775571849471494
Ni 4.619131776777303 1.6153012230131154 7.685931653108894 0.16760198755411135 0.4386978193285154 0.06832449540801136
Ni 2.7242203192149943 4.0827099537017455 3.560306655549537 -0.10575950032601786 0.7537592580505922 -0.35339273020210754
Ni 1.2561414224306284 4.075969565064658 9.167020334398845 -0.23495280619494377 -1.1026602710299331 0.3594551343461035
Ni 9.12398290659349 1.3084883746245652 9.222642911497159 0.37831571869603237 -1.2760549540064217 0.13167133509577322
Ni 0.8478073807843437 5.133719190994072 6.462695751052247 -2.4872134644497748 -1.1249453076803786 -1.3779829964014911
Ni 4.085880810529646 0.8039707487141785 3.2026608927448166 -1.2614390038654597 0.17740971767315253 1.2284610062775423
Ni 0.036323926550727144 0.943320634789214 5.648955610994329 -0.07191144142832132 -1.0421359883926309 0.13912162072623138
Ni 5.934787029553818 6.024210755007329 4.892358575870328 0.534835480294053 1.0142608592489177 0.23135917530641445
Ni 3.3969889858902746 8.313281967904537 7.429095958653428 -0.32635423802707664 0.5164950301136524 0.048079372005730106
Ni 4.734747521350168 0.37717620113212547 1.0200201382818745 0.3947131862174493 0.6125627570732031 -0.38713743075272034
Ni 5.8090746092921135 4.893401620879505 12.551312912861848 0.8446014749451455 0.09045475164814744 -0.08302554906361184
Ni 6.650964911633281 7.030855811242628 2.710376098702067 -0.5091319048803619 -1.6116795615918307 0.7347662618878572
Ni 4.066577524226462 1.137317734985093 9.753424874314202 -0.6324507542463818 -0.8227422129782089 1.5830914655414932
Ni 1.3521201062973718 7.492280380280502 5.975486182236377 -0.11735311870088823 0.7746458716916143 2.1670609843580357
Ni 2.3417148534493095 5.92469962537617 7.709597185428239 2.004559551255283 0.8514598926278757 2.2246097293067817
Ni 1.126164107020285 0.1284623504814577 2.0340712776578944 0.5501476851710912 0.4501461703747731 -1.8304153917072798
Ni 8.225888703402225 3.2543375146795217 10.075775848310586 0.43776450888096863 1.9178377842870067 0.5273319728281562
Ni 3.3273228507883896 3.1728687458293408 10.893124460524698 -0.8550522379648242 0.16855869504042584 1.1515636815988557
Ni 8.590620682211519 3.012137827792839 7.5630433351564825 -0.5261772903984229 -0.45729563693536085 1.1171636068524309
P 0.034024591774939626 4.752075975769308 2.2131792580294296 -0.8270356981472401 1.4395771150642047 -0.7462884035948437
P 2.946476985526197 0.6158109919652182 5.884337955701026 0.4346843272937482 -0.062250264189473443 -0.11274004540890906
P 1.5390615864756128 6.102860984454932 4.498563190925303 0.09955877083194466 -1.2513852191738837 -1.9721148004630165
P 0.4493799488474498 8.581970362268738 13.386696468647985 -0.009874578801234607 -0.7793494478148707 0.9308542726968034
P 2.7777447533304027 1.965439843205114 1.528963056484533 0.05140355128295663 -0.6530260072945722 0.4227754916713041
P 5.008127300377871 7.071372315154689 6.95138505305447 0.5865421646397254 -0.5940024775725125 -1.4824068086352211
P 5.299938843656647 3.5388801931832266 4.546695314131042 -0.2191978573535322 -0.44882282357765924 -1.0984462329485856
P 2.080972144177244 4.546044454045315 12.649436097267461 0.7121472389367606 0.4312107669228509 -0.6765168913276607
Ni 3.8645883813824824 6.12576161710088 12.873324549548578 -0.3480057548585813 1.1956272475769731 1.5576120903234658
Ni 1.2806831125576832 0.19368743172204309 7.450902552978639 -0.28597403443781716 -0.44216546616214175 -0.3052596221403065
Ni 0.16522760096495698 7.115143119495386 2.0756224822190608 -0.4380139058876134 -0.9257174656908702 0.4492838223744779
Ni 4.755673322112072 2.8897353370269245 2.2497358995110934 -0.8160262344106141 0.5440924801159468 1.6398979330075756
Ni 1.6649779799835571 3.898188337944797 1.079258604745339 0.1644169049579104 -1.8199294045742915 0.12901435708890038
Ni 7.856048121925757 7.510118767815241 12.688178033937241 0.9115774267450624 0.38291619358252116 -0.8064085088151918
Ni 3.9399843104014507 3.8478069461237108 0.03800670583220067 -0.2397186030147033 -0.9506291413308855 0.33698163583393576
Ni 0.6823526277951657 5.1358979961243545 11.179542765742685 -1.5572115124509374 -0.05977583450705189 -0.26552965054053623
Ni 2.9385313004340605 2.8309632275764525 5.59711951906711 0.6343428290627721 -0.03651069333152422 0.05886155022289862
Ni -0.003307148042433093 7.898901046658378 10.557584761856711 -1.2764997548533243 0.07985460753479795 -0.5037405586614615
Ni 8.952561936151815 2.5826072572578225 1.94649165578061 -0.37476991032630297 0.5337784997844485 1.0221266351502398
Ni 5.975349891021844 8.836751489843904 11.494036134003261 2.051256698201506 1.144380790697171 -0.9717222145557587
Ni 4.608154307525156 6.010349845774255 8.76015675442772 -1.8026618757430954 -0.3049333491491394 1.6239303539347256
Ni 2.198414376455068 8.74060591877569 9.494214745842289 0.306298347817466 0.9632098062093734 0.6648651660213453
Ni 2.1995640438429622 2.2932248499115326 7.852527729125892 -0.08601291382670993 0.03355006804130351 0.10143901857379305
Ni 4.615302642654721 8.179429160815648 5.047542348760242 -0.15792512658597962 0.91797510274129 0.488701662050468
Ni 1.8860849789068663 7.034249184339152 11.989727281258206 -0.7597216462816142 1.4467042130272891 0.13970294715099812
Ni 7.54514653710123 5.904673161199957 0.6792642874168802 -0.7251809321922672 -1.7561205376484466 1.3806623430058673
Ni 8.574284279489998 3.547048394543988 13.442726065087658 0.6060858910996078 1.813890140358747 0.8504995855971352
Ni 5.170731063675297 1.46984975542217 5.550263155801486 0.9246882530954075 0.17956584478420687 -1.8828453273722219
Ni 5.822787174346104 7.587526614763023 0.5174161522816593 -0.08209840926365215 -0.679570847662636 -1.1331386421244485
Ni 4.580098714656072 5.567125253207633 2.7627962958344265 0.10085075017049082 0.2147781310192817 -0.5427897021441233
Ni 6.561105425153714 5.899749988756637 7.895122905847356 3.228290499047008 -0.1710567788719312 -1.9348649149726227
Ni 0.7613514660636138 8.546330673244032 4.057856740798616 -1.8012485403353364 -0.035953021055841305 0.6365794317027746
P 6.767405820702295 0.24106299961445862 13.375351847552606 0.03056013217504414 0.6420304275150168 0.48645246100497513
P 5.034458392165116 6.917418871800045 11.226928532297412 -0.0692637193928291 -1.7492950300861807 -0.6709424825636767
P 5.922808237092862 4.380937382725863 1.1527353309474198 -0.11033992060784867 0.6817665697623743 0.1856606448280351
P 7.287333625366054 1.36799293345926 6.517978990840909 -0.5512285769400959 0.8914593158389487 -0.3580608251017382
P 6.636343738482407 8.428804997365473 4.271527060594267 -0.05768372786471356 -0.40193747188003026 0.6172426790473757
P 8.668241773916733 0.8379888504312832 3.075756156143731 0.6286149254400593 -1.5061139224441737 0.7215608189411766
P 3.2992394433857273 4.01145839018591 8.837545131201997 2.084273776557475 0.9878952247711953 -0.980606404419266
P 1.5514946829850118 6.779217725961784 9.65412142653376 -0.02177081601818831 -1.801073191099737 -0.36417465130895993
Ni 7.398573216655969 8.517728061214578 6.455463045170828 -0.07856134264467116 -1.1370518611359255 -0.1809987205759915
Ni 6.327092482650179 1.9886371642092282 9.907700039107233 0.0508196537550286 -3.0394591698004754 -0.9311869734458736
Ni 2.7112402035452257 8.57901275019827 0.30447086466127643 -0.8593984307486618 -0.3486894111891672 -0.44807540388867345
Ni 1.45024978076082 0.2499655046616811 11.734357412722304 1.419456947275562 -0.2126837103840982 -0.7218505822674536
Ni 3.2725282196395824 1.4652974434265582 12.811242510602314 0.4187190622137434 0.20136982803317577 0.14056863758540306
Ni 7.723864186851553 8.60305377872092 1.5855081489465206 1.06411197844309 1.6274890178202617 -1.0092901455072039
Ni 7.8507633605459235 2.2235865293432258 4.4081474137741745 -1.4150711595030403 1.4293189276713063 0.6959531456754013
Ni 1.610090633722823 1.9255538020541547 3.709058781125081 -0.2443735852882114 -0.5385597232231757 -0.06745494831886446
Ni 6.485060490351258 2.223503085742492 0.8396836826773072 0.8727190591169679 -0.19059099225011691 -0.5979570913448863
Ni 5.723146243558248 8.598946499262556 8.61463389620059 -2.680792078573306 -0.6267192510792432 -1.1419161312067623
Ni 4.987637260642023 4.399406233021705 6.401360068756996 0.1363180898391652 -0.7384120861705605 2.119136135652299
Ni 5.54137826662553 4.0017789325007405 10.286907628341677 -0.9149769393449144 1.903439606583806 -0.008655361682152835
Ni 2.21230310022172 5.939209540392733 1.8297104822508246 1.2599534204588687 1.4550790673545457 0.6075671036308247
Ni 6.867083837534922 4.460728008050167 3.230683108173608 0.46030485607532984 -0.5291101477745016 -0.5078887765018801
Ni 6.925466543515301 6.805521003215451 10.101300318624066 -0.18772524066654767 0.009445975904248246 0.9943252966672553
Ni 8.471305604672771 0.5669158233883205 11.800360373751957 -1.4710430468829698 -0.07316716821229335 0.003089437558601131
Ni 7.552007455383822 4.4511041794321535 5.704551300710185 -0.727805771409624 -0.32980902934489653 1.2882692366844266
Ni 3.781033522513946 8.585864396969669 11.487956804114212 -2.012599390840624 0.422201364335389 0.29277100275499257
Ni 0.891534609022435 1.6754733306536842 0.14492391860408163 0.6167132889064669 -1.5197217430355956 1.5693558611229552
Ni 8.739845654857891 5.442414156154738 8.9987813465985 -0.48854970985363605 1.4245310193643594 -0.5779528803088175
Ni 3.6569992457781177 5.853355346748408 5.186619652406213 -1.813621717188709 0.6444752895110837 0.11636787196948345
Ni 0.7241105870559295 2.6014098819566014 11.80751149033488 0.6557873720897931 1.656422155914844 -2.911270136826347
Ni 2.8630519278143582 8.038928680201598 3.406249371269535 0.45110442052298433 -1.5957217527109937 -0.7141095048694541
Ni 0.04265544154421624 4.004272969011574 4.307459729372662 1.5692866984479168 1.3867203762744893 -1.1727320881463545
P 5.105598697546639 2.3517188140262237 12.055187858883084 -0.43582075489103655 0.5061283421673477 -0.8647550670748849
P 6.715262841754598 3.730689216737631 8.35888482285691 -0.5109049376203846 0.37119967647654134 0.03848864299350146
P 7.3415719658433005 9.21147815771892 9.533200523256438 2.902371548785137 0.42177867497567356 1.9504964508622926
P 8.786314468955661 6.885116926804708 7.319329610492034 0.08344001089321114 -0.3540805002977515 -0.9543410429648338
P 7.767644262703443 5.0078676980644765 11.795638393101518 1.503163324456282 0.12253954799783412 -0.7510374882440549
P 4.003744492873591 7.468554583138404 1.5651395660072964 -0.3793881258246047 -0.6973130021374054 1.0661871158045637
P 1.8808836611277664 1.7289421357019366 10.040168609575053 -0.14764328504399732 -0.555673757195643 -0.20042314784919033
P 0.7176103305587334 2.901751215532653 6.077069494619103 2.290314527703759 0.659184056476168 -1.399938160516344
