# total energy = -381167.2004116908 ev
CRYSTAL
PRIMVEC
9.21483360292455 0.00000000000000 0.00000000000000

0.00000000000000 9.21483360292455 0.00000000000000

0.00000000000000 0.00000000000000 13.48684042753052

PRIMCOORD
 96 1
Ni 1.564872268297917 3.8500957289080513 8.822740652259656 0.06850498684993363 0.09896638866358438 -1.210872346661502
Ni 5.903630626608919 5.544417980571095 13.515162483773738 0.004814133559191709 -0.6679872565900947 -3.284782006375833
Ni 7.605168093033843 2.6702745002524444 4.716847591117297 0.7439052480746479 0.5138611920352312 0.3650657956646616
Ni 7.771062743555082 0.6872450593939451 0.4828139744740041 0.38160827340437503 -0.9549539939584845 1.57853109986432
Ni 2.4510904666303706 0.4533218993202393 3.0144439303276007 0.6915264773626154 -0.45973792782826634 -0.02540969832235624
Ni 2.3819884289556064 6.92129842721241 3.2405234239832827 0.39326256981385177 -0.15998740843164705 0.40384317354317545
Ni 0.17529009492891903 6.366261350900361 3.7789996012275777 -0.48477481619223606 0.08248870272353535 0.18384775998901243
Ni 5.779497602270108 6.247021403239146 2.0229987818925426 -1.3821666954655356 0.6836074796258549 1.5918640695278006
Ni 8.480743158479997 3.622194462636247 7.216336207137639 0.21100478001977854 0.290072629987223 0.987810378366873
Ni 6.49223734197273 4.047348458400783 6.229908535634692 -1.375189492816754 0.12267813045822744 1.423282234558923
Ni 0.8329472448989542 1.0981501578579762 1.6249345541445779 -0.3508398818732667 1.7781073263321827 -1.4194407493256458
Ni 0.6508501523396382 1.9700669343380182 6.607796885067029 0.7066252806772668 0.4796274676633418 0.49518881243670854
Ni 5.593772629695783 8.064610484876228 8.814284199402724 0.27788637233367625 -0.39527960024388054 -0.478512380222292
Ni 7.816565592206634 8.638058798856525 11.35919733798844 0.819535276005137 0.6168896665833311 -0.3679472309775147
Ni 1.3047743731908512 4.445447702516685 5.840179124939245 -0.4744577505369442 -1.1685687007972843 2.938536428741468
Ni 5.58101929989956 1.2690761075618295 13.595274404714779 -1.4925004454257975 0.17202377077089082 -1.43985170888183
Ni 0.08148400967417452 2.860265940814957 0.40954130308119807 1.6412711592060185 2.1981309662899626 0.2607995920547186
Ni 3.0712026983043583 5.61847759875913 7.670829311817053 1.0139027045785507 -1.3053881557529003 0.7778201556545379
Ni 4.343448708647908 5.190374856220901 5.714051089111358 0.08340890054495957 0.0016825299087454893 -0.6772298582342853
Ni 7.9458957827340795 2.500463545422394 2.25393449289115 -0.7707619632561757 2.068444265724386 -0.33227625993846643
Ni 6.787379249518405 6.066548885855462 7.628332341907936 -0.09173696079468072 -0.6957294597003696 -0.5828068659670093
Ni 2.8343261840401257 5.747927582124257 10.196146185124846 0.5063512568114311 -0.8641814539596019 0.17124318385112444
Ni 0.04936478544172258 7.495649794892148 6.563290159934965 1.5827564507995773 0.9849515687618391 -0.8587741669011016
Ni 0.4922905094179602 5.919056258168801 10.278321307324106 -1.9903359514567336 -1.5806178071900197 0.23283910228605062
P 9.105932763504939 4.189524127061129 4.170912927502291 -0.7627311225318993 0.5412948627661516 -0.1418305350169622
Ni 0.17407650133487093 5.636262227737966 7.874548090094475 0.5728939777286715 0.052505783208199895 1.3383376140957273
P 4.424843334435504 6.631786783037756 11.299490744721357 0.8578621966097935 1.5137346722142255 0.3092047228309836
Ni 1.1050428534414838 5.009238870813136 1.6780322687051226 -0.06568063002726107 0.5017502677043101 -0.506188763091638
P 6.463496275762891 1.7504682332008932 11.665968365622867 2.0107510247779756 -1.7983354804535998 -0.5796323248937695
P 0.20966879637671326 0.12893118822962982 9.808709425045945 -1.4684650017431482 1.196864462418184 -0.9434827600940913
P 6.7571085209197115 8.966539974612266 5.902582900020891 0.4967705551015315 2.176235965989085 -0.3224255923966318
Ni 0.5755124367218801 2.130183884149553 3.932128942668826 1.127459332351484 0.21720268130037432 0.17933727371316854
Ni 1.8800380094037012 7.125102903442941 8.812530616555744 -2.445259745725808 -0.728543678016913 -3.0795604086967345
Ni 3.9161015824704375 4.671579720724274 11.9626924601093 0.7272573551053217 0.3272901195777847 -0.2904834922723965
Ni 7.735659352603429 8.276671452073101 7.880509165994169 -0.11602720080061309 2.0860720061084783 0.38793344429145443
Ni 4.622096063928236 3.4221496385421744 0.3082094631699687 0.9903951083749135 -1.1469189837379925 -1.4920517879241528
Ni 3.637924183707166 8.138559525060252 5.027246498766733 1.3575584099985523 -0.38330211616703025 -0.9124222912438608
Ni 3.1577760606132537 8.676558373920555 11.890632460827177 -0.006065746578105683 -0.4156820751596325 0.03162508310444877
Ni 8.830344733002317 2.5290295297925454 9.40526373443599 1.0567995039420768 -0.5103308102844695 -0.060965483939778874
Ni 2.0560597621258427 4.468595364690176 3.8404726781087772 0.28426450794587815 2.4490253834158273 -2.2066467170704573
Ni 4.563922818983473 1.789704994958347 2.210129016601206 -2.000030553036678 -0.16622310492871373 -0.8756439460732468
Ni 4.325120404482671 1.376613216464949 9.15763258779808 0.5794844864619956 -0.6759875011867519 -0.8459104235645561
Ni 5.583516519823531 1.9058395436735156 5.855770623505148 -1.0853721733734472 -0.30708330561260666 0.5022891709269156
Ni 3.474287167434535 8.315106523301456 9.591369279640794 0.6435499494833369 0.856277368621177 0.42138092531662263
Ni 1.2038443000275376 3.499821471527984 11.023711967161812 -0.06655557643304666 0.5240363327960201 1.6130584442172282
Ni 1.9015638608516605 1.367545820135843 10.19464877465383 0.690589824480959 0.15517507464466823 0.3337145350468898
Ni 7.140270519660125 7.740939452295074 3.0810957437300988 -0.2548233198666256 -0.20444820984818338 0.5799729960626399
Ni 1.8616083420681193 6.165792644457571 12.463418228266757 0.6548005826964917 0.10251631079837184 -1.1056437791382894
Ni 7.090832937032427 3.3619767746915 13.230145835462233 -0.46016498806335593 -1.1967613611814163 -0.3475964352353046
Ni 8.364553320762822 5.628779782799721 5.850186434302466 -0.7705688734087632 -1.3018585453330869 -1.330627132825347
Ni 9.003629680125124 0.25279882535880854 5.288230860872639 -1.1959838595854435 0.13251054316761693 -0.11199982480877485
Ni 1.7790342175710452 9.1504311952867 7.948132222865253 -0.8033782066293003 1.787240913202335 -0.37649306366499674
Ni 4.245891264607006 8.26070214532682 2.184220590260845 -2.006626461086641 -1.4784190276320668 1.937087376545238
Ni 4.141201539307233 0.23832785056690972 7.101090889871411 0.2552267259526314 0.22099891511801298 0.012007051763205127
Ni 7.489936598018118 4.5394758652628235 9.755692801021677 2.4700842609686555 1.3672416987245872 0.3951893545229194
Ni 3.8085552587336498 4.485771814646938 1.9354154738136573 -0.7287768770736417 0.9715214113988624 2.0680128346139224
P 4.568622384154046 3.6238162733617783 7.579819928580484 0.781113481693829 0.609749455994124 -0.902055089076924
Ni 1.33673141635075 7.910114583602048 10.796310144874802 -0.45777643322652134 0.9181813052148251 1.0834811269983209
P 1.9206477813776555 1.905517024495143 12.784000448602468 -0.3261377511408964 -0.4918980575005787 -0.686470917216579
Ni 2.117200183511635 2.835616260753617 2.138500271534734 0.693087136981516 0.12003040842273521 -0.8304413813946794
P 4.3850260381569806 5.993115876356836 3.6616228929339907 -0.1564464851579241 -0.06620204974836987 0.06704228626147808
P 4.296084463595463 7.421719184375462 7.054224245837027 0.175439224210343 -2.368228209462102 0.28377059902859514
P 5.8931257162276385 9.184664302362544 1.6848567745194887 3.6693771303226743 0.2996705580883033 0.4673095695279371
Ni 6.550300008913481 2.921609088541441 8.587597448208335 -1.8641791184212864 0.8068494530073523 -1.5084184022076343
Ni 6.206006178583809 1.2855430153261715 3.610723837686581 0.20664136084476026 -1.6356628118803058 0.488555623390907
Ni 7.0783929115809086 0.978467898180708 9.425642339092311 -0.15941790908142223 -1.9509127124641048 1.2976023411598943
Ni 0.32677458856046704 8.293083070835436 1.711196455075502 0.4214778559058031 -4.052884163411658 0.36924255275017054
Ni 2.1012032322643504 6.637343327739433 5.866087551279606 -0.45859095870801664 0.2609026932914862 -0.48781694545266957
Ni 7.657646570771912 1.342066805044401 6.8995707709071254 -0.16389471390585322 0.7505618341592171 1.3264089809789414
Ni 5.1668309561996955 3.52962224360962 3.6804239180663845 0.7134690430719778 -0.4004315767584652 -0.03738872506110335
Ni 3.20334341310048 0.35470106347407415 0.4263205937068785 -0.7847081410236227 1.5641709744879062 1.0909872055673793
Ni 2.991153438232259 2.2312337501505475 7.116398571560345 -0.20244454915459328 1.4248968873442105 0.6664803330272651
Ni 2.310748549869915 0.8676963826601937 5.4119722547805695 -2.212808108686163 -1.8475798193017081 1.1767949453618185
Ni 4.379027181439248 1.7794673147534312 11.37753946440418 -2.16226304874876 -0.0933852950313811 1.4261027347268536
Ni 3.001741282116551 6.431189068923616 1.15383724067917 0.43586369231383 0.5857793183317718 -1.8586239929310118
Ni 6.705947764396137 6.5602335996073595 11.246311939624535 -0.6080887804622496 -0.6079165165504433 0.6172079691546983
Ni 8.25907111976762 0.4263924694094872 2.929665617617191 0.27318922396832307 -0.07370607143489888 1.311830054723502
Ni 0.8507890058465309 9.069506526016161 12.878880983462878 0.22094826438573562 -0.7458562011534317 0.3162505739341715
Ni 5.3786799822222084 5.3336931642560526 9.3526110963416 -0.774447382527563 1.603545619630787 0.3522331626763676
Ni 8.076976791658405 5.755281019391154 1.888400470957221 0.015228644024296353 -0.6916046388987185 -0.41634233445145075
Ni 7.625339363932637 7.423138268760301 0.1176642111040219 -1.3316612305168163 0.544756596062507 -0.33197415531701535
Ni 5.319456246239316 8.733994432171894 11.15371115461354 1.3256129674402073 0.3789404967642248 -0.0056098899876096935
Ni 3.1536570299637514 2.686870415688136 4.320482578697672 -1.0884567258360416 1.8019663923379676 0.5915722708644651
Ni 8.683874951852781 1.6245475311305309 12.22811376462625 -0.20347710418416567 0.46292352464509956 -3.6559955668094455
Ni 8.572467612809188 4.987676160030505 12.468665154557197 0.7677530012265229 0.7956142464131652 -0.018970884675547972
Ni 5.789744497308691 3.5999498541621997 11.032802400575088 1.094467965027128 1.073685481064138 0.3279943447336609
Ni 6.379263481205614 7.0721176098531435 5.510682474513312 -1.284363216761801 -1.1455038485580207 -0.5417723166232025
Ni 3.9439856691491726 3.654851833154898 9.622105357339713 -1.9994962777997631 -1.1242673077767478 0.0007037109352439493
P 7.72743972097176 6.8215847120932445 9.366354099273744 0.5446059294172557 -1.2798496451621635 1.5111481424339717
Ni 4.97701459747687 7.910630614287443 -0.009718885069419054 0.4589917936908611 -0.5900864303475579 -0.6822571362455475
P 0.33444685907226973 6.732744500702073 0.17950588133193335 0.2259459747106431 -0.7691141432401077 0.7024690924170482
Ni 2.278671713872335 3.9946396098210193 13.256309512695191 -0.7436877327472031 -0.9291151785185096 1.4906217403458457
P 6.5021156436646015 4.143827766902554 1.6281855474625748 -0.6953034279065445 -0.1977206613163627 1.1790102078455824
P 1.1621103183461128 8.372054195368404 4.214017154950117 0.11727932804015931 -0.3786882715441026 0.1162693987184062
P 4.141054101968549 1.0206994808801937 4.409711656069625 2.9067951317741296 -2.713902487974029 -0.24744836755879318
Ni 6.569706448617849 5.118536012946803 4.222298525967361 1.3775253400387826 1.4475904722869846 -1.3618171852749064
