# total energy = -340894.17811099516 ev
CRYSTAL
PRIMVEC
9.07306964175527 0.00000000000000 0.00000000000000
0.00000000000000 9.07306964175527 0.00000000000000
0.00000000000000 0.00000000000000 13.27935454064588
PRIMCOORD
 96 1
Ni 6.537573181630034 2.1294857601534605 11.428836951710108 -1.0191531543442125 -0.9575410379593703 0.7883552508579068
Ni 4.34478461390367 0.512229225216544 6.193663916993892 0.8942139957659503 -0.8734862763002955 -0.5880084647726067
Ni 2.502497803286211 1.420180387123955 4.832649017641602 1.177731341133159 0.3808387422282022 0.6876181434471449
Ni 3.571423368512878 4.17379354159194 4.976464431469404 -0.3401201814629175 0.6397940819853304 -0.7793800439424899
Ni 4.936702610642761 4.517463277186957 2.588185688520554 0.7600708020909168 0.9075477367603789 0.023088763498663463
Ni 7.071423532035947 6.024990106693647 2.5997257259222994 0.18363795797105148 0.43142982491219245 -0.3522336768969998
Ni 4.9449863233149784 4.569497332143328 11.393819439050281 0.9532403537014874 0.808676221803446 -0.04406999373602088
Ni 5.7412570697981575 7.751876543293655 12.392505834888151 -0.3667475542424587 1.1825195065504215 0.10409471102908524
Ni 1.8807747724526684 6.565808574659542 0.40563880191620466 0.10780892665587884 -0.527737178686375 -0.6255357722941033
Ni 2.8165621123210465 1.486549892268829 0.4336283147557703 0.31030592631496234 0.6019356163766602 0.2260004820976624
Ni 0.5033730018437604 8.967241454116804 4.856207243220367 -0.6014386221355835 0.3685046461428815 -0.24090799533711413
Ni 8.584339764967934 2.3001320558150864 1.5494616505359573 0.5567849879819508 1.2862858877058105 -0.6187079507389925
Ni 6.9140329912638165 0.621173202807325 4.564008124950895 -0.8734788201011279 -0.7362343617929514 1.218134941761186
Ni 0.918294461410508 7.682422194437331 2.713091917704141 0.5246989060806834 -1.0652969998901265 -0.1103257795404616
Ni 7.728223050482624 3.8882368176788 3.685352997925546 -0.27365999295715454 -0.3563577263677024 0.08662997858541854
Ni 7.666870952903727 3.9283488589973903 12.85940872560678 0.5559293248498748 -0.18866652153389443 -0.7808525147229585
Ni 7.7137605773177675 9.076880428849636 6.973692961336287 0.6452214236484888 -0.06966249749314454 -0.19593245906768836
Ni 6.804666208623172 0.7741279197837849 0.3220839953776317 0.473367859906875 -0.10400652219065312 -0.1929183548317129
Ni 1.8312085924654575 6.393774099327763 9.173551265003715 0.23474608950077636 0.1234358345598584 -0.3117100057513406
Ni 0.017401240453500246 4.923256321288734 1.451367249739741 0.23531584596131733 -0.7745278580565113 -0.37938015540480463
Ni 6.245438482155712 2.1741706286207885 6.922302187024451 0.564301350963654 -1.0734857063485062 0.5012015942896917
Ni 3.3814151420270324 4.266556606609192 0.526939393185291 0.08243316689525158 0.7339345100151811 -0.3864298631627345
Ni 5.811283022048074 5.630184550046476 4.948551132415651 0.21911943870711292 0.7252562655148929 -0.7477259073723187
Ni 5.504740287827333 3.0499759044409416 9.171625052298007 -0.5049134959236401 0.26888982526202077 0.6248801409879754
P 0.1816283392743883 5.586143869530656 12.351472876990995 1.102096428106663 -0.23164148243352367 1.8094573013983741
P 3.9810633941842277 6.1607776684158875 12.713308712818558 -0.2419096971287511 -0.29211511433854853 -0.5131798496974904
P 2.5647209155601063 8.453515172393232 1.2998651312285847 -1.0326961831359698 0.9743614519508187 1.8996521145169156
P 6.092956472112683 7.8495662851794865 5.880589479867643 -0.17067599849374476 0.7994670445003522 -1.2025759109806642
P 4.842342685351347 1.0329417706395758 12.57212267460128 -0.034866472859881883 0.25346552028715064 0.3690713172796289
P 4.066658734107228 5.904055160135065 8.01369176561929 -0.08996392805465797 1.1094428411694055 1.1822899070381188
P 4.6253692955995325 1.0203211306318491 3.7128679892177328 0.3107067612978068 -0.7452149680250069 0.2759382474683699
P 0.18972242478904888 5.715035898250831 3.4902257454926424 -0.059302751525375286 0.18961011639408634 0.6052536250062996
Ni 1.683036290548719 1.1128755150450909 2.77381797347101 -1.0855673201033884 0.48041139701721775 -1.4069675565592996
Ni 1.9578504998902224 6.311726329672931 4.839023756440617 0.13980939082187535 0.3152990086541796 -0.859239022352662
Ni 6.1325241292468995 5.6940226687340125 9.133859306814065 -0.38151854190404616 0.3062153011853565 0.5706640599568882
Ni 8.667231330108546 2.3642968050132476 10.445022224482349 0.7920969772885261 -0.827161425091827 0.0032287913499428264
Ni 2.2317120369090717 5.112066902568957 6.972245806712827 -0.2379126601542161 -0.3227685775583473 0.4656095561176949
Ni 0.82550236257009 9.143839683527581 9.31234654934462 0.18815898576985662 -0.007504021686529012 -0.5211782945219348
Ni 1.4066161478633141 0.8906343010024884 11.744287625801148 0.818639503663745 0.06451129230950825 -0.7491189310651034
Ni 4.180144690409632 6.905821863149515 1.6295360275224353 -0.3757749545520496 -0.8580578575603675 -0.14709589718095958
Ni 5.618480290082444 8.06182167866673 8.146060594663666 -0.8193056764928341 -0.5211692956608701 -0.3251165089652336
Ni 5.552981799632568 2.8117533853590797 4.739587448629919 -0.5540688746023683 0.11148123330114348 -0.38250044620134127
Ni 0.5461071603170835 7.079752610056862 6.532632895156843 0.05228184012285189 1.2198817492489635 1.388191561503377
Ni 5.433915905440335 4.452318636456924 7.018245362985417 -1.1443841331312807 0.8712342470413253 1.272050975053351
Ni 8.253744322867622 7.496097634265746 8.908547765971598 -0.25643668710033257 -0.5446768918645072 0.6962207975144913
Ni 4.735343973912728 0.2329174952051415 10.491619696050776 -1.2301527921576683 -0.175735158184207 0.26457628548833145
Ni 7.912415439265412 7.177079429153112 4.601853713448543 0.05915491309360134 0.3702365412323237 0.01247344987666239
Ni 7.256296401049201 6.53188436690333 6.992204745525909 0.40783172587727823 -2.172221959733685 -0.09602144710264754
Ni 2.2940803182988003 5.400572374147455 2.5982785712988394 -0.09296132012008507 -0.8286680915443406 -0.47935930160361956
Ni 2.412619974446139 5.188734341868232 11.34785889697757 -0.7292862126098923 0.45157904616655775 1.0484575597352845
Ni 1.0263637950783955 3.4936762339145964 3.878965955018918 0.9627290099182128 -0.5857947449507395 -0.7237655399019793
Ni 3.6847369364902303 2.690446442941176 2.7216033644268216 -1.0083347235724698 -0.7370200909190404 -0.19425250026210414
Ni 1.0239594315974123 3.2644269808051583 8.446558849823912 -0.1418809286389234 0.44396163883061607 -1.288316287872278
Ni 3.7833884237684554 2.7836359422361867 6.916352975196221 -0.8316551991971225 -0.28259483355293913 0.7607007223654318
Ni 3.916889571916327 7.028335523842781 6.136814783926737 1.501857461160665 -0.6218315839696387 -0.520289207048762
Ni 0.6944799770750661 7.3377907134499205 11.126984087237746 0.33451903322605614 -0.8705811868383588 0.6703027920971488
P 0.11726035331406078 5.468411716590138 8.132250475213082 0.2054545396255107 0.8017411852465095 -0.5775705572687343
P 8.581182336698568 1.5729345892591704 8.361877168023687 -0.5433273198151481 0.1349713460032837 -1.0274804432629854
P 1.7834298072169397 3.3484345335237355 10.419446148193506 1.1161313089331746 -1.9660678229379882 1.1403169050404425
P 3.9880859501626467 6.126699218474103 3.817734529267556 -0.19172227764108274 0.29090566741147966 0.019735787866030526
P 6.937877018539377 4.0368627730825155 10.622421605951128 0.04269908153042324 0.9770371990107688 -0.9653134828159374
P 6.384265522240705 7.746596016705231 10.26164822659007 0.1546361714220627 -0.15431478352690198 -0.5621087141877095
P 2.3236222333708048 8.422394543186545 5.872555276613264 -0.7462963740146438 0.8037132213712158 0.6393968465469118
P 6.835614449504807 4.035901027690122 1.6078904050447695 0.18377165533543835 -0.5330009981884756 -0.25739416591759545
Ni 5.324603561218128 3.008149052941574 0.19350498756347106 0.4632158590745377 -0.18919976832954513 0.8819572898857844
Ni 1.2956162126695492 1.2448251682674976 7.053953336252426 0.6136454486144206 -0.7823985190538396 0.08645437223950271
Ni 6.727980623184419 0.7424238921928439 9.35725733724846 1.2276292544048664 0.80023426168368 -1.0187728881866585
Ni 2.8959514725421878 1.5665290020230418 9.200322264577256 -0.30145413235128726 0.3820026806293163 0.5737622392662377
Ni 6.388566157297255 1.9005994298336049 2.580351092800445 -0.5824322562364098 0.7826461162882714 -0.5601279363122548
Ni 4.125161887787904 6.772048522909457 10.461223097809308 -0.07638696070117167 0.47447549114875703 -0.5009334282299696
Ni 8.562274059361327 7.21538592959353 0.4437692848036754 -0.842671090691652 -0.33862097120957163 -0.39372845370667675
Ni 7.635804762115476 3.8539769063422247 8.286171474116808 0.6029856549077293 -0.10340488405091222 -0.24966800091793132
Ni 3.362987737385988 8.3858935836243 12.61004901341961 0.19186034588084375 -0.2120237082025961 -1.063248344891214
Ni 0.05710771555473239 4.652661089376126 10.366116458878327 -0.5092612313693746 1.6230240400703724 -0.19601267748632048
Ni 8.416651290041404 2.2176850710917138 5.841773980214835 0.7188125667720782 0.6893232990637097 -0.16032807960051743
Ni 3.6958877392001486 2.6911087770321633 11.590446469911136 -1.1845936154706307 -0.8122701098022914 -0.6473019603266013
Ni 1.1472987416369778 3.1914704270293646 12.714477324201013 -0.522898362536835 0.429787404212763 -0.4719735506625098
Ni 3.0989886271740397 8.333923040156105 8.08949091214449 -0.3746822357085031 0.09091806443781117 0.5460858563968918
Ni 5.582623518471706 7.821022407778834 3.4464173355621552 0.5766305619529682 0.33683225474026507 0.6736136016379367
Ni 3.1723988344368115 8.335420096663134 3.61701735856811 0.1193583220563751 -0.18741233741181917 0.3128523468858999
Ni 3.352934776114557 4.230618177370799 9.203163950019688 0.5470847299750513 0.07409327957098853 -0.09357529955500014
Ni 7.362714436024489 6.234051779632566 11.507038647102341 -0.04665189553058417 -1.0236718681501726 -0.4302468603476848
Ni 0.53403997756347 9.266235394314233 0.7957880591730343 1.5842196656086651 0.18705264007955527 -1.7215713389186675
Ni 4.6984982377003774 0.16167847353104595 1.4734901156857079 0.2763989891548724 0.6910066003034036 0.18036442942610229
Ni 5.922491637845848 5.740467712730815 0.3397429110117354 0.5379357164859315 -0.9581455043125887 0.24505852717037796
Ni 8.16181598026641 -0.14349876369389153 11.081169621587842 -0.8500663547144586 0.44706007525028163 0.8006299544602018
Ni 0.05957105398902266 4.909002528727887 5.666433278269961 -0.6595452964703287 -0.8358026457065929 0.44814225257086693
Ni 8.16183412640589 9.034636216142248 2.399885013759694 -2.311909480265715 -0.5427935587988652 1.3343346635839213
P 8.600163198593725 1.6713229575149486 3.6608520804008413 0.6316133459467509 0.09526528566291334 0.41881676413387225
P 1.7878211729708864 3.2760042177928357 1.5648659083397807 -0.32498281160084674 -0.5666703654164628 0.9886210471936263
P 4.8267097861900865 1.1904956266670181 8.297790447225285 -0.5772975061130057 -0.7627012977352284 -0.15913123107893884
P 8.617837538446386 1.4653642744269588 12.579878334614655 -0.8307843665563951 0.9187816578029855 0.11786091157524217
P 6.625073866198341 7.821439768986854 1.2348965080514982 -0.9502421903051119 -0.5031088386147335 0.9471766640059106
P 1.7943084178346709 3.1298461373582795 5.970490898689038 -0.4668382863184734 0.6035302145572896 0.3366895585148137
P 7.051299463353605 4.028887544781444 5.82549326387417 1.1519938271577386 -0.0866870570755991 -0.058467657218589625
P 2.4551363792457126 8.436820724072444 10.54619783976212 1.2973244049081594 -0.14455436170602848 -1.367963150271644
