# total energy = -340868.3466372221 ev
CRYSTAL
PRIMVEC
9.22713487096315 0.00000000000000 0.00000000000000

0.00000000000000 9.22713487096315 0.00000000000000

0.00000000000000 0.00000000000000 13.50484457673644

PRIMCOORD
 96 1
Ni 1.7213497009501986 7.831530764348368 9.130287835757105 -0.18087145096950785 0.1463137675992964 0.06309512868827198
Ni 3.23563326713428 2.6129123855739356 3.670603175459006 -0.7108215781468016 -0.3032976133179293 0.6393683073018214
Ni 3.6251936763714214 8.216671375958265 11.062857727614935 -0.9701445856559937 -0.9220014502918638 -0.5612250260311753
Ni 3.0766128239027277 4.210581570040687 10.4398664910014 -0.7471610360077842 0.5952463772819426 1.2436150883101613
Ni 6.197395942673127 8.723951572519773 2.7226986822930748 -0.5070894205290363 0.44318465145527547 -0.340225082471898
Ni 2.7682327477020956 5.833800691104176 2.361457272842516 -0.048963574382896315 -0.8222706726584291 0.27240452328349857
Ni 5.24221216276788 4.934238080503779 0.3858372602964467 0.5585816748710574 0.022651161740612602 0.7587867931721707
Ni 2.729091241366466 5.145281110420923 13.182970059459162 0.21023602017455403 0.010353832430498297 0.005698335936357928
Ni 8.869620351520384 1.9205635438983943 2.7482089422096507 -0.3217427073969943 -0.3064395013810206 -0.35571083681232285
Ni 8.700127110153296 1.5358842890345552 6.287801565203829 2.447374478075966 2.506117243332813 1.6263551613261344
Ni 3.222475372736683 4.0233814567598625 6.632337246879598 -0.5067875730179013 -0.4693433121285143 0.645375689838166
Ni 7.652349031314046 5.9502102252697355 1.1211393377435555 -2.018269187531892 -1.5979588695716287 0.6129275966117895
Ni 7.348517932629552 5.6121556831626 11.29518222151428 -1.8548303302165345 0.13042435006254957 -0.2629626611443084
Ni 4.460941421856964 5.814349890690337 7.038035915093877 1.1752052322771953 0.9148488984074825 -0.10739395060564731
Ni 2.5317505068072688 0.8892060743648684 8.420959220399617 0.10892787075167046 -0.11659978547463144 -0.4457752950005871
Ni 8.24730546389657 2.832859600690014 8.409074670621141 0.999765236735904 0.300189920926883 -0.3971796454800708
Ni 6.912637306088107 1.1401693808049893 7.4500828521339235 -1.6746281373999095 -1.0473671548845833 0.4477429602499193
Ni 5.725068133193035 6.253681465692303 3.275411445779471 1.7133918884316686 -1.58975550782523 -2.0728467656674563
Ni 1.3224883397125116 8.8102806468423 2.551658973113199 -0.43601024519402326 -0.24127232065506835 -1.21511620953952
Ni 8.465960880123685 3.193262263576239 0.656900957448858 -0.5333388411438686 -1.3696960738023507 0.6743489371420645
Ni 4.680464188766668 0.9151140237965472 5.319261507500178 0.9913399887866862 -1.1086162315030519 0.2942244473720675
Ni 4.232348381319742 7.225824719582671 13.251939202140989 -0.5944904729525246 1.6828556675160244 2.0829635423864836
Ni 9.195412031317275 0.47478315008261757 8.550579243631823 0.23460982103322822 -0.5321587047928383 -0.02383489763606863
Ni 4.962860653029268 2.3181238791121954 0.23922177725292412 -1.0922419039100866 -1.0673844785467748 0.43256342429600336
P 8.066721206354229 5.3317245986382105 3.6042536163813037 -0.3028060183934914 1.7789683887808978 -0.47708053287177193
P 5.74542319282915 7.4376797373728785 10.866699911752633 -1.922128698352877 -1.6984720338970425 -0.7234320678219606
P 8.703467332994762 6.934856246978299 13.130206533839402 0.9356977168320336 0.9519666291953862 -1.2582294957892268
P 8.59221576725014 7.082638039875858 8.718106182547208 0.5861148472943196 1.4239908305901734 -0.4829555035953102
P 1.234323065540672 2.671421648109114 1.360991328311596 1.022209424672033 -0.07025436544087256 -0.18769824408335414
P 6.853196102925889 1.6035284151416986 0.8693132941883045 0.7868179882777739 -0.22340855300077006 2.2606188004115393
P 0.9373477281026135 2.5853324792945394 4.926270449499343 0.669879331406485 2.0475949330792025 -0.602349306875311
P 5.9530152742857725 7.5457018058950895 7.045126045567309 -0.1393216525521794 0.21790639223561828 -1.4122997674054902
Ni 0.5514052784680654 5.052511495923417 0.4010158972417817 0.2920168981977874 1.4027265218947584 1.6051965249706484
Ni 8.25389363823029 8.598038089385403 1.0910911728727448 -0.48458892543367516 0.2642201877004934 -0.505651145420613
Ni 7.710719886825406 5.202295577098871 7.476282379029112 1.2018590874192978 -1.1380047119674983 0.6205313771009765
Ni 3.51865717657152 8.161733014637582 6.722968011502376 -0.9025482266632586 1.6040737242201148 2.177142536963754
Ni 1.0941721132229256 3.2313149679911692 7.17494814305429 -1.3002174101852382 0.4181583046142669 -0.009113275155177854
Ni 0.8580303536066901 6.011358448392372 7.171396618823129 -0.20739417985038475 1.504466616648738 -1.2622825828126778
Ni 7.288901413903833 7.386330731536534 4.649312458559285 0.6255409145004259 -0.2785049797542816 0.2917212213342395
Ni 4.411511660084222 5.689239168294107 11.707457991500373 1.692772412409104 -0.3180457181613813 -2.696367050193427
Ni 4.116963059130432 2.0165257470786275 10.092075476125437 -1.7608637087603867 0.34867809833525754 -0.0817651942939495
Ni 5.316619778772245 0.4930574907940072 11.44295201913644 1.2105717847019475 0.5421194155499761 -0.3274883516315199
Ni 2.7578153123760876 1.0329131644812364 1.360397100822672 0.6789581537793017 0.13295534401451942 0.2295390913785402
Ni 0.5012724090143305 1.0650051397370874 13.414686485167202 0.19027757477475618 0.3852489554807559 0.10167041785830877
Ni 2.3499390403204115 8.703771828447161 4.674094697530579 3.603219046438362 1.6659419224798213 0.6265361885341596
Ni 4.7955173340988155 2.3310326408669213 7.652885127852965 -0.8599653589957252 0.013275634062983589 -0.025108879252485786
Ni 7.488733474891747 1.0083782127258285 12.480772173968758 0.13683976667059014 -0.293215803601895 -0.4625358022883776
Ni 1.1743190071482628 7.085212410518866 4.2850196355902925 -2.1567254067599824 -3.0867983212060706 0.8128331813946129
Ni 0.39284157841511164 0.6179762887838759 4.492048861816724 0.2485164038119914 -1.6582008450818218 0.19591009047018518
Ni 0.882362308393832 3.467474259163755 12.35411037019228 3.452580940432099 -1.8948325816410851 1.573516163148232
Ni 5.081669242274334 4.47896201635802 9.162604953105033 -0.9461093990836608 -0.9485164658632569 0.12470030309457877
Ni 5.0210285115723625 3.233012760816666 5.435227216476029 0.8698527933127665 -0.3249419310605823 -0.759679480189769
Ni 0.3089217090205055 5.501439291243406 11.647901449151641 1.7993556941879978 0.7353815268743529 -0.7938890361919424
Ni 1.822820503678374 4.618328662207467 4.767804557076555 -0.07529475607825742 -0.28109022398295463 0.35555502796074895
Ni 6.3945613616688215 6.356314887420546 8.80182305497355 0.3537094901115779 1.2666753125637344 2.118522927548332
Ni 8.824951791366969 5.197165290082697 5.560376692838927 -0.20332592331828206 -0.8350056037265942 -1.8230998318824734
P 1.4179153690673165 9.19403718821402 6.555346033097303 -0.9097018069889042 -0.20153129331170452 1.833116592688527
P 4.885491126715205 3.95331059416845 3.1106923240206004 0.164042295227311 0.20627806396807052 -0.7631918642184018
P 8.1548126634467 8.86126979441672 3.245997185077745 2.34088298467993 0.05608347325712922 0.198223054874078
P 5.314912758811827 0.5505416186394434 8.894898087636946 -1.4201943396622185 -1.5026645304429926 -0.4832596650992903
P 5.8828798217499125 7.208920608407077 1.0982560431390382 -0.638657654388042 -0.007676799818967425 1.1282633163100182
P 4.016479559838823 0.40921512933273896 13.083520921992218 -0.586637295456693 -0.5504755008241552 -0.06435316946508916
P 3.0809680315855235 2.9614766343562904 12.24252016859605 0.6588914649364137 -0.097729945153322 0.2008715482405186
P 2.3089428798656253 6.396766646914982 10.824349207891418 -0.28875262562421883 -0.05632258585112881 -0.26344371454578497
Ni 4.816112299242881 7.576012944111153 5.019345482162741 0.9938864093576237 0.2709991582955397 -0.3645963122274108
Ni 2.0957222461070835 8.65465578926174 12.897923562047202 -0.4087904902461218 0.06667744672289162 -0.28505666482987035
Ni 0.433172462442081 5.271249956364822 9.275896638380727 -1.6846050461069633 -0.8695843701427283 1.1227351874029374
Ni 7.268804714045511 0.7111002252623554 4.967365340297786 -2.586766321744448 -0.8264952522627379 -1.645238885604515
Ni 4.123403599305414 5.3530300531712065 4.585705203980156 -1.0385847807062631 -0.6830603488731333 0.4469091514947142
Ni 8.271960368405953 2.9594374375387105 11.387149997987134 -2.6943947569584052 0.7217497950235311 -1.331392807346778
Ni 0.3627297463133449 6.5913484681327486 2.2558222641244132 -0.38047261713803504 0.7182628649161952 -0.5139594081759923
Ni 2.640095525051721 1.6476618014696847 6.021054321767543 -0.060769051658256634 0.6717210126009141 -0.014869975133296973
Ni 5.733363327487172 1.8214272063052763 3.3591679948859725 -0.4301244758372076 0.14224114019181958 -0.681634157949568
Ni 0.6338183567300434 4.3347418975400345 2.7785136214312702 -0.1100604416942169 -1.1744117898416226 -0.10531881324417346
Ni 3.394690618905517 3.521139275865316 1.4573752115577268 -1.0468994712195454 0.8133214338849413 -0.11021033700851988
Ni 5.477910097194407 3.1689210816541755 11.743501948642963 0.40463250221369024 1.4392999501434178 -0.8550185565134114
Ni 2.0343248903415767 0.7895899257558493 10.900327282259367 -1.0301983564147807 0.3703789803474589 0.3158242850300303
Ni 6.402884237367722 2.1035837650599256 9.721259991480668 1.7439067691910741 0.7844458885011717 0.7728211597780497
Ni 7.23287425066245 8.628662950188787 9.999716469131924 0.6270614649100104 0.6613157581071901 -0.8267909291262857
Ni 6.387807098906521 5.239047255489917 5.609642211610072 -0.09980791072827327 0.64506792878976 -0.9810638036716587
Ni 8.54992780790639 8.246705700126695 6.468252952003304 0.6681896024088879 -0.2859750628790817 0.9792794580777263
Ni 4.130969849940778 7.816951891172908 2.6406159354612746 -2.078919454224097 -0.9653561631284148 -1.4195057982356263
Ni 4.2869637929181845 7.298423817142486 8.892521177681251 -0.3336348308488899 1.198926230043219 0.6713219773902827
Ni 2.5089502564170423 5.592723337018604 8.566892818172464 2.6849163851543243 -0.4865450207187814 0.4596697935944922
Ni 0.19372738852406446 7.887760924558016 11.161768000402484 0.2141546385026699 0.5253555658280759 0.1177495828083585
Ni 6.631218918127151 8.02798569395513 12.678698831595451 1.0181630225168015 -0.7157364989499156 0.7082376194697093
Ni 7.1044971225041245 3.657359468706642 2.773381488988112 -0.33581744032250554 0.5624822954770442 -0.7973949924626719
Ni 1.019035553559787 2.9423672379345343 10.145271754373004 -0.11398883021434562 -0.9314379131144153 -1.719483860262019
P 2.136930630665057 7.258341143044897 0.9129954736186451 0.04623589103908811 -0.9519874551309926 1.0341375435681868
P 8.777773450514996 0.8496262791204827 10.673850946473063 1.4266544934652656 0.8046881836899754 0.12492578884182357
P 7.175739831230526 4.248855725693726 9.52396723802306 0.010245074766775905 0.3410992575467351 0.603060988230355
P 2.613207653891413 6.458902173474184 5.888517601186751 -0.29608232651641264 -1.2183876812019403 -0.44786483053976417
P 7.108474017655151 4.143131213766889 12.959045949192058 -1.6440214682576462 0.891578100805 -0.5564551154463578
P 2.640150887861248 3.1747987665989648 8.631067541549244 1.3038478078489737 -0.4087750636271541 -0.6532779754043782
P 7.1252950846164556 3.192754771155574 6.113954038867438 -0.02163660443316919 -0.5311757720542787 1.1628132863707459
P 3.792703083730456 0.4579510105594078 3.389661830373476 0.5962653054647602 1.6602757253329794 -0.21674631048924606
