# total energy = -340868.45574017725 ev
CRYSTAL
PRIMVEC
9.25820437815644 0.00000000000000 0.00000000000000
0.00000000000000 9.25820437815644 0.00000000000000
0.00000000000000 0.00000000000000 13.55031794107270
PRIMCOORD
 96 1
Ni 4.965508370112019 6.727270621322745 4.465236660711217 -2.002593171557532 0.24884473368568755 -0.7855674037001246
Ni 1.07778461896688 1.6952327936549685 2.3305057894719328 1.817615154618818 -1.6406983174216843 2.281007134259904
Ni 6.372236995056643 4.9192080893944645 3.2629440043114326 -0.3898257762181609 0.5953577060488263 0.06703174473851681
Ni 1.3223030580853217 1.9746454055437486 7.352416067234303 0.2531955544552156 0.42363449723748975 -0.12386109502273508
Ni 0.6425193924811575 0.9375968863883541 9.620536371485848 -0.9650062359881638 -1.4436703112969718 -0.8929670107327267
Ni 0.2386987317681008 7.162248843468887 12.593963359514351 -0.5635019949908101 0.8779844212809653 -0.10897903570458006
Ni 7.929096664215598 3.336518029673227 2.140895909617573 -1.1114642424748085 0.24806106144212764 0.19595585610645608
Ni 3.544077716417248 1.5092632398110348 11.548041777163654 0.39974560643503415 -0.3723507593618491 0.802749829016682
Ni 3.6574073977337007 1.0479454258549668 3.693505137089379 -1.0899878177685873 0.024518553966654547 -0.4302568876500138
Ni 2.314477060016564 7.969814247618078 9.786012889663255 -0.3492622529735017 0.8338005276748995 -0.41923585394916185
Ni 5.633885927768967 1.7563554597812019 9.83391298811886 -1.2917839347059044 0.5179772710861337 -1.4059933655714885
Ni 4.05882462855788 6.522858724109611 10.570169849548044 1.0623415168062285 0.4591092931053319 -0.9083936297004419
Ni 2.999769357299781 3.3306298116095663 1.4528650354424832 -2.4805332242161215 1.4201637435345993 1.4711451196784728
Ni 3.87669722958253 5.293406198980969 6.235286856592681 -0.37850752299186424 -1.2453924919255583 -1.1444615233364355
Ni 8.565616740179065 1.3116838975208276 11.864170576468888 -0.10352444034791203 -0.25137058543133484 0.8627177249298821
Ni 7.335127296146129 7.935466308913394 11.696038805240132 0.15474235798262384 0.38898194016062687 1.4446879539282085
Ni 5.599482439837267 2.40143011670508 2.911692354584648 -0.22884257953214782 0.09255585715155026 -0.0814126960505372
Ni 2.4357873136142674 3.187016543365075 3.9735898946250483 -1.4722676633186904 1.8131049254532903 -2.6654212525441903
Ni 0.5655800097826645 6.987259520165049 7.686689095723752 -1.3406449220726653 0.7425093961683856 -1.1470138574446438
Ni 5.5652363413821115 2.702886513514575 5.921746651266378 1.0108351213968203 2.1243768152259475 -0.8319305643456962
Ni 5.545997792425687 4.180134882155584 9.091654032710629 0.6971106563186124 0.40833540498657417 0.9357277987390207
Ni 0.07983349742600895 4.771391596305787 9.201872031493755 -0.5808787957063608 1.468106589962465 0.39634815071771096
Ni -0.08119908259014398 4.675050720251625 3.992858995656331 1.403249227167448 -0.04555866246640541 -0.16666122090739685
Ni 8.810449958250594 5.026260708058147 6.218091593369982 -0.3990591218909708 -1.1432582470569537 1.6516494171165488
P 1.0578609628772626 4.69819623150815 2.141492137987541 0.8228031481231314 -0.4659743956562814 -0.8447950790131902
P 7.0907199554817195 6.979149333020762 4.092954999456754 1.2025417153086193 0.46848944876865123 -0.4368088298359187
P 7.6710427301143405 7.939808406825119 7.549613971499004 0.047211110468163855 -1.3871867743879462 -0.028480109717563856
P 7.609605285035018 0.912744162221547 9.977085565829025 0.7600602605679555 -0.23897786819393677 0.025771195426833034
P 1.531371832163268 5.73256912956229 5.954470700901305 0.29838217829418284 0.8198805751596976 -0.584738021551451
P 1.1326765134628565 8.540934366975105 3.2030786023566535 -1.150394600991419 2.3249645136774606 -0.40192487347454003
P 6.880456873022935 4.085682679819953 7.232346413039951 0.4227490093087429 -0.07893312416179309 0.8921195751307669
P 3.235242530619172 8.222387324653791 4.47365144278364 0.8603091154883894 0.007740820287683444 -0.41161433284816207
Ni 5.649106415971258 6.842377877903699 6.804021136649384 -1.4227965531717561 3.73880771431067 4.086912456640961
Ni 5.121703538275558 8.275316479795213 12.553136529298738 -1.1412476443848278 -1.015041446168684 -0.1695719667962886
Ni 1.3138410591699359 2.5309894305146092 11.015880182353612 0.2777488183145475 1.4345380099784004 1.8646776553242599
Ni 3.2272156673154093 2.4246219189841187 5.708017297041818 0.661729448605841 -0.9439450444424905 2.9193495714003723
Ni 1.8356982723685729 5.526703694242247 13.583651533536642 0.8077706792700411 -1.3467286663729 1.3431610036262995
Ni 3.411879814324475 5.811050929130919 2.270193216239678 -0.9371958986441149 -1.11406285643992 0.75337487812798
Ni 3.319871777977533 3.9162297628086757 10.54035843104964 0.563699455713597 -0.482823091782504 -0.4488775880749947
Ni 7.181728105742379 3.359709831952266 13.036083360613805 -0.8536867250758652 0.3404194578708911 0.4899566175034917
Ni 6.855561561115416 8.667318116640239 5.57317802920445 3.908559144107617 -1.897398028375416 0.17193841014593614
Ni 5.512473833921735 8.903513429910834 3.5537877212995856 0.966321869475794 0.5507488090902 -0.14017654435330698
Ni 1.8182465568811523 0.2877755480159879 5.55796124428396 1.1400042588960302 -0.3451636574240959 -0.8697121539698442
Ni 6.094731573295401 1.1569607838732034 11.993481770397747 0.16951771651958544 0.14384165190972 1.4787432437407049
Ni 3.6966251520067583 3.6536300502966363 7.929320712764562 -1.3061936823733309 -1.6131029243019186 0.25844857532403875
Ni 3.0913885490576125 1.1257884093129145 9.278729016172177 0.1928463639431969 0.4996023681233719 -1.3031117010138977
Ni 7.509005634909655 3.268581325033072 4.3688800457094 -0.11491519868335692 -1.6684204659273008 1.7764119409076307
Ni 6.105841418698534 7.1734234963035375 2.0373447438967767 0.455220499573887 -0.7597239602744593 -0.5463679064136848
Ni 5.623238992590965 0.057894330216173226 1.088269535566086 0.23432879945769963 1.6971479157689804 -0.3737005885215241
Ni 1.4374843803022967 6.550633337617442 3.600305569822951 1.4571524049438067 -1.0996561940962868 0.7107074211664405
Ni 8.115001410628013 2.239244890228352 6.729088006866607 -0.22260251215970694 1.291085365976983 -2.5121894176688215
Ni 2.921120910050106 7.385399346595304 6.593883039951387 -0.9451174674840369 0.20404943174786794 -1.4063654041989264
Ni 1.9887178763877162 1.1101790765215136 13.646932287132435 0.8924574180861596 0.7161064806948247 -0.8877188749599098
Ni 0.098716531329533 2.6022868633892116 0.6992258950596457 0.03796105262480559 0.760449268476258 -3.6461626398794236
Ni 6.649723900408881 0.6115386627540725 7.824265088812091 -0.3741276487566137 0.8945382118745884 -0.5503166066487878
Ni 4.629065218487159 2.6904990358900824 0.15682842935151756 1.9106350958909801 -0.9879713294247694 -2.100355769721002
P 4.351504247498901 4.524095695836563 4.079987032409947 -0.14718357179875943 -0.3149243989235802 -0.13056216119199449
P 1.501273409325282 3.3287041050730237 9.021137992296048 1.8110804388240938 -0.6122663088787068 -0.22275677834938412
P 7.166998302378726 1.6127236751277052 0.5435612220141064 0.5507770912249741 -1.3598965712134257 0.8712291048350027
P 0.5153033302312391 2.9523766084509186 5.362727931014714 0.4972495516204792 -0.5575599184747624 -0.24658601955849793
P 4.325766438981644 6.5951190102524855 0.3343665363549242 0.11612490272074195 1.7811543406886228 1.3395573454354412
P 4.583227847994735 1.6916683849214635 7.381793275941536 -1.2990187618914468 -1.7569085807673808 2.735033870636006
P 6.648150005643437 1.3184979360347489 4.725050579488422 0.3343873927441983 -0.35838504121037634 -1.7953491441317662
P 1.2144634920389163 0.18646023868257222 11.787001590298729 0.6105338995686325 -1.0863206533296452 -0.4179441317209318
Ni 9.043886326579411 1.033354495558853 4.26474561310494 1.0310283085152436 0.5369802945511978 3.111933939931434
Ni 9.121960765149925 7.466797480582253 5.306697277364917 -0.43040524030242006 -0.39482631475654584 -0.9356668635940982
Ni 9.105212673204703 0.24119659534290508 6.707759881153944 -1.2578150339596272 -1.801397664318691 0.8715630911356537
Ni 6.599859210957821 8.250023065094084 9.550684144334102 -0.7338784599662651 -0.5376027586265452 -0.39007260212164435
Ni 1.7392925888828912 7.628288341721286 1.1587716886739143 -1.1029016976167778 -0.826855206705318 0.3843845505979316
Ni 9.16649272880748 4.7672624370976235 12.734778798358155 -0.9942023979361458 -0.39780030978320524 -0.5971597922545716
Ni 1.7231833130483494 5.89011599558321 10.904455839523797 -1.387974046175932 -1.131590066690406 -0.5244312542415935
Ni 5.18165041242996 4.698048100236108 1.291667659386184 -0.19088152690734222 -0.25438160434351675 -0.6921563976371305
Ni 8.966691417436646 7.756171920515842 9.635143040729615 -0.3039324186884507 -0.21455598770614664 1.2313966918670987
Ni 6.418833538318281 5.425196740075626 11.948250812300243 -1.178633541232454 0.4002066052318527 0.5748868397889841
Ni 8.636793816395134 6.259620195486892 2.3967528717903614 0.7838457930233275 1.0367289584444466 1.6877952709094866
Ni 2.5638838311123835 7.426950168403018 12.31866231624518 1.0836945285607078 1.821704237086527 0.7053728963274045
Ni 3.988999250199193 5.183974221760114 12.4751407854665 -0.11057723342963537 -1.9995281594789631 -0.3681326075154434
Ni 8.017688423101077 3.614902980862217 10.885268210692136 -0.2546238022613099 0.8626354496287207 0.7938700100285488
Ni 7.336386411958484 5.305127085881273 0.9681563678105704 -0.12820240271056632 -0.6340970316005531 -2.6179486608845237
Ni 4.905089327527984 0.10479083930369563 5.874618687066291 -3.441076282226609 1.2757101690724932 -0.008026212738586178
Ni 8.061035336582298 0.6838776436352183 2.4534612260097504 -2.4975385005248665 -0.041534371798360725 -2.4618919549658504
Ni 2.107028471726574 5.478672129282704 8.148158744233664 1.3716115456575089 -1.0826414047058452 0.7858988188976143
Ni 7.232638972302232 5.828845198184935 8.976205148383528 0.15470224877330777 0.8158825097438981 -0.6487461489722957
Ni 4.190652202470549 8.541647248721805 7.997506463105837 1.27330027407942 0.818775515020977 2.3881339472470935
Ni 7.89051772605322 2.815956965104955 8.84395354870464 -0.3145546742889873 -0.40789908878010395 0.006280690802389183
Ni 9.404298969661529 9.14780041391671 0.7026338401370568 -1.682463317173612 0.21917086077033865 -0.7344818978782189
Ni 3.7182615759293585 8.073820917000402 1.990365836789181 1.0545387329323581 1.7497475442425672 0.6261399815370056
Ni 6.5310429768899185 5.486124983907306 5.659304328230884 1.945950226252507 -4.058010943115264 -2.5320290781025685
P 5.5840212383179075 3.4901857080075533 11.3770769953571 -0.5706267789610495 -0.5657038877381353 0.012018878837747042
P 4.716768189740386 8.865008557384478 10.46516792318169 -1.4573395812539482 0.5024832892155926 0.1841310955573861
P 3.6116533510818005 1.2757528058461969 1.4875536760728636 1.2704121538983475 -1.5535723730364535 1.3851232069906982
P 8.138470959042131 6.029766752300585 11.015012688591717 2.4452744010138274 -0.09528636870883589 -0.8271184876690335
P 4.228370127614183 6.0252117156853 8.411088974646445 0.5336923678285453 0.027825763963016597 -0.2270780314325573
P 2.4724405452401013 3.3075768823980667 12.826500756185965 0.18334022422497456 0.6246538839097823 -0.7800768128991985
P 1.67438331711509 8.844066498799572 7.737909186313993 0.8776113542122628 1.1626654479389718 1.1761372571731616
P 7.940280575254751 7.402721447219688 0.7832413234594838 -0.1182082676123319 1.4147965656854151 -1.8181221761622237
