# total energy = -340857.7177399335 ev
CRYSTAL
PRIMVEC
9.35474330814922 0.00000000000000 0.00000000000000
0.00000000000000 9.35474330814922 0.00000000000000
0.00000000000000 0.00000000000000 13.69161242342316
PRIMCOORD
 96 1
Ni 5.864769254110967 4.873100974844476 5.645243362651998 -0.21515942561810042 0.9455967211133005 0.13768617383128545
Ni 4.211580298206802 8.4565196112321 3.672487954332477 0.6356535774543955 -1.7536846745134445 -0.08612424259359361
Ni 9.302263248840228 4.320675315260448 1.0475834512724123 -0.05283205619936708 -0.6768917581685763 -0.9403843236744256
Ni 6.102922310546544 5.252679041382696 10.35080462583261 -1.0484598737281299 2.927465001418655 -2.362364551592473
Ni 8.504069771726327 9.194075641892413 3.49946636306019 -1.2995882612416714 -0.2945350366339508 0.35862286825279527
Ni 3.6368622851980748 -0.2959943700991347 5.903344473826489 0.15335319094458105 1.9817016728205032 -0.01499930162230965
Ni 6.592540223217679 7.842736189955834 8.805842566798368 0.13216138735831431 -1.3448713014491869 -1.6980056357835853
Ni 0.20702140601088018 0.11616159018709828 10.059528788283798 2.140324082583824 -0.4326608691058161 -0.46647061856640953
Ni 4.329814899522273 2.5708986341737328 8.556340335719549 0.1537414275219352 -0.8240228794628452 0.10379106374573738
Ni 1.8593581447950327 7.763501513704387 6.3136678398886765 -0.5156460518497958 -0.5208445653315997 -0.2624402129819351
Ni 2.096650564841575 7.761303149015002 9.925748474454199 -1.1860069508783897 0.6520307332608384 1.6000738590321022
Ni 8.602603283527566 3.5468415898536025 7.536836082113765 0.9687587610520606 -0.8989857061229808 -1.2996918766990713
Ni 7.661179330842718 1.054055062728227 5.226937594081503 1.3830436987538504 -1.7673518875878915 1.1276953596216903
Ni 2.9506076671189803 5.734008651437682 6.1688377032033275 1.3850213913055114 0.8122091746573689 1.2338374400981074
Ni 6.783002798008644 1.5569005825091065 3.124371089539643 -1.3011214100567463 0.48871246068374535 0.05578393973883941
Ni 7.912868700918893 1.262039071830757 10.878834985684817 -1.6506466868836476 0.6744664365565353 1.1584120719792566
Ni 8.383861319562088 2.56898091178512 12.95908387899491 -0.1799121723800321 0.033675537875574264 0.01734543325698303
Ni 1.1279294710349188 5.192200625566214 11.414519396553429 0.21812956399001784 -0.1162855966683223 0.17323167503606293
Ni 6.090115666887958 4.379975033413685 7.898704683998902 0.7625943398437189 -2.152243716839545 0.25727949471660205
Ni 2.0467055900474223 3.3569215901774654 6.612213248501834 -0.0011999338453721272 6.171299618847849 -0.8275059529154395
Ni 0.31788914693107245 7.439780619763261 4.228819219268923 0.3996191081594988 -0.5902718068854866 1.7116939319039552
Ni 0.6128881723368005 5.555903692624068 6.196084328710998 -0.01916114630948313 0.3067068961097944 1.6800493084154808
Ni 7.070614382583702 5.515369589649153 0.41386881379528134 0.9514071571474905 -0.5469420337495999 1.4412118224541501
Ni 3.365780532138518 4.145002589720196 2.6298578396687 -0.18483583493389458 -2.1812228776807143 -2.875415074800951
P 5.94507972584871 -0.17092706423418777 4.770636599883749 0.1298679633384473 -0.3091725840414676 0.5512946542913408
P 8.991526738681513 5.530767497218207 12.937766289828227 0.8738166630565208 0.6443986706368773 0.4555118055620607
P 5.6383283363609635 4.072334943306826 1.3449417429533015 -0.12118329108025581 0.12728400466135498 0.7086945045014698
P 0.3753787222443274 3.5919220981010316 3.2470342263613046 -0.954093445730402 -0.12023558245500582 -1.2250717780903353
P 5.169375051770047 6.177432841401655 8.086882830461578 -0.3792271747667082 1.0428546117262105 -0.1927409487135842
P 3.7194646690587922 3.741981536324109 10.297064431657677 0.2933099059775981 -0.25185215305344366 0.4547147635820621
P 3.723646239340303 4.323706252108791 4.892944256457766 1.8431616356293548 -1.9932703514947094 1.28094236400571
P 5.132741876775872 0.23749635345177036 1.925739403671098 2.5671711732213396 -0.6054757683194347 -2.0659628940634294
Ni 2.1149952165687402 8.534425913926556 2.445705039273438 -1.1014148286586063 1.1624852136073656 -0.17837490979989926
Ni 2.6159136592176484 1.7987581173148823 10.301980349292876 -0.8303413654817055 -0.7410981176431559 -0.45277898001192984
Ni 4.83891874261038 8.124819121205674 10.331293437608569 -0.9092660050030663 -1.3628147733014853 -0.8683217013802207
Ni 7.617081070647993 7.516545643767911 5.8919251386080544 0.3595716053193098 -0.368489733744546 -0.06898089804508764
Ni 2.3828870021428483 1.500407287363594 7.014212763923108 0.2995170632295745 -4.834044182072707 1.4971808816206023
Ni 3.2145143320221186 5.858959958484975 9.802482892160214 1.303046394993601 -1.8866099366209765 -0.8085378964533688
Ni 5.225101257960115 3.408082681608299 3.7655218125129095 1.8392448170734519 -2.5993577852562137 -0.4105858915836478
Ni 5.953087386164086 0.12068367312687982 7.148883649320491 -0.7824941640914395 0.7490204578140262 -1.2081924858364932
Ni 1.522026099266439 2.3150183390726893 13.034483110469132 -0.8620181277596961 0.29044338306308043 -1.8040050200345514
Ni 8.805133477251749 6.508366242472635 10.055709246570284 0.6878827099624412 -1.556314968778597 -0.38733309170329416
Ni 4.366850328480889 1.8801069655654825 11.9971243936882 0.5460850850659434 0.1775539565605007 0.45127796998637115
Ni 4.97679830497993 5.580834083676029 3.521798006406997 -1.1838909329766514 -0.12097940259956583 -1.3277845211702293
Ni 9.191063414530788 7.556424914707689 0.7393933022560387 0.4419692909909356 -1.7922141980472102 -0.7508127738277586
Ni 1.8691899800654308 4.771648783115203 4.222999633425236 -2.3829354337652897 1.2582297528995428 0.6269411372820622
Ni 3.370710481888756 4.044532646043626 12.550403205866576 0.37786706119438795 0.021026738763312174 -1.6165795699966097
Ni 4.302648724807491 8.790034921470186 12.373438590268437 0.7786074274425235 -1.1467996845513089 0.5563288742811388
Ni 5.198206370802746 7.38838565974845 5.847181401121552 -1.0875100456520561 -1.3273813721945398 2.3453399920100186
Ni 0.4393071674116404 2.5700379977846968 5.19963671106235 -0.07674100160648073 -0.6480321536244066 -0.6872029102865971
Ni 2.938287470115066 0.5028530035755667 -0.03926372882675028 -0.7974309879069299 0.09926257974776453 1.7402766286376545
Ni 5.705046365997954 7.563730969271133 1.3874665353150286 0.4424045787561413 1.0034246878653623 1.7975654350567947
Ni 3.1261213620221273 6.360944841876819 2.3477833276878832 0.18837701531793366 0.3269414779891143 -1.239401050228814
Ni 7.494056840732671 4.290880457661763 2.8755807544304495 0.06895647256505544 0.7584355804803389 -0.6800259329221837
Ni 5.87801557070743 4.4030906042539835 12.427616586432576 -1.0231540479734895 -0.5881467901226839 1.812884581912368
Ni 6.2779308493083015 7.087958076771445 3.94084279970286 4.07145832686942 1.9174747445206333 -1.4058265009763207
P 1.5449639299829143 0.353204238585953 11.750867323080648 0.9464295014272411 1.128262802089386 1.2191569552677972
P 6.883874995649654 2.341118073044535 6.660572594296623 -1.9850878156839167 -0.3821515475023547 3.5220794015435537
P 7.735708571184547 6.848486001522237 2.131167696887926 -0.529364686987469 -0.7239797127953145 1.2834982976583444
P 8.166288698516496 5.322727359655523 5.2607007338131115 -1.4477072003705067 1.2766095409583111 -0.3987552174973068
P 1.2312900304094454 6.176385110145437 8.613612880986873 -0.23438819194072535 0.826693484316473 -0.6339111408419922
P 0.6272271229576055 1.9845059014528676 8.794245491456111 0.15277032185791753 -0.3309634546643139 -1.2318666895249817
P 0.17946139660068075 -0.017513015042542456 1.7606590540363378 1.1318212088646054 1.7801346411748569 -0.9501393461786604
P 2.5101302213131182 7.0629060740558165 4.116534234729829 -1.2492830852292163 0.6583605321336081 3.2138182735727616
Ni 7.8605476213115315 0.8393431222018433 8.371517735699776 1.5777224879200955 0.9465431441869698 -0.8944217409013822
Ni 6.514007152718162 0.2518147236371854 12.669191607988907 -0.8619852176392317 2.2543717910605627 -1.6366940813582973
Ni 7.349367025197708 9.706013972218324 1.1937690902704927 -0.8381567477610662 -3.1513924030373723 -0.05369131887586883
Ni 8.931618962209933 8.009942872756115 7.88787469761209 0.26844168198100865 -1.0786276555607617 0.9937270009616241
Ni 2.308282923854148 5.278601035230721 0.3363825390776469 -2.518188058454418 0.17375438030875237 1.056706430007638
Ni 0.7677484648517604 7.778983613963673 12.137586800699193 0.5836931252267045 -2.4125463146531874 -0.9653934441242534
Ni 4.3402922120844485 2.263875957128573 6.081088339546442 1.0841465284964618 0.824859773541844 -1.2183234036229083
Ni 8.729986823848222 2.0085195276556385 1.6406657609693585 -1.0360627856153577 0.9782571874607993 0.6592390780838194
Ni 8.777452791652218 -0.10064300642871268 12.925950313491366 -0.3285473890236535 2.8973905506307776 0.029933297224322645
Ni 6.266677093047322 3.069964837637542 10.531698233641567 -0.9072024376058182 -2.5515920878361604 -0.7240491325806692
Ni 0.344139492271 2.9490828439514494 10.736757014495712 0.2875874016715241 -1.5770609430766969 0.8719649545597628
Ni 6.715676710053311 7.4890614077789195 13.03430537034531 0.6608943542990553 -0.3120185381306949 -1.1391195422982316
Ni 1.6397836086705968 9.127348257512063 8.23156142030451 0.5167254009569037 1.1200686963143676 -0.340399146155917
Ni 4.501437021188041 5.920832231061961 0.4794689516008628 0.7634224921719691 -0.9907861731657451 -1.9020782074599045
Ni 2.835572388032316 6.705573587225499 11.971137852110997 1.87637154672242 0.08644768737128337 1.6176609759862461
Ni 8.085547908584237 4.364361966747373 11.389820067662438 -0.061908307469022414 0.5831246543177441 1.0791251640224706
Ni 6.223355276551402 2.1458471601670017 0.4425036832174396 -1.0846859459396998 1.1940383058232984 0.03024542914810275
Ni 3.674150292227386 7.731966673840913 8.100725044210016 -0.26206071815532933 -2.9130657952741896 -1.9804274340937698
Ni 7.5194081952357905 3.330653470825155 5.023685214169998 0.5229760098523057 0.5566572041548348 -1.634194197754579
Ni 5.984079650912733 0.6652401225972462 9.548434255808878 -1.1228418881841307 1.2244233458730591 1.4368476319481835
Ni 0.6212092165547064 5.9864838199560175 2.56504162935661 -0.34748999156442734 -0.6605562542333463 -1.052995042594322
Ni 3.801496413574606 1.2144421376197339 2.992548723495101 -2.687652553138565 3.237872743418804 0.8173012444682957
Ni 1.4848784133875135 4.107649099487371 9.100691916310351 0.8485540318349901 -0.392277323082447 -0.9550162146549875
Ni 1.5252347762386047 2.426339785045797 1.6708694208528352 1.6773414225660144 -0.017565519687589102 1.4342695868083621
P 5.146418511566853 6.556365430648099 11.841410013104555 -0.5642740972701443 -0.3644253338671853 1.1213958997662237
P 2.357414035976061 1.414063006159242 4.72848038441037 0.8341401704025054 -0.19055602524712342 1.139593910831489
P 2.620329098083136 7.523748796154405 0.590409659519256 0.22223073064258503 0.03761781035277392 -2.151387282376521
P 7.816252911506266 4.162505314545044 9.326014006754608 -0.4049703451690832 0.7876618243353081 0.5656771482652582
P 3.3288105863834154 2.6938293166554645 0.590184210204302 0.889372608513249 -0.005794752304906149 -0.474627443345589
P 3.991725119781593 0.1695565943320819 8.793671110213863 -0.12109921600688177 4.128201030977103 0.6989947607152026
P 9.427990999586326 8.823422000518761 5.991682250840662 -1.14649012373069 1.2706083290695536 -0.9105441003845415
P 7.855748637968321 8.280472695957485 10.39300200217677 -1.3550477277615565 1.863805022911319 1.3330532257683365
