# total energy = -340890.1124280632 ev
CRYSTAL
PRIMVEC
9.09850291207084 0.00000000000000 0.00000000000000
0.00000000000000 9.09850291207084 0.00000000000000
0.00000000000000 0.00000000000000 13.31657870258658
PRIMCOORD
 96 1
Ni 6.468180412495725 2.0397933997988713 11.18577972208685 0.030202748835625407 0.8734464242012958 0.6196872839331262
Ni 4.91921485847744 0.5065546083103719 6.05223870595589 -0.014892086620484031 -0.5206866995974968 -0.043081404570506444
Ni 3.0274359063699383 1.4471169108256858 4.700552354268126 -0.24545473416753213 0.8733024424242637 -0.1935225640746151
Ni 3.9322820351446284 4.579440360408441 5.009710389558575 -1.1267605065122466 -0.05624416720470958 -0.28795429809263956
Ni 3.8474839866762514 2.5739028246099385 2.326419902125041 -0.7566957149710969 1.205238288304176 0.6116433305827272
Ni 5.381573488200351 4.356445149044551 2.9968030662858895 0.33788435015386326 -0.36098519783738475 -0.8444916888401586
Ni 5.2494268298361115 4.688676988081331 11.69138353682802 -0.05500540970160204 0.05799200313375174 -0.3541128961975837
Ni 5.464215191444801 8.062420117713433 12.351739240772455 -0.1629709165400032 0.14044985261935164 -0.12217470845924765
Ni 2.008658322346212 6.228480349523686 0.5269980348236333 0.17371992752639115 0.6128052121013123 -1.6848253896478853
Ni 2.621287828518019 1.7969907472852327 0.161531183829204 1.1703867278426294 -0.31410935922145256 0.15346631948367764
Ni 8.226011202634187 8.996863676924564 7.001936815388275 -0.3297882034092901 -0.08402930773777786 -1.2034701406601598
Ni 8.560899804562895 2.51603634518302 1.052794157393761 0.43583412462747523 -0.3709664774198127 1.0538352791074301
Ni 6.936534955731581 0.9668160330792089 4.599839204256735 1.0445068026176525 -0.9969385659203862 0.7495827580753994
Ni 0.784852340940409 7.31949094929746 2.3168182518515774 0.25941119634762416 1.6049869800630037 -1.0210028059584417
Ni 7.817643090036958 3.659900149200658 3.75820492545351 -0.1843036165795084 1.051945261173569 -0.6321044266505566
Ni 7.6309691028668185 4.053446800322029 12.665518405764306 -0.589008881012663 -0.1493307000487493 -0.7526128031509748
Ni 8.446586212185567 7.338652396730336 9.045765401291838 -1.5150893864699067 0.7859486982989433 0.1489684316133241
Ni 6.824978209779782 0.6904899460610922 0.31040453020892234 0.2353379574485044 0.10681519528404183 -0.5140596811992824
Ni 1.9292010951708538 6.729125480100129 8.981459911253218 0.146578848335225 -0.38475221834999546 0.5391153386163297
Ni 0.06652370508331973 4.9578289054409375 1.2926234191091739 -0.027134394322946818 0.13159960131757337 0.22204381144275956
Ni 6.846468873994621 1.9918988797197366 7.044097458842435 -0.20297908150182462 1.2164110170915439 -2.2574612286191638
Ni 4.009755788654095 4.7175283412672995 0.821010701929484 -1.191908146854173 -0.34072259093360674 -0.7588646975979576
Ni 6.303233650619843 5.890389074519778 4.610079569444627 0.5882581188895676 -0.4812092103281647 1.596716255413779
Ni 5.633838583890719 3.122078535143335 8.842208231853682 0.00297296658539488 -0.2291418559401215 0.9186327909299469
P 0.3540027371457002 5.6463672225968295 12.343722549731094 -0.2571640521846603 0.6623807090365947 -0.20584123354096806
P 4.060425352164867 6.40641977376146 12.572528065145617 -0.17122698590120836 -0.8102245401271724 -0.4120344511047162
P 2.4843371605409788 8.691345042855934 1.0856379337200643 -0.9287372263538006 0.39406244000732776 1.0897065390827427
P 6.665135708117502 8.014443711106807 5.718844988079045 -0.5930905072812043 -0.0303762982990122 -0.3154321917979342
P 4.651373125557689 1.1664553871020773 12.4561145382633 0.193392466254654 0.3667912629962006 1.4898864048417182
P 3.8179229502520284 6.265320188391547 7.724082273276746 0.6418612489270042 -0.6158049181595846 1.03889511285783
P 4.989373415531052 1.126804110790362 3.605144447968089 -0.9462364115798284 0.5519281741102817 1.9193611629100686
P 0.37783808559769677 5.6774022165158895 3.4571036146178615 -0.32023784071669364 -1.693496177949006 0.4272970336907415
Ni 0.902777129180086 9.036860696352353 4.148073961640234 -1.0728542434120945 1.1040458385235503 0.02492684514866675
Ni 1.9214946630836525 6.664544305418956 4.629069055169772 0.5918545779915743 0.029269695498394754 0.035274764041894086
Ni 6.1223099173801785 5.785001113638961 9.058949132217876 -0.33264701301432387 -0.41527738352204613 0.36856275307432657
Ni 8.744198247099797 2.5060552873321824 10.067893054140248 0.2073353015879913 0.6142766544405163 0.7284621740467003
Ni 2.1137005401109557 5.315800409619031 6.600042287714356 1.428039032517618 0.14638678692907692 1.8869295247439246
Ni 0.5549895794709468 0.24891775641659977 9.002340065913097 0.1631200405233578 0.42727029421786417 0.2267152487764999
Ni 1.6940775792352525 1.6217626769577136 11.362876624941773 -0.9463809075774926 -1.57696709781131 -1.2138088035820063
Ni 4.164903462740229 7.164097615628854 1.3127938905307988 0.2214444872958638 0.7540726755259529 0.7934774025758206
Ni 5.576800068241764 7.837805372805834 7.690097544667403 1.3634920018741679 0.28634015952798425 1.084016944897133
Ni 5.506605117175934 2.813220750453686 5.129453058708551 0.37421609470536193 0.12511090826943616 -1.448113691780306
Ni 1.0343633197561652 7.659956933598606 7.0700782343146935 -0.35995649946255426 -0.11681550102986335 -1.1635234250638928
Ni 5.4233629127298855 4.595235361711135 6.928589233014046 0.10705790742246724 0.7846670033730423 0.21545690225386122
Ni 0.9357173496387677 7.565650949438227 11.198350213907013 -1.6425885924658612 -0.775823179829167 -0.2688173201528725
Ni 4.665403017267801 0.5366051441989295 10.490135474045356 -0.23258739128656072 -1.2975594037371008 -1.396849237178375
Ni 8.506854696418888 7.304906048901023 4.662653449644716 -0.4907042943027936 0.3599847815973284 0.6709319410407155
Ni 7.394071378835581 6.171068795249496 6.849901739197102 -0.18127717104835875 0.4663659746677452 -0.189995267647647
Ni 2.708478783289742 5.144839537224095 2.705942120638134 -0.5723494180791111 0.44557680583653586 0.7695993104066424
Ni 2.6575635601964973 5.544409397367577 11.188203563300581 -0.9482680972978765 -0.376413616577313 0.31948322193885625
Ni 1.277912049520277 3.345401292617189 3.6930205200198194 0.09171947729318398 0.690559742573972 0.1294946391594286
Ni 1.5876068964909447 1.4367992083618295 2.2607560055803755 -0.3743158535080198 -0.7778988314112731 0.10092351238995521
Ni 1.4622022288901244 3.524241468657363 8.299997499922847 -0.8890939009305656 0.8789544985037184 -0.520894958953561
Ni 3.9791393258755448 2.674013653719118 6.844854799552745 -0.6660391317247883 0.08213903269360047 0.9977183815092042
Ni 4.3880806441652105 6.995220300433409 5.673688207569024 -0.7317259323996366 0.8082049385939822 0.3368240272101489
Ni 0.44090890877181593 0.043004984537621416 13.22987489412991 1.012811785507217 0.36009251081978627 0.6630581947195935
P 0.09029809356485079 5.666620490396251 7.9129772050425 2.316241017761534 0.4357701041587592 -1.0129079447654492
P 8.927451197121426 2.0549969984030194 7.8595644428607825 -0.8324756382158889 -1.1571781995721557 0.3816923484777491
P 1.921603845120307 3.586975647218464 10.384667446337659 -0.06941695714124174 -0.06183683080113867 0.10234121867308826
P 4.417277740467251 6.2811151896942405 3.6007899044061826 -1.456683435727188 -0.7282965950031135 -0.755800199740021
P 6.991489914181045 4.058077938376794 10.34611617904524 -0.05753691787420414 0.8530876580392857 0.27645812452758195
P 6.38743119788662 7.731271000540144 9.996369721628456 -0.32682629256748874 0.598238370030731 0.045316207438296154
P 2.420083531969768 8.603799246465083 5.5792202700542735 0.824536071653838 0.2252471488714056 1.2263082216005976
P 7.060001642181782 4.239256429701986 1.5121511909589762 -0.6679384056300303 -1.1758186974914782 0.6238632696876868
Ni 5.292835787909355 2.9261058778514495 0.2562966423938373 0.892723784373669 -0.6097296584997822 -0.10110863181756781
Ni 1.765937556360064 1.391588746683786 7.113330698135399 0.13394599006256286 -0.6493434162366624 -1.1920187042901083
Ni 7.183395540607548 0.87078861214091 8.891826008411348 -0.580739184804703 -1.5361588055456963 2.8820240954770364
Ni 3.1060742682703872 1.8804240202954277 9.133229311155198 -0.39357521595826417 -0.5387466424230012 0.44038600566421576
Ni 6.53152419076148 1.9560143836726036 2.3519339243906017 0.5169578286826839 1.4166390182107924 0.14316622310925023
Ni 4.126717045420296 7.190346796941222 9.949188524188797 0.35586998809800646 0.1530135482169752 0.3109852117701741
Ni 8.236265215576662 7.20615089674697 0.06983010109334206 0.750257929765553 -0.26490770068582115 0.21294647712718162
Ni 7.730907060417962 4.077830788508215 8.186140652398857 0.8608086808326271 -0.49618177247759704 -0.1334222563486089
Ni 2.7427346472901113 8.487593165452411 12.22219566413212 1.8748705366968614 0.029961836469412917 0.7204241342335721
Ni 0.07873389618252166 5.3601829075191105 10.056733740143846 0.3490192837247602 -1.8730573947475226 1.2138957068688578
Ni 9.020701754927478 2.2969534901325854 5.582043535552099 -0.018467976897200453 0.12197467663329961 0.061226965131281647
Ni 3.7515129764568904 2.9649564858943647 11.397193448912606 0.42685377550573583 -0.3156149972327016 0.09901523962364883
Ni 0.8757827804675509 3.449106030432915 12.52160556324993 0.5659406863392898 1.0465156055175655 0.02500886333951177
Ni 3.309835244176965 8.448442306808696 7.712749177872003 -0.6978986994375465 1.102859531524933 0.3044749214554821
Ni 5.57999364281391 8.043640807408849 3.4882914633882374 0.6377701095767662 0.7208056859427071 0.10589962544830794
Ni 3.0734652333228913 8.425741541687602 3.3482009020070733 0.8092593480004256 -0.2016480213952269 -0.6915347048927316
Ni 3.731660042791869 4.356809089166733 9.125239005772695 -0.7038878271414457 1.5729893441104845 -0.08796001025075173
Ni 7.162933007237871 6.186054029780334 11.432362802619652 0.5548602601554122 0.21924259454853856 -0.6757090507143847
Ni 7.7731696071063325 8.800918315141843 2.634085782914544 0.9911813517216349 0.489533413923144 -0.42743793014398
Ni 4.725535023955301 0.5381901034310315 1.6400561271991856 -0.6912074034602999 -1.5168485352528587 -2.2959557851499364
Ni 6.055536003462858 5.8181287632605665 0.4469857989619478 0.5604909760786283 -0.17317485365619853 -0.7825923802322006
Ni 7.61730315127889 8.965264575816123 11.364461584173874 0.8445515955438164 -0.7380482750732386 -0.5356700603802065
Ni 0.1596496133975237 5.042836219479569 5.57151019856585 -1.4083855199527486 -0.9731885146886401 -0.6924669868990139
Ni 7.397419627959655 6.390215339821312 2.656870254263741 0.6912125456666225 -1.246073577152983 -1.4422541476757356
P 8.714591718160301 1.7014837607216537 3.3279994956750625 0.08749515479919126 -0.8795124278897176 -0.36715815941731605
P 1.888048565855138 3.6508289416552744 1.2617667558499834 0.9003481336881463 -1.2083210409945575 0.41152897222320745
P 4.990638107455633 1.160514064607458 8.342530272151937 0.3730367296852801 -1.093242577260459 -1.632938985191239
P 8.438643219018948 1.6662816524036117 12.34737195930627 0.15686943162795564 0.9009723975357063 -0.9949228210419383
P 6.471037342454852 7.763861838481531 1.1168185036879965 -0.7998262276119839 1.6091732502302092 1.3001536468268382
P 2.0852404225563332 3.2631417265010305 5.864847756745053 -0.1818171027122288 0.006598222042807991 -0.7173210698282163
P 7.296062303932002 3.9477585888404128 5.873689682013462 -0.7540456789427594 0.45482506390768124 -0.024240617714919543
P 2.3195632702231346 8.961534189563759 10.084085660026426 1.4036636889970473 -0.7441672434867829 -0.4493385868718133
