# total energy = -381171.5416868926 ev
CRYSTAL
PRIMVEC
9.19439414383799 0.00000000000000 0.00000000000000
0.00000000000000 9.19439414383799 0.00000000000000
0.00000000000000 0.00000000000000 13.45692521310708
PRIMCOORD
 96 1
Ni 7.7383791272984315 8.224238499909593 3.19455272824113 -0.6331578076157354 -0.7645149539051995 -0.5280421115213035
Ni 4.7010661703152605 5.480723215133093 12.605869349236151 0.477712510028816 -0.1790508528210013 -1.4945424155564906
Ni 1.2061574084859428 7.975557720033089 11.441306460663075 2.396855900501124 0.8824044047255319 -0.32126345376773063
Ni 7.33421194713755 1.2478631805686073 2.066350910403352 0.42514244924158395 0.3666897044213298 0.7151196913015232
Ni 6.12398142202184 3.6057104063108407 10.024991864551323 -1.0131573417720936 -0.697088030610793 -0.5690568633707683
Ni 2.018537302254878 3.9440089464364028 6.126843636935715 -1.6837437265479327 0.5202719806575814 -0.2765627684262463
Ni 8.371661416482223 0.13357799778910137 5.545679771263958 -2.5598101048705786 -1.4749169280160792 1.3317139381316228
Ni 3.384355365991144 3.6166057634356106 2.6154474874303317 -0.51726224729698 -1.2979450692112935 0.9388727721259057
Ni 7.262376145267652 8.78351511019273 0.4037304464364708 -1.9982048126818492 0.10243789215195262 0.3274441286571458
Ni 3.203805047122696 9.472616566553295 8.504399966081035 -0.18317721628454905 0.14193106515056847 1.2600722054249203
Ni 0.5192681233694445 -0.4532551313452149 7.559427713581036 2.0060667319284287 0.5433954540489222 -0.6341345697067079
Ni 4.9935582385457975 5.309597150317717 3.8412661884695303 0.6368799936623291 -0.4860454553745435 -0.15123974414600405
Ni 0.932440293207963 2.218947512591261 11.330717206687527 -0.1702841623719648 -0.9433963710278721 -0.3921955620019181
Ni 1.0595619873911457 7.805213178724554 5.2452676518711625 0.9179329366494451 2.8937964055216163 0.1666517078257001
Ni 4.29401195037617 1.0681863291489806 6.399871172648836 -0.1887110016185847 1.7314808847228955 1.7688775802037988
Ni 1.9843893222030666 2.5644912353449403 9.254650579935024 0.48994607598053036 -0.06242767030760217 0.1429402231413732
Ni 7.266210207648267 6.373719557231128 -0.4777489974890019 0.2524874726445974 -0.7843402161612426 1.4579119088176504
Ni 0.82354464664371 8.100233705359573 2.278607178224591 -0.4267059370739618 -1.5572547069840472 0.4236779488809155
Ni 5.299887870044503 1.170556714150829 9.042528550269079 1.0218309582866916 -0.03238767230208616 0.18404522071179916
Ni 7.672850679848443 2.3522570340697775 12.571984328858406 0.9366906768729224 0.8454977615071696 -0.4186725252465241
Ni 3.360974021545329 2.1101962180159184 0.2973292390181674 -0.9682967338139775 -0.4584294934294879 0.19955102965688215
Ni 4.839046444046421 3.1915305308682083 12.235547653557962 0.5752426804665061 0.040787466330007176 -1.1650208355450258
Ni 3.547215670422412 1.7153061816009383 10.907201343376126 -0.5176813371122697 0.10931533599807625 0.07510038067926421
Ni 4.248738753344635 3.460825142536893 6.679183076796371 0.1993278579024825 0.3075381337618381 0.6181304809689676
P 1.9957903710087335 0.5773812918986507 12.545299438577208 -0.2688713133192595 0.14933147137969766 -0.1929332672300484
Ni 5.820474469541957 2.252212830800053 0.524894173179273 0.7835154062671023 0.057342542475210916 0.15575768662101563
P 5.286785858312184 5.65731994449635 10.402983523869583 -0.7722938265196699 0.6874204256140419 2.042830936031656
Ni 4.377349939387913 5.095202266405995 1.5221668981964271 0.38660238418485676 0.8779509969398687 -1.8252117360191533
P 3.4836272401482264 7.085393251348074 2.1649902102396044 0.9222387631136504 -0.8190886753860217 0.1432281866954372
P 4.092434051976626 2.988159725600031 8.967008554643995 0.5094550925477355 0.15401936377367023 -0.45963251259865356
P 2.2894225441198373 0.519548552392487 5.4937627049848645 -0.1818962926895964 -0.09743658228261928 -0.4096404969512428
Ni 2.6700704639219324 6.777482184047293 12.833586910340946 -0.5525681216871258 -0.45447745076027535 0.050582340933241925
Ni 2.8092919808698387 8.61895384283481 3.559572016785263 0.7880588026634106 -0.13479471121610337 1.1643829448507108
Ni 3.1172857977184036 4.12001723457098 10.901805153421252 -0.1131496221425019 0.6867863915744689 -0.46995472046026804
Ni 0.740853023544094 0.32459705389152665 9.699428479829574 0.012141263348224251 0.341050920807303 0.06461053689153388
Ni 4.0919191659015315 8.752364502649504 11.027909947606123 -0.8884228430054699 -1.222865514467636 -0.05873685171957626
Ni 7.653882644617725 5.102493421005103 3.410832462963465 -1.2735936369501228 1.0150221628949745 1.6399352140034142
Ni 6.819243122495146 6.095469605613475 9.05625486136745 -0.6927377240618973 0.17366310614652672 1.6461074042523973
Ni 4.783530691878183 1.6124209105239953 2.5244119515959236 -0.2740122340902506 1.4237542890993349 -0.3507293244373314
Ni 2.618471523682093 7.384165090815927 7.706121514693754 -0.8514925456380238 -0.6950648295331772 0.414759306235047
Ni 6.135244554914536 6.439257199075315 1.7652657613552534 2.3507825031818292 0.12989161748753114 1.3689000602636168
Ni 7.684334478201893 0.8179038858031644 7.894047576587932 -0.94792716901869 -0.8374262973529449 -0.5641977355062541
Ni 6.0323225062608 6.346540927981491 6.880902568866566 -1.114000378633101 0.34755246937124656 -1.4641285791513237
Ni 7.697326157203833 6.759920891128887 5.19666056750339 1.0772706273122348 0.5147636492448425 0.8960497634231084
Ni 4.813559583329237 7.675369943858727 8.712578520075407 0.9165789937247119 1.0812548087709637 0.3590954370138396
Ni 7.62458930470252 2.554588872793567 4.130885927952575 1.3354325246337906 0.8594022874034037 -1.8252323048444434
Ni 0.6310416153177084 2.9288650774163667 -0.09550217253585414 0.8075526497219642 0.10330898190299628 2.1927501615940237
Ni 7.269308718493034 8.458576024837033 9.843094566932852 -1.6317593630608414 2.5143257472855347 -2.349352712713838
Ni 0.06055336074938689 7.818554244706022 0.01686343839876866 1.0441087958482858 -1.9924301149816006 -0.5424528876299948
Ni 0.3157474494758378 2.023934411649173 5.5044613020737945 1.0844560893170807 1.4750174581496855 0.3675253129487477
Ni 2.5963865888182127 8.710392093135095 1.0810382533591103 1.1094289572123346 1.1624070520712626 -1.7165409755836116
Ni 4.832656340078729 7.469645373675832 0.2213412487283994 -0.5362174482432442 1.1942396232008272 -0.086099045782613
Ni 9.668089387205288 5.165806019453345 12.987372347698672 -1.2725549112729633 1.9853343844770843 -0.22555850946423733
Ni 9.529621810581627 0.7511102897115147 0.7762017914781794 0.32938325466138757 0.9931814128707992 0.1583151629355467
Ni 7.8158418984175775 1.635885004517593 10.059146280679075 0.4856980993374538 1.673253882760202 -0.3611091250097587
Ni 1.9306388937208674 1.702047865167252 7.2444553515361 -0.30456722405897224 0.026399315929135178 -1.4751413853220596
P 0.18039493360649964 3.5770330908069092 9.74753722803181 -1.4083608373624004 0.011910378284340778 0.2786065383291524
Ni 8.534374610606319 4.971280221403758 8.232166826026631 0.930133849591011 0.9477384500466517 0.5110705166639714
P 0.7631742543388657 6.98847514210571 9.048449740132666 -0.08770367126557153 0.42042087539619855 -0.49869194049396054
Ni 8.313598817121104 0.17495277168063342 11.816862524958253 1.1716756218573823 -0.18198576707960917 0.18719559341532277
P 5.00991506582425 9.643264522870371 13.682463032439891 -0.6270570940346362 -1.6875692709416097 -0.629863967355812
P 6.607275558651728 4.661208471466418 5.332373503625295 -1.7399557549631262 -0.22510959485227683 0.2236677201994277
P 6.661678789121993 4.1920553131132365 13.180681727395847 -0.17312625980645022 0.8524811348035382 0.09299474446118178
Ni 0.9231907326446559 5.412565170942442 10.606627402645445 0.6176957074243943 0.014603094625155496 0.4146127533548537
Ni 7.714970199670023 4.86514013478068 11.169732558672676 0.7034340274334788 -0.8265957823963441 0.05322234965925028
Ni 3.145337894416862 6.534327235083858 10.109797278877087 -0.20656062820549587 0.5273617976248273 0.8663139269215726
Ni 1.9330478250007745 4.929914641906423 8.385427263475645 0.030048996866580507 0.17005456285966195 0.22079245553416169
Ni 0.9719118275004844 3.930649491666537 3.7057003626547957 1.0695159230674807 -0.8944019434070403 1.2087406450304794
Ni 4.00773529262356 8.11500909683595 5.84118024527612 -1.0906678745547476 -2.2068783734652895 0.18207858390373155
Ni 0.4203152946910365 6.23915040374747 3.901149277881875 0.196209623988475 -0.8862790571895898 -1.3140226914994466
Ni 5.294242512006859 0.4337409490991288 4.490401452129716 0.1592782981797644 2.670743950308684 -3.0466723997194625
Ni 2.4198082482433523 1.4695951910504266 2.616241883089049 -1.760344603032123 0.6326014208916331 -0.6061673950698205
Ni 2.095595520029307 5.420288462068861 1.9021767270411727 -0.9358712662954204 0.5974562404490678 -0.4654416630812629
Ni 3.087882125072821 2.6084220508235494 4.6302858848993065 -0.913488527724846 -1.6173449874077244 0.48137530359238384
Ni 8.634657868125196 4.519605606421199 5.714268183280654 0.3841451808936159 -2.0746879326412526 -0.11183013200012999
Ni 5.24522719653669 8.636892105915338 2.2613961917251335 0.12848008185198517 -0.6643674004493203 0.1220626083614156
Ni 6.55146558586915 3.7744643174231025 1.987748953843059 -0.7230780269166516 0.23366982571746212 -0.10241680910603007
Ni 0.18130333975327373 0.5923607989262251 3.6387256369974437 1.1669388785033452 1.1290205061910168 -0.7737056192655319
Ni 6.100259884990695 7.8216159779739955 11.674595824651929 -0.30392599093054756 -1.36767518671758 -0.2796324084905055
Ni 6.102503317175036 0.9146895957690758 11.501472737416721 -1.666849521895755 0.7167340869764947 0.5159170461229954
Ni 6.441574186413241 3.9966836307974223 7.540009153034611 0.5604022730195639 -0.21360493664678695 -0.39641731339274955
Ni 0.6075618908539739 6.133037900306987 6.626983742615394 0.8404429726920816 0.747774501222067 0.9157593260368939
Ni 8.476385566398788 7.145745254864522 10.909932997892387 -0.19228714900561722 -2.248335869279128 0.6435476354904917
Ni 9.044626711025089 4.514686605525206 1.8043584866068125 0.09132327029602982 -0.18954866702853163 -1.9710323660321152
Ni 7.868985496882701 7.592684756835049 7.684658120877667 -0.39225109783020184 -0.45170940109683494 -0.8779628240144106
Ni 2.9179789146857944 6.266329032997107 4.479366340213135 -0.4475732674412743 -0.357078663694127 -0.6335568428263669
Ni 4.452973831667436 5.350245567067597 8.462333773745804 -0.5219354844029334 -1.7466771328473596 -0.911034923978031
Ni 6.649312328925523 2.0834497252935926 6.026119048495329 -0.23279642197357325 -0.7557598334203888 1.8824648041043512
P 3.26603270705556 5.673419328737255 6.512587090002407 0.16746186243182126 -0.053697232413139784 0.20143153450904663
Ni 5.726590510384972 7.4464846946907715 4.27402701514714 -0.5162764863449432 -1.2065189547888124 -0.6848485511218075
P 6.121305853310189 8.718418799270053 6.055414227289374 2.1926678862928624 -1.0681753498791862 2.9017123179345834
Ni 5.2943620391314345 3.0321457074438287 4.343666276243107 0.4634500865725309 -0.018212409242968634 0.11450305084660281
P 2.4351077201890208 4.531190543110828 12.961710793491722 1.2858883951570759 -0.5182711481774688 0.5153292919403255
P 8.426322089990034 6.674284303567614 1.7218268459662438 -0.42179230182242844 -0.278385680567598 -0.08903910224754343
P 0.14535141955979178 2.398891001442633 2.377448754733202 -0.24094116256789472 -0.37929325211795323 -0.5492390573138928
Ni 8.796984897692973 2.779456171696945 7.81275442084585 0.7010863531369087 -0.6752470234763016 -0.5393791338006775
