# total energy = -340891.0580497754 ev
CRYSTAL
PRIMVEC
9.07211388376290 0.00000000000000 0.00000000000000

0.00000000000000 9.07211388376290 0.00000000000000

0.00000000000000 0.00000000000000 13.27795569221301

PRIMCOORD
 96 1
Ni 6.281023726732006 1.8181423758628101 11.44400465455106 0.8344142499994984 0.26020463878319705 -0.7619237961392555
Ni 4.94195247727101 0.282529218874034 5.9715085974181665 -0.6828628881503465 -0.7657822506533972 -0.6642864106997397
Ni 2.5108617880366366 1.5609207263301605 4.877046037332331 1.5357597703350647 0.5300270031618163 -0.1945396924852198
Ni 3.4124303376523963 4.343247382950914 4.87962251772126 -1.3468813899006804 -0.5976871255129512 0.6338224377829277
Ni 5.056633070920437 4.323960068490138 2.4201070807594607 0.5987320218376978 2.448054791972442 -0.03795411064627011
Ni 7.182292896584263 6.176866785375383 2.4235726283248495 0.6989669928010608 -0.1633478402634477 -0.5222897824185586
Ni 4.889996480132313 4.247146478866713 11.455636011968823 0.593157613073714 1.189832238161751 0.028543615965647615
Ni 5.754051838169843 7.604155271815023 12.361072911013592 -0.4047497445178449 1.2161724187181764 -0.026702963212483048
Ni 1.8924339177815794 6.555609402547782 0.19537614087292995 0.2323354231767547 0.9247041939350075 1.4533338025286648
Ni 2.5600054298212225 1.4765047051365905 0.37492325715923536 0.7185523711321561 -0.5199899306407884 1.2005105438112034
Ni 0.4957375071148395 0.19764961265273745 5.026901031559052 -0.6820046539151093 -0.5975796534008095 -0.032637840639679276
Ni 8.672931955403776 2.469066558628923 1.6044949973022014 0.12131878821685559 0.37065511682698105 -0.5566217229312092
Ni 7.07987780112438 0.34840365338136914 4.65478650090831 -0.51146775210239 0.9067797482461029 0.42515684741928716
Ni 0.612810417238071 7.64051630490947 2.4085147334320944 0.8880747156374318 -0.673962243226607 0.42711191426312894
Ni 7.672450146349703 3.8591412332538373 3.695453986741911 1.2821968052381014 -0.5951797857100652 -0.556451515901932
Ni 7.847360505147344 3.4654659163625103 12.532637474151244 -0.8979467233355053 0.7582252642417457 0.3737273279944015
Ni 7.9125617887925 8.741653219298595 7.370473943807691 -0.5188776714132161 -0.48811133676463675 -1.1891701790977196
Ni 6.535151785375133 0.9492062204687888 0.5133573670140499 0.9978693052647719 -0.981868044740509 -0.5819473461801913
Ni 1.6967212014775606 6.431902055423062 9.314578994346938 1.1965944965862487 0.46680974707338313 -0.4521709141142857
Ni 0.314908501113902 5.130089978347018 1.3160534817047016 -0.8596758527797645 -1.5803907787808784 1.2397484062659034
Ni 6.2972990993296705 2.0891264224025146 7.113811136500245 -0.002001089590428812 1.4223242415210278 -3.130292902054596
Ni 3.4047462570558404 4.2998463893571435 0.49062718527299765 -0.4899188222870207 0.4751257231382463 0.11327380642519201
Ni 6.238030978270284 5.511581446075211 4.483859707388058 -0.7285711888207388 0.5883403941907287 1.4709278614613444
Ni 5.212147249888754 2.8779558107745875 9.351279324506686 -0.32145011585724 -0.24980272672358267 -0.2323076552626128
P 0.18527343467183807 5.575576138552314 12.43042377962317 -0.7172151403779712 -0.8392726065330642 -0.6104043159693037
P 3.8699007605118245 6.264539695511295 12.623804055406087 1.1303040008891307 -1.071800091115967 -0.238882223156337
P 2.5022160633512556 8.55709013115652 1.4909819847304322 -0.7433863994567004 -0.4648744777238833 -1.2411725403069398
P 6.507255034685157 7.62022198578964 5.690719410018063 -1.230025522551185 0.38696259573775293 0.3437616348702467
P 4.5780246223349454 1.072958928163737 12.568355294359863 -0.0935660435836195 -0.1725421051682061 0.23703565686590147
P 4.127439934036067 6.164365412220655 8.146410950909674 -0.5207116392981612 -0.1457434969181232 0.05714173931831449
P 4.694220259029975 1.328901409615968 4.029939202754642 0.18784582540481196 -2.099605778928855 -0.5129384231106456
P 0.35450555728838634 5.758306659657193 3.5564474264908243 -0.16732842217775054 -1.7201870569766313 -0.8315569830563613
Ni 1.5157234541553766 0.9972793527960031 2.739694071086638 -0.2906202749605769 0.9076678072780109 -0.6209499526956338
Ni 1.8881155914959116 6.750596349728159 4.797498112535587 -0.19356550149740856 -0.42228543940876306 0.6752796764864499
Ni 5.970539695638105 5.296762857591325 9.035104356272031 0.42452564159319145 0.9973975078346758 0.6142645702556583
Ni 8.767535960670466 2.4510856285907003 10.274986554027732 -0.9670985997408184 -1.5110344996742429 0.24883547771430692
Ni 2.5155702152262616 5.220820190916271 7.006511614838254 -0.7469059825741846 0.4558041399914989 0.5120249101574408
Ni 0.8202923870933437 8.944932078716578 9.30708996420236 -1.0459170527016182 0.7923980534687127 -1.289808299036772
Ni 1.4644115771139112 0.9847961238693665 11.596581282991439 -1.02363484426465 0.3430615234794285 -0.7239105501202758
Ni 4.021033108396154 6.883212512845581 1.5848565920278626 1.6237755735244166 1.165454580648335 -0.7696890419069712
Ni 5.647173262599564 7.814746255153696 8.04856547929452 0.561643858736149 -0.046163643040255976 -0.223430407377641
Ni 5.312874932136171 3.173262195070333 4.786981717934021 0.7391721042650365 -0.6751210394213987 -0.005383375799100406
Ni 0.7727418085351513 7.558858206385738 7.140260884999962 1.0898590055002069 -0.557617254075259 -0.6065144939965942
Ni 5.233221770816498 4.611527939505053 6.791939787856407 -0.39529322709063536 0.16277139893468742 0.21396257709652183
Ni 8.335204365831174 7.030280553637518 9.396371360158545 -1.0051190448486496 0.610047446850517 -0.47360234451518435
Ni 4.771024776539353 0.13615428759517517 10.475789633522691 0.0331101522904075 0.48536334170585443 -0.4027252578886484
Ni 8.342797725287276 7.1621709476312985 4.625495366289537 -0.36856840950128134 0.8176768826401596 0.4423179325796059
Ni 7.283029650945726 6.088604187826512 6.911561054815025 0.3834993197795008 -0.6765670278393058 0.8064802425933917
Ni 2.398911900714911 5.686972626917263 2.517713048563814 -2.1149889462531446 -1.541544752447958 0.520573056837768
Ni 2.2928770317508644 5.240325236114141 11.491592428776839 -0.3792382305103017 -0.20760886696435216 -0.3150233863952897
Ni 1.0905951178682294 3.40369389182656 3.7285163991694064 0.11654347831539928 1.040450630270408 0.3944069678309401
Ni 3.596594252776467 2.7280754146285395 2.804477130274297 -0.26781613258186776 -0.857765266020613 0.6176689679515168
Ni 1.2799392101122926 3.462798714833127 8.399263470318001 -0.07228065184228197 -0.18423162569099238 -1.6059650277055566
Ni 3.6399498858000108 2.8336838942324465 7.206451029076081 -0.21746441960219323 1.000750740577625 -0.5117109784614478
Ni 4.170242168102834 6.777585889013584 5.8393796068249895 0.32986585072476093 0.6346390201469522 0.20115179848509873
Ni 0.8065272684520751 7.453403952720605 11.510420694266914 -0.2349360940243954 0.4195544136308452 -0.5761875608782786
P 0.1620107198363138 5.5717023458548764 8.011268204030575 0.28063848115751666 -0.10370441756920204 -0.202050141929652
P 8.675771527100023 1.5118405893438935 8.059347686837622 1.1404323475723843 0.3674155268437608 0.29966850120577426
P 1.6088487048326467 3.3455234965666807 10.456111310946554 1.8704320413095334 -0.5595309261582041 1.2103542693745026
P 4.069750360820601 5.852611285160381 3.706528316357278 1.4994637641175081 2.060522439774148 -0.009969452507886056
P 6.885834353804737 3.8013518667838704 10.421469443463733 0.20982310100685153 -0.17160005296991093 -0.1265044461828531
P 6.402308819406573 7.637794670695814 10.168112514514474 -0.028645174540518407 -0.40583346450032687 0.3495149924142561
P 2.3880162917462404 8.65254691514349 5.863000670165311 0.8312664483991361 -1.1922231069914306 0.40934482008769507
P 7.0287927269340535 4.047723267918077 1.3796589804892518 0.34597458336116543 0.20167064710304622 0.11057800476058374
Ni 5.337959327472035 2.9430663732792897 0.19545688268793507 -0.22254003435288772 0.6992444148321635 0.512695196751588
Ni 1.8040987433203441 1.2160715272318265 7.181117150603964 -1.419535623032297 -0.015880161565366202 0.37510518217853467
Ni 6.772714163771139 1.025656925530392 8.929810679025504 -0.3535585663560104 -1.5096687296749678 3.3690769090701718
Ni 2.926673063199034 1.606535315751039 9.363296246771384 -0.31214889306097204 0.23096451097115708 0.7773802399036418
Ni 6.112726939073551 2.2837867734772526 2.5348811171835575 1.1655988195356828 -1.2924267104962257 0.4057187932993335
Ni 3.970483288934513 6.9084329898921295 10.392629192913022 0.9587808239037424 -1.2093952478953431 -0.12808850284052134
Ni 8.348467796565727 7.1269802172487235 0.3747499797809659 -1.4175227063673264 0.5252437228405599 -0.5750328784485452
Ni 7.911545712019402 3.572970467801931 8.173856817531588 -0.8896623718395258 1.1463566834766195 -0.17935398588371693
Ni 3.17790711746164 8.390136016376802 12.38335402310939 0.5286126393127929 0.09939550578120301 1.365405673957113
Ni 9.04629480894718 4.860294378747278 10.111548790652057 -0.46228743372299735 -0.30132480586227456 1.2346673921985705
Ni 8.659713885239452 2.420113431239293 6.018910393306013 0.8488862183634283 -0.3105170138845039 -0.6700266556176268
Ni 3.2291373454766954 2.705259047804055 11.791900269545879 0.4847262223424878 0.12810392945948906 -1.064435937441412
Ni 1.143304100472705 3.5049568288026625 12.865489709635781 0.09796108732752161 -0.44520759542257515 -0.045444248375728184
Ni 3.3619440229890736 8.45665275655856 8.336471740163335 -0.9557343237679348 -0.9029596031690642 -0.9668422607556382
Ni 5.411144071477251 7.6001363252928575 3.653190636249448 0.5373777870999326 1.0141685566454277 -0.2719419818247833
Ni 3.0622558076093416 8.386897271662551 3.550631294176241 0.5462912875394785 0.030971251570533754 1.2226012050626558
Ni 3.400808959560084 4.4615749664466415 9.481429687026537 0.044035026733027394 -0.07431850820791717 -0.8737292455490371
Ni 6.967955130144791 5.685321502160979 11.523460043784539 1.1271114620937621 0.5706455480141268 -0.5286046688929928
Ni 0.4151753199678063 0.1570963556578552 0.559344820322199 0.2580960770806265 0.1922915198809914 -0.708623027833586
Ni 4.565133148276261 0.3961683338310358 1.9072985766451651 0.16211911006266919 0.05087981756900269 -0.30301762018366524
Ni 5.763296322382229 5.569679264422725 0.35935550945712175 0.17432130855581593 -0.18884469898297152 -0.07840399113120045
Ni 8.045885576805473 8.985629582324783 10.910084433841433 -0.6069217567373419 -0.3684285414893074 -0.33366696963840603
Ni 0.1982483721797418 5.05119887460717 5.887751211704301 0.040383031802736905 -0.8432660439631735 -0.7856910737621824
Ni 7.907608414523646 0.0760306661812956 2.4468090340296422 -0.585462044201669 -0.2800815802127822 -0.3850358110286853
P 8.71057215657864 1.7013298354126851 3.6629495093282145 -1.1097441744599081 0.08629984893950944 1.0017053911814102
P 1.9101154680562995 3.098870859897063 1.7401693700643683 -1.7142712057128284 0.9134347916687754 -2.0428648745933855
P 4.614766684219305 1.116196623704689 7.95268593479303 0.3249864111452726 -0.5174733348665217 1.750275134611263
P 8.372409105531856 1.3658793464655106 12.364512149448249 0.4776636590687516 0.5386155161617756 1.017758330879215
P 6.341135554397627 7.942018943098306 1.2731832067825932 -0.28301495180949326 -0.6867485963579979 0.6582111510399373
P 1.7566878753184527 3.3623704123492124 5.989845154326972 0.041770656178882905 -0.5637799312425451 0.476292746863154
P 7.059256885898911 3.848091398346393 5.809370867985216 0.20417721557498386 1.1922580739944242 1.2324261615728775
P 2.503050697843443 8.478398613925675 10.371783289259225 0.08409049999301646 0.5251413929347407 -0.25136132945995415
