# total energy = -381172.02860208927 ev
CRYSTAL
PRIMVEC
9.21944258275499 0.00000000000000 0.00000000000000
0.00000000000000 9.21944258275499 0.00000000000000
0.00000000000000 0.00000000000000 13.49358613539562
PRIMCOORD
 96 1
Ni 3.8825378496872096 4.592047728787781 8.629526612248949 0.3735090413360083 -0.4187432305834594 0.989110071014903
Ni 2.6196032581116624 2.534765945454324 0.5242553173960188 -0.4698544474369779 0.5395249153499225 1.32946936507182
Ni 7.953336721376468 8.168666027443061 13.016007502952407 1.1763568293831355 -0.7727527684339595 0.8371434760052033
Ni 7.825758071892415 5.406917400221331 0.9005053878374789 0.7856301386172599 0.4209860038710492 -0.6288249845683364
Ni 3.462693643959917 8.385581077671475 11.53524882408824 1.2346748483977381 -0.1320963384483338 -1.0078230740433742
Ni 8.639493751861409 7.139601041407474 2.815072040495749 0.03704059769306524 -0.9332507979534379 -0.9512189523960844
Ni 6.369049231519656 0.555347888243321 3.9482641793617836 0.15796009358897312 0.36652823914280097 0.9923638020655103
Ni 6.067748621331168 4.137003690445218 1.91413241690233 -1.1230917994114078 0.9779334855727931 1.9464888723647962
Ni 1.7761348751085557 6.916020334033739 6.9635133716802295 0.34717040344147954 0.036281093819221386 -0.971222906321837
Ni 3.0918968739354122 5.659622327404296 11.230374757869976 0.9419755794209455 0.3659050037365053 1.0288367001805636
Ni 4.1682668209843445 5.029270584195477 0.393117962990674 -1.1361159795852174 1.27615137037497 -0.5017744360740262
Ni 2.451468279744799 2.779265568544154 8.646554923102904 0.0024556606293441577 -1.5408916922449916 0.33892384716197116
Ni 4.794709520445422 8.584315386695772 2.6464567291589387 -0.7510099774402291 -1.1556825888632356 1.0798885245510563
Ni 7.04019700912412 8.615108325652034 1.8776464720162815 -0.6841381553183443 0.3895717512258258 -1.0364350813531118
Ni 4.015048901069944 6.228812287069453 7.054096241091324 -0.6444089550495223 -0.03608800397180882 -0.4080998919370004
Ni 6.119995203685996 3.972786975268897 8.540792241119512 -0.27629228837367903 -0.20890444584732407 1.4139419309946037
Ni 8.860861792962838 4.990641118858133 10.426561964187997 -0.27774033367411527 1.3335257945293808 0.5488060835415323
Ni 8.441884214858865 4.686334970316428 2.9840801000958934 0.05423099342942273 -0.582726390438061 0.36718644155209024
Ni 6.8213182175790354 5.567529313262354 12.164454590556861 0.1222425855827056 -0.08072261196204808 -0.8964184596164368
Ni 3.7905739077444847 3.7017722346825974 2.2710788180064787 -1.0406786871208142 -0.03385654353812879 1.3429465736226485
Ni 0.23765879653128377 3.415047563562925 0.8584011145083331 -0.5230909381636152 -0.11420840242431943 2.1878010451188645
Ni 5.224271018885259 2.5512318702974026 4.109903138330869 0.05620842887076771 1.248051012594328 0.04025061998993068
Ni 1.4801907611876073 4.561098059303899 12.743612611778756 0.19900801266921855 0.9701016482332002 -1.4129003771039668
Ni 0.5634527004099225 2.669821563050211 6.848008504488728 0.8782227625440167 0.6923518014773882 -1.4716819660185494
P 4.533873044711732 8.217012785492951 9.465859146523869 0.7784955844550075 0.09607364049682164 0.7564663725691101
Ni 8.694690555912645 6.511240697843731 6.536940816596567 -0.6512779142552139 -0.20511566822885322 0.6730057928506087
P 4.856701053841199 6.444408956977284 12.341719583129828 -0.9657518559049368 0.45186675261030573 -0.991129415437777
Ni 1.4569024486715851 3.3804469947297373 3.468675218449385 0.25770115563505297 0.03854957813842393 -1.2518241064835152
P 0.5611570591524048 0.7623760080116465 8.907561958528419 1.3948563751180623 -1.129754556143564 0.022259582729148762
P 0.3698997182399414 6.515988710886388 12.135915805365512 -0.5890543895386178 0.15088107525500466 -0.729919218208201
P 7.526218375278969 5.756693840658928 8.699139859008541 0.046772480268848476 0.6163991001001577 0.08221256624401325
Ni 2.483293796294802 7.860708979552051 2.162374211825198 -0.12590795024943477 1.3207268429924997 0.2916584864171041
Ni 5.1783489742921045 7.4313687477394454 5.015295752797304 -2.1579212268402963 -0.16124724898067713 -0.4454996727416973
Ni 6.338210195349389 8.793117327259065 6.562781070879982 -0.7993081503249847 0.7153258937750583 -1.3501508046805715
Ni 0.4224671372042549 4.769420588841522 8.354486662935612 0.12333813263972952 0.11938866107367828 -1.9548344161160138
Ni 3.224749044701794 1.4577782957377063 2.797409431977065 -1.0004046700921159 -0.842745138462697 1.2161212537652668
Ni 6.476999687279793 2.2308654523958746 6.531206323174173 -0.27316839803271664 -2.2507408791761945 -1.5611553275900338
Ni 6.037130851788131 1.1459767401985637 8.462341236490616 -0.9085946899676547 0.1442949373970547 1.0232720616085924
Ni 6.487860190899696 8.640987301595215 11.317731744244904 -1.7136058042146876 1.347052368260906 -0.3653239344220547
Ni 6.190846621613799 0.6601130265156169 13.5084290062999 0.6264127755824179 0.44250665155164437 -1.4649045380853996
Ni 6.718991621927676 8.148106669996217 8.820972951738838 -0.6573901978005388 -1.6954859546855252 0.3551824751126786
Ni 1.9563842013162962 1.242983717353586 10.681252759350357 0.8906579029835757 -0.6347752886145003 -0.8166204163511872
Ni 2.2811575128768338 1.0867971368571752 6.7753454660504735 0.6909027277356875 -0.8704179217876171 0.8837866297850392
Ni 5.46487081767015 3.528068712863763 10.78492447170642 0.9995199534943174 0.008412906654043576 0.38534331496677504
Ni 8.909604987053182 0.4350664277364782 11.091120606022388 -1.912209382356636 0.34800858307205873 -0.8841977491805288
Ni 1.307197136464471 7.95495012386669 10.700589618681752 -0.4616821960388307 -1.1113349159857957 0.40679711396517687
Ni 0.995312605940117 1.3100551637328663 2.1134466288788283 0.8768940164302639 0.7068582226236794 -0.4967222183620994
Ni 1.326023238664676 5.963799403746784 3.2028242877760804 1.4241726075836763 -0.9974522723320112 -0.4623460548750747
Ni 3.9323781574709056 6.0616914474107295 2.972974359297477 0.36263790294945936 1.239141111699208 -1.7240295706511728
Ni 2.2706565675261805 4.332326805633045 6.896086054808821 -0.24498062274459104 1.8893813287185266 0.3285309339634213
Ni 3.031629376343473 5.266800308527543 4.866597203744089 0.00785626281962518 -0.14375937660855886 0.9206133116950854
Ni 7.663873875744816 4.047123342575582 7.012050050251826 2.1257425852252227 2.0517899449971564 -0.6240234494146351
Ni 5.264218864543187 1.545934607803504 1.941902300564052 1.2840847662894337 0.5166017308948458 -0.10286186706324867
Ni 7.393108060114151 7.778867985805127 4.702096529729488 1.3516566998021367 -0.5229392430770994 0.7822758774330463
Ni 4.286091299984648 -0.3620023435363686 0.4483000159334293 -0.6530612314078816 1.0664126015518085 -0.28429484696318136
Ni 8.344038268408926 1.2998031433378479 0.6514863938864632 -0.4995658584584816 -0.823808192348878 -0.8356339813392124
P 1.8382554807035512 4.805920362891774 1.3132441689978278 1.7928243208273833 -0.7060223569859454 2.216268556430938
Ni 8.222664303930133 2.0829302732066055 8.197191905414488 -2.6575536768706556 0.2302949957079582 0.7075827594945299
P 8.231127752421704 0.5826826142048231 5.4510176829169525 -0.10685967536873209 0.9961875466869747 -1.2600606354606942
Ni 4.658713519683806 1.0515604264706997 10.538126441526233 -0.019962559164855943 0.5309898812957177 0.4874703607465282
P 0.2669148543725718 8.647265742142883 1.3658069782407407 -0.5426909717827298 0.13796925228934304 -0.16992009416432674
P 5.2568064325309605 4.729380548755583 3.9848856500570107 -0.05437214699297732 0.36303873793230385 0.814254487222172
P 1.77725042768751 4.212262002032031 10.21720870094519 1.1827974428021566 0.5934844002855133 0.15702164093510376
Ni 1.3460847462002516 8.884279177678078 12.845232998111538 -0.5082826695061892 -0.08631990354416746 1.236474106390006
Ni 0.3069779430655152 2.7716595282331022 9.811159547481447 -0.5414434725288739 -0.22535359254228285 2.094373583995638
Ni 0.7134530347866773 1.904580152215928 12.572338413138057 0.7051803207006242 1.2114493022108943 -0.19002766354747916
Ni 6.250136858268804 6.328483683194044 6.867196930791024 1.0472709956263513 0.03180300344320974 1.0192313158803157
Ni 8.4941676749849 3.8639606724426385 12.240963058587527 -1.2249385949465807 -1.5966427218633663 0.8800302480664005
Ni 1.1993941917891546 1.314185474107838 4.6336707472027 -0.2864031515554358 -0.878209649917894 0.09592863027852512
Ni 6.376056008048626 6.515140522148671 2.9847273049805434 -0.4344081908142261 -1.021891122100666 -0.17904211107025295
Ni 8.177940786901145 2.9490692660580495 4.9683927594900945 0.12727294891776145 -1.551428330110257 -0.9241802031107373
Ni 0.8750855401458016 6.673466013374978 0.746133193684359 -1.5590650207199086 -0.5913498704410137 -0.2147277373973205
Ni 5.013367045363277 3.9423074973678793 6.342404119879689 -0.38236469195442535 2.2550865577394 -0.815924418725427
Ni 7.999083596556397 7.165848795062706 10.613879837191476 0.8938833518994089 -0.5105048739684884 0.263939680345597
Ni 5.402298459377892 5.9837963751827505 10.02446610779744 0.17418478297795162 0.970424835900574 -0.04953924438070823
Ni 2.2760130637937217 6.2592548871992655 9.195650185238401 0.7018669400566752 -0.21517870889181007 -0.6209319549735048
Ni 8.606884582673295 0.22037049739033165 3.2743939002981035 0.6898945981861473 0.1460114058675292 1.6650399794908424
Ni 4.141843897915888 8.562262479515121 7.363665769528278 1.106945014448216 -0.15135415823668125 -1.3635141133613549
Ni 0.47337229063149844 4.70600926125435 5.042256169381075 0.5272890354053629 1.018680328472852 1.782772593018336
Ni 2.995802621617716 2.8911158486092305 5.407177388508328 0.3806495090355315 -0.9684134618974998 -1.5597412208513268
Ni 6.0668543353794435 6.826683933289377 0.5158370441741741 -0.8223367500096741 1.1786152864000088 1.054749049170951
Ni 0.7340133141778021 7.621648827714973 4.814916695177258 -1.6151950309442569 -0.4012944389793927 1.0181596800826918
Ni 0.3170216040532248 7.283304496350958 8.721781888584195 -1.6753441896303276 0.6461683609427904 -0.660983571578752
Ni 8.33690241968074 9.173557634453704 7.4249676886025195 1.8427307187395232 -1.054553131110061 0.7010822393718505
Ni 3.3593160318292137 3.2546292588207284 11.71644037735027 -0.7418853894311416 -0.5260392221586617 -0.7083075534756962
Ni 4.24593140714229 0.6894677323948786 5.260663847399015 -0.6848706626089948 -0.8264492295161509 -0.3426861424178808
Ni 7.717632446719054 2.2750634611851903 2.63288202157834 -0.6152855553210048 1.1703242500358102 0.18866677864421055
Ni 2.8938909008924147 7.219588927151342 13.450474666906802 1.1053843548293156 -2.226356279684243 -0.7229314740364582
P 4.276539957242526 2.2351985905124745 7.37502781083657 -0.774895268698259 -0.8181093421918879 -0.10005473663175671
Ni 4.925911410950376 2.9578922728188703 13.512072530094965 1.510376811485586 -1.1508802823785858 -0.6865272243758112
P 6.982621588830154 1.9167221583852083 10.395095083962962 -0.41919497340889744 -0.5325675101954828 -0.2442601996387987
Ni 2.513284643727352 8.842754807301132 8.778657553169543 -1.7722675797219543 0.30355472363405783 1.0172219987597706
P 3.0276926742673282 1.1675502363535486 12.532762111025022 1.1351590149885868 -0.8262072887086738 -0.31484238073273524
P 7.136604722497061 3.3295464510238943 0.44689773868335525 1.441973383210523 -1.7331371893793959 -1.8505008496032451
P 2.4621904917226822 8.395289150941219 4.260775631996625 3.0233049286381157 1.9751541015099725 -0.03889564862393301
Ni 7.249884016196334 5.17022664518418 5.048706091564847 -1.0174500556101767 0.3519418566881939 -1.3214794048878078
