# total energy = -381162.81293904234 ev
CRYSTAL
PRIMVEC
9.31708589904668 0.00000000000000 0.00000000000000
0.00000000000000 9.31708589904668 0.00000000000000
0.00000000000000 0.00000000000000 13.63649699874004
PRIMCOORD
 96 1
Ni 3.2800708270219894 1.7194589135491964 1.3938137121608207 1.43866025967689 0.9041873049285781 -0.05548157800707219
Ni 0.07466246906635358 5.86773308710879 2.3059722755592644 -0.9154230257433976 1.928747232110659 -0.4198521473769221
Ni 0.24435548901424206 6.758502416060909 8.831404988939003 -2.262737646526755 -0.6708476088570253 0.9002702292623593
Ni 5.097265973241811 4.976171805842372 3.6733310535880572 -2.7741447205945384 -3.70886233290149 1.712138732750858
Ni 9.659488962942794 4.164644293750469 9.16560793386484 0.06710039319292314 -0.9836071389188029 -0.36346168440233534
Ni 0.1589597368176159 5.633100909096937 10.769669146425924 1.6084515415728364 -0.31516479706916045 1.4794086452388457
Ni 7.1167071063616545 0.25752425843813725 3.3184963533118075 0.2811007655059159 0.8431961099571866 -0.19680457725999653
Ni 4.535585440682364 4.93079759677603 9.47422895562159 2.094896546378644 1.593816565268481 0.8515280268616497
Ni 3.499236642189873 1.98282498494105 12.312230137384317 -1.2947761845650088 -1.3895930698365941 1.651557628733691
Ni 3.9910669806280925 2.6114953662041946 4.154672216550529 1.0459473917189213 -0.18588278814117018 -0.8990723522995161
Ni 4.621973462543377 3.8137348818273304 12.214087679761887 0.882072732417726 2.594265458334971 0.27736315284035457
Ni 1.7086697279026204 2.5186040182798735 3.04166150232523 -0.14957726884191658 0.8908512499413045 0.4982893057389032
Ni 0.7007436321160407 2.4487072387283937 7.554183428197978 -1.4702560322053002 -0.261798208522562 -1.2626003711634126
Ni 6.524391994867889 5.389188913378703 5.486808682473695 0.3396877219111892 -1.0843162213051067 2.0040489301674516
Ni 2.4394181039359615 7.512385116757849 10.788909860828985 1.0047760596869342 -1.685222367975988 -1.9165789721792408
Ni 1.9755110723913416 0.3651067876470187 13.760452836954732 -0.3879247025407061 -0.8864207249737766 -0.3500955475080745
Ni 7.343922883877243 2.471776343789639 14.22341232084801 1.5663872654129347 1.4794695803837683 -1.4936240175072792
Ni 7.46419714770423 7.309673275555297 7.135978567148682 0.4511746116392875 -0.6565522752802757 0.8946140594178463
Ni 3.489807751106682 5.811346082330657 6.23659745556001 -1.2101943467578704 -1.55173429138645 -1.1814609833789202
Ni 2.51392684108248 4.314556208304364 10.862056439994909 -1.1425290822004128 0.28462034862340013 0.21940971625402214
Ni 1.487016250759231 7.180482560377901 7.1715977871200645 1.1810961438403336 0.792426592713803 -1.4828346402012593
Ni 4.123770237246559 2.755062345157641 10.205432005454199 0.9903814815281589 -1.8346106607355501 -0.5485566865348875
Ni 4.700823961789468 6.535414107665729 11.535426473294335 0.1665205815644745 -0.904696640464829 0.8425031976552199
Ni 0.9457494537366136 4.554601613311605 12.738084326081143 1.658577768805266 0.4663446345115065 -0.5141280725433726
P 0.9977294768128208 6.702832826908669 13.763861958740641 0.017375515163970075 -1.500881727510957 -0.7186619001268268
Ni 1.4206879151651248 4.771438156966844 6.919090779520166 -1.4333671295987507 -0.6485006086203928 -0.43495197913283795
P 3.755754655334547 7.612963060673901 8.627525716854313 -0.7847631626312742 -1.8939576352352994 0.9741431652924255
Ni 5.746051943288165 7.556343128744503 9.656031392309423 -2.6464223428441844 -2.015252512192755 0.20856711711256337
P 3.3269264527703757 8.33999391937306 3.4017743318491354 0.5720578549806212 0.3002840233025861 -2.04169836508911
P 6.075764984446226 3.844341509503498 10.552862417446049 1.674445331965142 -0.5074907697325131 0.44718965884961054
P 7.709338998781141 7.827498284074645 9.640416887797247 3.0282111076904816 0.4814100134850613 0.04992696673743015
Ni 2.474515567088511 2.7920884451226606 5.969826920925273 0.5788021156829902 0.7116443311584132 1.0203075796636298
Ni 7.292837301061892 5.414400948231584 3.4074875690153537 1.4099425800272234 0.6067386941922582 -0.859006594626882
Ni 3.6484125069457707 8.709565454655518 6.895389976024692 2.39784834632138 1.0943846612847024 0.08199196559277493
Ni 8.137542956579923 3.4160909662744627 11.561131381999292 -0.3144924535924841 0.17274445098699928 0.11287142878045077
Ni 9.072391419637354 1.0028259228824903 1.6289890762894224 -1.478719075370989 3.235678821091279 0.41869437962339506
Ni 5.328394926898644 6.915793462766865 3.1122579950391085 -0.034900411421610864 3.6054589915124744 -2.187182437698259
Ni 1.9427615149235395 1.8378045405637127 9.398492226533603 0.3834990626691847 0.1637856991318147 -0.14394783847028111
Ni 5.035717302791654 7.200383856181949 5.27487013095525 0.2660544126957547 -0.6699947739384267 1.180015509181645
Ni 6.356768299731835 3.8667677356272536 2.019647040721562 -0.565127189299059 -1.3877950973959066 0.9715851747572622
Ni 2.3666609789669524 7.29457959615335 1.7295986982980471 -0.2976147040005391 -0.01999418373373976 0.5263328421396807
Ni 6.887739716668557 0.42452277710019687 0.551982377689394 -0.8225894894504284 -2.4113774911560664 0.6600191507829536
Ni 1.9301554974970996 4.720175549516531 2.098206846882875 1.7670145588531312 -0.6751323522753082 -0.21022393598969602
Ni 8.678725899828086 4.386297770893859 0.5754530491594196 -0.329308178449078 -0.5524393094187454 0.6104997038965874
Ni 1.614762817598786 0.29948468717554666 6.932768261842424 -0.11516151036620811 0.6607650278100426 0.8974744116847768
Ni 8.900267571938867 0.9547311246893765 12.689510629665028 0.39359681322481893 0.5853761693560822 -0.16332290056278323
Ni 5.888612676948148 1.6410649515195843 12.047095683060062 0.775924995514354 1.4783218399325702 1.2157733835075448
Ni 5.309900511088235 6.4266464451112135 7.380795251922429 0.15988070765045367 0.2625011481268576 2.2164660171537243
Ni 7.442795801046039 6.1075548820508185 11.271738030725134 -2.259757737962824 0.44142961643738177 -0.5791242749090993
Ni 0.3119528117284379 3.696032133750305 4.997926270061881 -0.09820328524531474 -0.12809750170158585 0.014841435888206697
Ni 6.587524569946645 4.608827054126003 13.21383430570466 -0.4368188571382477 0.2605697354320996 -0.4054277444214759
Ni 4.145786511584087 5.917868327146982 0.8506406393322538 -0.2057741277484585 -0.33954271169289263 -0.5284848554856769
Ni 5.256159558748467 3.9488046783026443 7.256648807132819 0.26694787104430157 -0.3755132162502307 -0.6600173510107408
Ni 0.03194176610721657 8.385442665127808 0.9436549727924424 0.1281422388965922 -1.964976389646022 -2.560463422183861
Ni 8.523959783441837 1.318209285694753 9.976297839920797 0.49838675054871595 -0.0647923138850368 0.18615738195879553
Ni 7.336068580336601 2.6254709952800703 4.614863594178177 -1.1424635190698 0.8785755178977449 -0.2867983301113254
P 4.690575167133827 1.476497260608122 5.927021432483075 -0.2369770357138241 -0.05629456082667079 0.13425323689033652
Ni 8.734227781431414 0.11993884872916574 7.636861386393649 -1.127171625907736 0.5909487783478533 1.8472643449438184
P 8.380430072832594 1.5019329055262158 6.009618332030106 0.890048551534351 0.45118900981699067 0.6829693318212238
Ni 7.130431174114165 8.64912551744538 12.192964913976608 2.1815206114267913 0.31294439237907395 -2.335000300646908
P 6.161957347500177 5.790419907061046 1.3967588430614104 1.370412383143085 1.788213047307617 -0.21564613544653183
P 5.546619716375418 1.9347022354897845 1.7289306632282202 -0.9098308763676008 -1.4008925540098132 0.19988835839164282
P 3.1203946062870838 4.069106893387783 0.08125803428156189 -1.6143293405098518 -0.7276103675693663 0.45379070910589586
Ni 8.615891471502948 3.701967117564527 2.7397627581539767 1.346996575322306 -1.8420257222526986 0.2982438529441057
Ni 5.0254685081360115 -0.14800284362212932 4.455779940116088 -0.7806720232810362 2.4836722840657353 0.2522180210332946
Ni 2.307180701620025 0.8370805522942341 4.788673834451818 0.7455592387383031 -0.7909651776769281 -0.8788123164988995
Ni 1.1257276049757416 8.840023293535793 9.349141485140871 0.1757235882199812 1.035095793716398 -0.8635520479057192
Ni 7.495073970875865 7.363991887230201 4.617195660816638 0.4918777457856045 -0.7843181046740557 -1.1696966437541403
Ni 8.17387027509115 6.426460103390202 13.320662150943443 0.3080816649701339 1.3414303940884382 1.1795581099292525
Ni 6.877435019496611 5.37221318259454 9.132075741168789 0.546608304559265 -0.5386970201319884 -1.028113448861294
Ni 4.500981783090495 8.892869805614705 11.968398915733806 -0.45814024432384326 0.7745437988961111 0.06874229967172032
Ni 2.1863939980602565 0.3654114563608728 11.440517044531457 -1.3408390403613426 0.33382354982092827 -0.42256491832239484
Ni 4.185039395115197 1.5225236656980061 8.107593183470321 0.8485923412720933 2.5656498514808073 -3.7296838976325315
Ni 5.033453250881362 -0.16760506096395267 2.1586579645962733 -0.5428753198793941 0.27369804528394154 -1.4285092872858172
Ni 0.13115848375127878 7.9295296934145885 11.327102019454912 -0.7347973722361087 0.7241933714680173 0.4564410022445494
Ni 7.73133663894657 3.976616180163637 7.320290095109937 1.075464941562064 0.10254947802915242 -0.8206637331826254
Ni 9.272242915422378 1.2237433502278834 3.9870392043284255 -0.0989519904858812 0.26507019440561447 1.1743919923472808
Ni 6.9153369255503865 9.1289647661365 5.75417923745009 -0.36690336309403265 2.3854216905222527 0.8493459316086663
Ni 6.101619898236597 0.336497743220096 10.325392283481282 1.413528497606269 1.106171112396669 -1.1134403923645728
Ni 2.896393223458947 7.352885920657904 12.971104648206245 -0.46913068189707596 0.4206507320188175 0.6433905410873371
Ni 6.247236636121172 9.226635779204768 8.029265372751668 -0.40033850282402667 0.48881916146493876 -0.4748809541172918
Ni 6.529423221335204 2.2957300028638574 8.827258885646494 0.03667807214732392 0.573551151696696 0.5792209483879637
Ni -0.014114453658029455 8.23514875004584 3.1858676333817466 -0.9093302825820985 -0.9849536256443682 1.7139410760669191
Ni 3.9059460824699586 9.484141403470806 9.595689284502816 -1.288368481266452 -2.4476341594952555 2.867788925714261
Ni 0.8533239601148219 6.278635216111639 4.503984679924598 -0.09858715094729474 -0.528437032966877 0.567958488100267
Ni 7.340140146940707 7.745060706699079 1.9033278799230484 -0.8873326952650847 -1.521989713134166 -0.39510347967733245
Ni 1.1262214105364226 2.6002589604271904 0.5368337274797497 0.3906361879345982 0.5415067216666416 -0.02347468608317247
Ni 1.6340212344653429 0.1834636731306514 2.5516610395873447 2.2958130889244845 0.31455184607550984 -0.17896369242383373
P 2.7881380006372134 4.479841314841721 4.3672657592183315 -0.6147044860065543 -0.04171974833628944 -0.13783889735906582
Ni -0.039149463875948226 8.408735380254267 5.733342506206564 1.0103941772046598 -0.28721587726471826 -1.6100705652334981
P 3.405432219832595 3.576773432302832 8.278281268208413 -1.8669170861777395 -0.4092304059970178 -0.5960531894539541
Ni 2.629272366388708 5.635085448425712 8.617257356317964 -1.2653031148065563 1.2387652164170277 0.8483591422153647
P 5.77675174182484 7.727404828633223 13.24774756722018 -1.9818765078354705 -1.573126641019297 1.9697360158181951
P 0.8469678440111136 2.6501612733141173 11.032403519383548 -0.5101292357966247 0.042112098678701665 0.5750884142768289
P 8.908354802630775 5.958174041401807 6.358125799169405 0.36086692709196555 -0.7583383927808424 -0.38223999345110293
Ni 2.63998701534688 7.807270890258828 5.204682658318991 -1.5072117834940428 -0.903668970531263 -0.21840775735206902
