# total energy = -340868.772544224 ev
CRYSTAL
PRIMVEC
9.30668303804572 0.00000000000000 0.00000000000000

0.00000000000000 9.30668303804572 0.00000000000000

0.00000000000000 0.00000000000000 13.62127136011662

PRIMCOORD
 96 1
Ni 7.530502513721832 2.8760442338447234 8.007767829063466 0.8833749961689173 -0.8935516795916031 -0.2542713040178976
Ni 5.898082403217783 0.24872947800961295 10.822345144658017 1.244470237221605 0.7571932234328056 -0.6149795940448118
Ni 3.6277077894564855 6.749764880556011 4.963536943513898 0.6268341793905527 -0.4465764507456437 -0.08168754697847869
Ni 8.262342834637645 8.057819169999998 10.550777997343056 -0.6416748439478109 -0.5803812872446521 0.23803864420911908
Ni 5.201989051535371 5.027833093382648 5.036655828824788 1.2808788577576264 -1.3249660778848278 0.5148698358054036
Ni 9.066952109585209 2.231314465395618 0.08031853524553192 0.4436425649283005 2.455626947892745 -0.9616789713871435
Ni 5.889966975680287 7.5285108835692816 3.322336908309306 -0.09730365624918082 -0.5091041369662199 0.40096893731917393
Ni 1.4148950097770872 4.606398569093127 0.9740206861293979 0.43168359279421137 -0.9511320491092329 -0.027581766273010563
Ni 4.0580674227006615 4.0210640512682225 1.1997905772869417 -1.0453359833871674 -0.31766956576888516 -0.8999812372670306
Ni 9.049474158994132 5.9271192540400195 2.678554560185105 0.42080782642197206 1.3049392411409397 1.4104974240894288
Ni 2.4515943442775088 2.6199708523146534 2.7055113673667095 0.5675771935014483 0.7371057086543111 -0.505393263773536
Ni 0.8466484925274101 2.096600229609764 8.145193101594357 -1.4582849758863532 0.23610208930803855 1.1740294668015392
Ni 7.184917455522446 3.297543904914935 4.348154869097753 -1.1511564188581078 1.6164211900418743 -2.512615449462647
Ni 0.342450567379857 7.975706306280581 12.601555842751424 0.42318121175015505 -0.0536802631322753 0.2948345701522406
Ni 4.419092267923793 5.3870617487953005 2.956523774705391 0.5222393887965974 0.7436833618718289 -0.33408374546085046
Ni 0.6937220088652637 3.396855518736755 11.894216295385167 -0.0277152065270813 0.957310410005803 0.4117606286180392
Ni 7.127867489003118 0.5944262164044686 8.077903922487009 0.5656542654471226 -0.9200019033633318 0.4673910734981499
Ni 6.787615160137431 8.055110925259848 12.70148169764833 0.3678022207592182 -0.18903650327880345 -0.5404119459405661
Ni 1.4909771429411185 0.8946588778917268 11.819980608119575 -1.3771075357750735 -0.0038137173191353673 0.6490179145764435
Ni 8.71102732662188 5.675578227109447 11.201492893601065 -0.5026534962448698 -0.08243496666746448 -0.061175285957739814
Ni 6.875405100459916 4.4296925798105 9.609479608486408 -1.3785992898292516 0.7197990990550636 1.6217282040770844
Ni 9.03324330391914 0.34180561425101696 0.9836503109838105 -1.6780996408882778 -1.8524242918782032 0.8662583910932888
Ni 2.168261688369769 6.23226677479626 2.8134186335665476 0.03629729176913749 0.1162100062353805 -0.6000258009484569
Ni 9.026914759509165 0.8470403038798512 9.90082531841913 -0.6144453188078965 0.7974780390947814 0.6875191559754353
P 8.843517265181287 8.570933828087547 8.433228424399685 0.2738096311611413 -0.44312063098655946 0.42843166151581696
P 9.000716446988461 5.125441584223547 13.323401716840953 0.6661954547969946 0.003948700235102877 -0.3204013628777514
P 6.758503855851549 2.2994673046812695 9.907131526790012 -0.26213785125016786 -1.4800565632354896 1.1124392047935678
P 6.954121024900451 5.633912207516128 3.2636703709605466 -0.20908545150987862 -0.9570507285865131 0.3863730417828701
P 5.97905985161659 3.1692419736856583 13.40081098299449 -1.1026664416775203 2.3501379276192944 -1.0105890668242852
P 1.308286956517885 4.278794022364433 3.253903937866683 -1.075755219108973 1.0410833787584004 -0.49386469430864627
P 8.366307789937387 0.47169154291937837 12.215296857361812 1.2639062344590297 -0.6828523466273853 -0.707601528547607
P 2.182835953878622 1.6750912518565966 9.980591036697085 -0.2437138402170254 0.61509195125296 -0.5562576547235711
Ni 3.6133196576067492 7.935454902496552 2.324919221228914 1.2324616427965032 -0.7365616632253831 -2.0217430050131053
Ni 7.299640936319146 6.464682568252573 8.798959659193589 -0.4465941913574567 3.013112561486146 -0.4250455186524035
Ni 4.248956796807994 0.8069033722961793 2.763865200168152 -0.29914399616087195 0.4658967483408106 0.0035910597853680087
Ni 4.043921264607778 8.329164818260612 10.049787155142088 0.1886282120967913 -0.032261688247183146 -0.6046429880054941
Ni 6.636660762593629 1.242432867922327 13.10388126328826 -0.6274239904557517 -1.1234268141533235 0.3948461122508877
Ni 5.089275814257134 3.303276821615735 11.171893919128298 1.647992794200568 -1.7949403387291218 0.6431300883370987
Ni 7.128565490224807 5.057474878597013 0.6744413537856401 -1.037165788871549 -1.9761604312872998 0.2999266399631673
Ni 2.4159590552395787 8.739477856417897 4.035369353639652 -0.39621676734616923 -0.8566810318174989 2.7779211569178353
Ni 2.906523620525115 3.2077902544887675 12.21927453365714 0.5262508239488356 -0.5222373319140684 0.8757311064704143
Ni 1.7098610193796329 5.785722819891869 12.466269245963785 0.7979354383471742 0.28712743131597 -0.2793436736054931
Ni 7.731564092299903 4.901113298255864 6.927179108411576 0.7369858952469952 0.3425742994303649 -0.31075895469198095
Ni 5.909697143546678 2.6598592954634044 1.779046900473383 0.1724847695677094 -0.21841907020597867 1.8142428957124754
Ni 1.5365705827418024 5.921144363582368 9.73408771725051 0.4683146137536838 -0.2907056355855316 0.6425613603178224
Ni 2.3287833559921802 7.294094153277462 7.95821439566507 0.761646888328785 -1.6082383971207657 -0.11284520352820565
Ni 4.198700708846433 7.289682785556392 12.558198798865028 -1.7581699639783073 0.2651740669733304 -2.2123193419752027
Ni 1.7854498983470044 8.83705842720993 9.526281585534338 -0.9574417933773445 0.4395051457211592 0.21266648399291763
Ni 8.210430157109943 1.9700572614591423 5.774642283164641 1.1734705089742758 -0.4027993056596934 1.4005829931891944
Ni 5.509453936347616 5.406224209001386 7.480298543184823 -1.1420598558734785 -1.476771721836631 -0.8427780485831614
Ni 5.224539144337383 1.199073032031046 6.72100723022245 0.2820543876684368 1.2548346111750648 -0.6402987895358909
Ni 5.491408278096233 6.652175003081022 0.6458307490427819 -0.09625747437285358 0.1694935481498694 2.589120938019554
Ni 1.3247411719838185 6.526562703225985 4.9493572813623725 -0.428199748010669 -0.3952711156034483 1.0059253428000288
Ni 0.9259228179452962 4.459836925904482 7.125518482225063 0.2518110154028631 0.25779371534885925 0.21972107684685382
Ni 2.3909240780883567 3.892110652232037 5.101193021782095 -0.7148520394624334 0.4918114113240433 -0.6024488085676527
Ni 1.8644822500080385 0.5333334268091209 2.2144917052846327 -0.6564350329761212 -0.44586296961838695 -1.4042105626394525
P 5.105488055966217 8.902530941804299 8.054598127028981 -0.2106926480959984 -1.2301998433455201 1.853599286022911
P 4.861290001887804 8.895913890222692 4.654442458516084 -1.8944661994406018 -1.2515615968507479 0.6665145286993102
P 8.886188406533835 5.175995486039696 8.956558097699569 1.9971889698228247 -1.0785921743371358 -0.8845636171603798
P 4.394950732336332 2.984346103401889 3.5743581600804006 0.770250570837396 0.8310232220400785 0.4413797370360527
P 1.2589336168030398 2.0304762472084867 6.1668398629483745 1.1414211938482148 1.5541781249412523 -0.1132861477203662
P 7.6869757742584515 1.7717876877678242 2.5092427305108984 1.0281784977712745 -0.9183754235035022 0.33993660469720166
P 0.08383087739306776 8.294264757176192 5.064742467317232 1.0036476025094458 0.48632210607469795 -0.03886633804789435
P 2.2589087803596977 7.656449854163281 11.318718010776296 -0.23708193672280456 -0.0656268939711902 0.4632685666893441
Ni 8.222901112270774 7.050603407103694 0.9203918562646377 -0.21986840105799554 1.5929462468483857 -1.1334510311585448
Ni 4.7751659578144166 6.149911937319989 9.439064006213638 -0.3583966111746021 -0.31538668327197944 1.750109041347044
Ni 8.972712637974325 3.1627459089824788 9.869264495179271 0.44762340395291944 1.1484187082119706 0.14551055497171067
Ni 7.634346482143149 3.2041141147212087 11.847019314111192 -0.9533750795071387 0.04198071530715996 0.4511650985575907
Ni 7.463392022927235 9.093671596351438 5.5369244724283835 -0.07792165217814323 -0.46669481876207364 -0.10044245898847863
Ni 8.124147899426305 6.451634598748478 5.2581921099057185 -1.746000161384993 1.6447784010283288 -1.9237569779849188
Ni 1.4819868872057724 9.220633365235074 6.904608540907061 -1.7557677822947182 -0.1363988224784296 -0.5549489632144765
Ni 8.249043584693743 8.434507162637818 3.1392809692459074 0.524188284992852 0.2847977547415289 0.6162841717888483
Ni 3.043052659487359 1.5409168036821819 7.97258484481719 1.1245300745198312 -0.8134278775558186 -0.22745032717031152
Ni 0.8651185355215798 1.3462675296606876 4.30790439598202 -0.8244052025029285 -0.8676938379882347 -1.3129806233881773
Ni 9.08757571901536 4.508436424299904 4.7475037040647585 1.122318411580493 -1.316394791276049 0.6433398903550597
Ni 3.90800646672062 3.4416858105350596 6.689896850437652 1.361654434444797 0.39641679917211725 0.8373422222795709
Ni 6.455645779102447 -0.09289651726035619 1.7111043922225337 0.29791500884977723 0.6841404693111895 -0.28883310115316707
Ni 2.6845685387111717 9.097347736118998 0.12966256827742115 -0.6203236319655445 -1.181788541921668 0.1131640203202051
Ni 5.9472682226394245 1.2635125048173155 4.305683821428755 1.4666156072392353 1.688173223074196 -0.48848877470871355
Ni 3.6494668142072504 8.447946012826058 6.503993997058061 1.2322731809347809 1.394122325165515 -0.5384309109547952
Ni 6.312164647972187 7.464722878589921 6.79356771455599 -0.5982409411338923 0.4378475555130782 0.16798328215293007
Ni 3.315515109702671 1.520749221716866 5.1695180347024285 -0.0010811488793207188 -0.031221419908126876 -0.2520239027446176
Ni 4.152772228459338 1.6738813830723367 0.38428503793467506 0.4849995306085324 0.09649170187084673 0.3291515982665557
Ni 4.855333724796063 2.945862969379471 8.907684982825245 -0.1792591121770655 0.20421681056366767 -0.9317492737072469
Ni 8.62185999722193 3.7944928547081807 2.1602653863741073 -0.4697498035383136 -2.0827933353572066 0.10835065809196177
Ni 3.839574426946293 0.7423438432997794 11.916718924104103 0.6936934031069473 -0.22704152176766704 -1.3419885805847533
Ni 0.09021991524225523 6.94529828945831 7.1361699808680275 -0.18021736232527674 0.26043192430265466 0.6222676430657929
Ni 4.788744408246994 4.882769826149894 12.715906125561592 -0.1141101862835583 1.4117498084392912 0.2411501932549073
P 3.0482644019426317 5.524800656541804 6.974091305187103 0.5301830691237064 -0.4305962732673036 -1.2861725020563979
P 4.98957331975117 8.793940565075502 0.2147079677962266 -0.5056141215350904 1.6260782535156642 0.15038202413139906
P 6.45821442359826 6.6306858721359765 10.962821147861835 -0.001697699417397076 0.05108087783621525 -0.37688849933120255
P 3.363630660584389 4.258961480985527 10.3898021635924 0.08280777662585094 0.9008644112029325 -0.853274577239111
P 6.3365574639994575 3.1869339779847192 6.329804534846695 -2.0428065105516238 0.5013823428419301 -0.7782420736833049
P 3.1997958138296965 6.168851037135133 0.7683960408980757 0.5416525032158865 -0.9673665086902244 -0.11605111206001303
P 1.9662415214472457 2.0329425181917857 0.47945610850943965 -0.3718910461166111 0.18323866565010377 -0.27949999667769926
P 0.7502619691586121 8.030941469623519 1.816451389941219 0.6791291321395272 -1.9107837056537027 0.2754001155767128
