# total energy = -340888.52313535154 ev
CRYSTAL
PRIMVEC
9.07944126807676 0.00000000000000 0.00000000000000

0.00000000000000 9.07944126807676 0.00000000000000

0.00000000000000 0.00000000000000 13.28868005982128

PRIMCOORD
 96 1
Ni 6.5897402691250955 2.262369719434553 11.401208455821001 0.11637249995517378 -0.682339925767341 0.16981313627281724
Ni 4.293141056995577 0.6276072819752946 6.088115679149343 1.1486524214893314 -0.8844803134179541 -1.385762383236594
Ni 2.464932048884075 1.7840920041314368 4.894207316942774 0.8025210008353275 0.4763896774523344 -1.81248863202553
Ni 3.506343935386105 4.211135545584187 4.209082683966592 -0.4848475784117005 -0.5461375355704335 -0.37167173101695344
Ni 3.811785411182223 2.5582414643817337 2.283061765549096 0.5441680705488887 -0.640702966952845 0.7946516253895798
Ni 5.1393086435208 4.824969315512197 2.305413533484499 0.37533092503609555 -1.0093919611923907 0.4556316189693766
Ni 5.304454596472722 4.65245085644136 11.319191141136269 -0.7092015260448753 0.7742476078119311 -0.16977739793887534
Ni 6.04589991012162 8.00203824239017 12.258807058606958 -1.4773587046883525 0.5468271054382904 0.34252210603619077
Ni 2.341170188161241 6.772591132091654 0.3157974862385265 -1.2603521985591841 0.07402540244753059 -0.277519990133193
Ni 2.9399320859742253 1.624357398035271 13.332797795424128 0.3004948537618115 -0.21721862213997428 1.5197029739825183
Ni 7.9295207468584215 9.024655685953585 6.782794607924706 1.4469021879707082 0.2005643014127449 1.51486004406792
Ni 8.792557934823233 2.4648140161506444 1.152996400911207 -0.46445024570227106 0.19173204783309558 0.3419729184009401
Ni 7.114304974815198 0.9496096582158741 4.881078445208843 -1.70282156911499 0.21904281983290663 -1.1717476127458981
Ni 1.0695944714689196 7.372787581587876 2.4667379497055686 0.1644845249710522 2.0233612573428186 -0.6613964907464545
Ni 7.646160471654918 3.698719131996436 3.6142022471952786 -1.719309539467684 1.0076495245799872 0.5843191888464775
Ni 7.814547785055673 4.163377685749831 12.386603822924924 0.9038684881365788 -0.3968759981967229 1.592628972718283
Ni 8.127143860385912 7.590939311291314 8.751818482907499 0.7951195661649338 -1.1588879831744108 -0.21416518002563117
Ni 7.3727058666185785 0.6187321283653927 0.2139679232753629 -1.5589871162941216 0.4038264613726271 -1.1798525012412195
Ni 1.9859098194162415 6.612847446554456 9.042069145911059 -1.0073463915172716 0.28749047108234355 -0.07200194425959858
Ni 0.45126728617360523 4.917388945788606 1.2371564636797618 -0.2547418158964129 -0.21283900501503988 1.772085545618135
Ni 6.475657092543596 1.9889968293675118 7.2174537805604775 -0.2990776616993107 0.9098709855769168 -1.7814063087984289
Ni 3.4221048814805615 4.452657756506946 0.45857351237297905 0.027464009748223668 -0.29071257756406704 -1.2112477277230493
Ni 6.5139904925855445 5.884067953146798 4.576727410280805 -1.4170869043814884 0.08440546013027399 -0.513187048786342
Ni 5.393124417602441 3.108428352667379 9.258023650884475 0.8507296993300704 -0.3693356266846091 -0.10641153208771996
P 0.4917180118644844 5.683857198924859 12.654437346017643 0.7457824104927027 0.6901002864390503 -2.961751176295035
P 4.192195831589042 6.375855876707238 12.31149687081052 0.6071151036950705 -0.5519376871919784 2.2144680128870897
P 2.603130220849615 8.791205098109293 1.519042237659482 0.5462488643373173 -0.6998514522885431 -1.8052602325978908
P 6.52398695716304 7.950121998562633 5.65668515574496 -1.0078575268257353 -0.4891467200076866 -0.6033530655494771
P 5.036393179410071 1.026685033146264 12.545696512540045 -0.24219791779313127 0.32899630363561405 -0.607023829532845
P 3.978529345755979 6.236504615730488 8.227752238530117 1.1168756432983669 0.04220722949566925 -1.7034046953119695
P 4.871292623663316 1.1881447330387278 3.851298230614378 -0.652160059749851 -0.3035197566310644 -0.5695453729714127
P 0.3260735975998429 5.7150178405506225 3.3400303663173205 -1.1846869465153855 -1.299675164528523 1.8541618433946003
Ni 0.5831379956831442 0.1085438096071762 4.731075184012004 0.3838734152894679 0.4274736684779219 -0.002396782366950711
Ni 2.0316792816643385 6.275936628137448 4.627556845016675 0.2252011261248186 0.5685691251010724 -0.6705416475808323
Ni 6.264696280138412 5.795715912453238 9.064567092847096 -0.6036860234088636 0.25229258302497193 0.9022983154359815
Ni 8.80440660537149 2.2908973231607024 10.034800701369765 0.37789328644663306 1.499637313580895 1.1466310201839285
Ni 2.268489262690894 5.49174530610449 6.814169524358851 0.29746480868623604 -0.790033152780962 1.1830188147843435
Ni 0.6566841918839498 0.21296827681761338 9.020421942599828 0.036194447642686055 -0.4710075872048146 -0.33706622512794204
Ni 1.6825838533808466 1.1626133448535168 11.395096176117486 -0.5825068182280871 0.844280858380933 -0.7331480095581437
Ni 4.56603273668786 6.996544624615274 1.2592176895021039 0.096772209225743 -0.09902783802913913 0.06294446204302064
Ni 5.624977023824898 7.934977490919343 7.785505377022943 0.2030076207469149 0.30971174437438914 0.3785879985208125
Ni 5.200422361114916 2.906646855146706 5.070335761768391 0.7392973169889913 -0.24252753321840811 0.27449328749172724
Ni 0.5919913586345665 7.241507943689595 6.390140561284689 -0.6729623412071829 0.630983682782552 0.48108579737642315
Ni 5.406652784741831 4.685245797453089 7.0369808232005 -1.304048353895554 -0.38345535391544283 0.30386582711657345
Ni 0.842474069912939 7.398019348218995 11.252694222953599 0.8782798410341971 0.03222594991324128 0.5077154841488094
Ni 4.599499556336043 0.33230209414858214 10.364372607599678 0.29908203257468496 0.18081360114837894 0.06382994997176748
Ni 8.053654864663615 7.674760710909332 4.059917455177114 -0.20802589989711268 -0.904258524486146 -0.04656036425804239
Ni 7.200378075809438 6.27225037507799 6.864811922609438 1.4489804106559756 -0.40399615418127194 -0.057327372966559334
Ni 2.8211639178196215 5.671436523591515 2.3619030917604333 -0.7977639457663164 -0.4667909780203057 0.4217475646274221
Ni 2.4603106133982036 5.598864551413565 11.232389868971172 0.3068853306691876 -1.6216179037514653 1.179209211230266
Ni 0.7318746748558582 3.4497699383085623 3.3134130769845447 1.3045633458587595 0.8846201814299282 2.841086219612094
Ni 1.441161516309452 1.2455086414861543 2.4745780470376917 0.7121109863821865 0.2392676315202137 0.12244056052612462
Ni 1.2898617109330803 3.515795633501612 8.093789625806542 -0.8635530763469836 0.40462813133831604 0.15003646786652222
Ni 3.797603324288447 2.689512022838981 7.068528249014275 -0.5723777002138852 1.0667710133324917 0.39399507710450205
Ni 3.9081818366311514 6.975979690675194 6.093723141931416 1.8712715064916936 0.47695737703034635 -0.6866750628075852
Ni 0.68111152003953 9.124838238313334 13.36482370778035 1.0801826587527075 0.11440097805109976 0.0438805034330341
P 0.32051516379934997 5.593317012942312 7.860467058080817 -1.0763113487227594 0.6032574205118773 0.6557549761899609
P 8.683177908696903 1.809895775547642 7.9810483906097405 -0.67093296948198 -0.19439365382565876 -0.4034947890648213
P 1.7222519312546682 3.4788695468198005 10.540128795342937 2.753530900998929 -1.40615663062223 -1.522888056578719
P 4.258857087654411 6.182073366736769 3.9082808025384126 0.2341259394182742 0.7019021641699847 -0.16133466648816086
P 7.1578136562460415 4.2268520580125655 10.411148979858352 0.12398090843005101 -0.036389594372627655 -2.392396579178189
P 6.514172081406208 7.926170433117189 10.057165180522615 -1.2408316120277534 0.05495758718280213 0.13249434521770084
P 2.3426501370496435 8.444443086171322 5.805305618072449 -0.4090771682486051 0.8538870140121293 0.4116035342148847
P 7.076489102912138 3.9698766384513893 1.2910075363914635 -0.5573323758449885 -0.11538751033408515 -0.016771820141700144
Ni 5.333045756286103 2.931715191839227 0.3824551105274829 0.13553853136066335 0.11409553099553899 -0.9349536395771576
Ni 1.5894469472628183 1.3663923194014813 6.945089616392219 0.6783421174618576 -1.7868372500060128 0.8827340201508087
Ni 6.906667237828145 1.017142540620426 9.261531946899684 -0.31695068532498966 -1.4689565966675864 0.16573382399712103
Ni 2.64248959772831 1.7602766303014905 9.165827374857482 0.7356784892894813 0.30624769708518873 0.6337332205032312
Ni 6.342425374823187 2.0822971654241362 2.4263798343132277 0.6225802892102051 -0.5582646578512708 0.3070287982255874
Ni 4.220932262458954 6.8916407629182865 10.257106275345865 0.9914022094831895 1.2610325124556605 -0.6547201071675434
Ni 8.402995437855003 7.142106223258696 0.36657879993692094 0.13107278227982588 0.6287751051670073 -0.25043624654252356
Ni 7.763920821854843 3.987835772814955 8.13244625394927 0.4935939571457628 -0.017945785845143284 0.0009705914433854252
Ni 3.181054801491526 8.431695550960782 12.150597372429802 0.5459189918017244 0.4154969557320199 0.0945482049912307
Ni 0.30554044170337963 5.043357110682496 10.459971858125895 -1.5173139049250515 -0.38378111268597775 -1.1070321748453837
Ni 8.888336958281908 2.3946026986413145 5.9879857875475855 -1.1496502666262265 1.1547919587281659 -2.011006335321891
Ni 4.025333864281855 2.779289535774745 11.367043427157371 -1.3946404024525143 -0.7954679506432881 -0.1296836152417831
Ni 1.0935460369143628 3.4489346297335124 12.631580761160796 1.3728629015661067 0.06994506173056986 0.10260578518838458
Ni 3.2467990340125477 8.675142603382568 7.933062636805452 -1.104785287792736 -1.05325549534456 1.0620856920416806
Ni 5.334480307969341 8.082936061995516 3.5128493548863555 1.7526580330211428 -0.39234468598527267 0.6530874566601268
Ni 3.0676798213106116 8.736910040731072 3.702837566449072 -0.18808005290280513 -0.07700891055588673 0.05711859938986292
Ni 3.4512408077559322 4.3010038529302825 8.926125591861867 -0.6475662697315815 0.28312345236289954 0.9682545677221325
Ni 7.6001367850578925 6.476574116087944 11.328214289635012 0.11565644772475565 -1.0064346783362796 -0.4263367266600013
Ni 8.401824189961726 -0.006641611115747468 2.13995615570514 0.018896836904502938 0.12140954815844897 0.6675815365112439
Ni 4.919005086292507 0.21734002767507393 1.287999517577182 -0.33465401614202367 0.9847507656049428 0.22944858854726294
Ni 6.194076387782589 5.715980261300136 -0.019143093474288393 -0.2465417965841238 -0.054544925125415734 1.0889043548964215
Ni 8.259068138597547 -0.24788871497520232 10.963944391552822 -0.4420073433177226 1.9169170722449502 0.9534149316061388
Ni 0.06268264500464438 4.849810666178889 5.660179832598618 -0.18519707492805526 -0.029526805814523344 -0.5596453402488812
Ni 7.36561482317169 5.932098196212149 2.26298258170429 0.6786280241333925 -0.8420977346866853 0.8835637151409557
P 8.574043027478469 1.6574247222779943 3.4954540538109478 -0.17038160718177753 -0.20623409810401258 -0.06914801975057124
P 1.95567528077586 3.4019576018280073 1.765441016361145 1.7754644893926972 -0.5678939534109188 -3.1719247186627695
P 4.800255077019969 1.0607783342257333 8.317969196411886 0.34632271072920356 1.2009044368155124 -0.5356317509431033
P 8.772401575729646 1.7861348783638948 12.234063765903423 -0.7692578679068236 -1.0938966659046905 0.7601489636270199
P 6.706747025719269 7.776377814952321 1.5291149695416562 -1.5508752858202643 1.4299709594330083 -0.3568081836415597
P 2.1199586868296327 3.675811702269805 5.7310221712597516 -1.139322145227341 -0.6520657002638318 0.7825954655559941
P 6.955578186673711 4.094383013338942 5.7163252800593956 0.983717439244422 -0.536069095590838 0.8559102150897452
P 2.3671192306339766 8.570502045475541 10.068447293950403 0.9159526729946226 0.11588501879579396 0.453896895666457
