# total energy = -340878.01202974905 ev
CRYSTAL
PRIMVEC
9.22437793256602 0.00000000000000 0.00000000000000

0.00000000000000 9.22437793256602 0.00000000000000

0.00000000000000 0.00000000000000 13.50080951872162

PRIMCOORD
 96 1
Ni 2.382186370342627 7.18148260578727 7.03474489177923 0.019278645723953894 -0.7575459787865341 0.17494094441768582
Ni 9.083779939848228 6.2428191342551616 7.7684196252525695 -0.2813699600069025 0.37378054982984016 0.6795862742816038
Ni 5.409239775850087 8.666552102695064 12.098804756563759 -0.32611769653623834 0.5662487044980119 -0.21082017481279822
Ni 4.584691083416866 2.783428360581364 2.3790177965312567 0.7486139664042268 0.9647121017865127 -0.5238895228055107
Ni 4.41857848605103 5.603237667631569 0.5558038215882757 -0.2358012702381681 -1.953088637069501 0.5948128892889497
Ni 8.525732749552747 3.883250938542756 8.955870103588044 0.9370215778497797 -0.3237322270231973 -0.5471009279249675
Ni 4.15163421377371 2.007049369583306 11.488297606668139 0.6015216687676931 -0.1069496639793771 -0.13990914962453327
Ni 1.105615487287566 5.164055811057553 11.884627615670908 0.6218102438134 0.5129214538297812 -1.0446942360381106
Ni 7.273154473436187 7.257131729010128 11.500016256362363 -0.9065259803640839 -1.0700504554147119 -0.5995262356042191
Ni 6.473502376976444 5.582298329780588 9.69891403770246 0.7563115921588006 0.4232161787531486 -0.168167116028962
Ni 1.6730069724037717 4.367991997603991 0.4387114133007111 -0.2684329402302603 -0.048126166083265504 1.1777172000657716
Ni 6.577894661760383 3.0801765978791753 10.217534391943907 -0.44257272890288946 -0.5587500821281215 -0.7232477197252963
Ni 8.235072601674162 5.323370041905252 3.1371565026541925 0.8452553064790604 0.42255591946133036 -0.44000985327171965
Ni 7.627804130862016 7.850886486187171 3.5699781506606962 -0.06456348570368235 -0.20898415004532395 0.28553617556945016
Ni 5.041011834143798 6.5952180434714585 5.817876949857603 0.9491810960304492 0.45469033810202986 0.5740705145352758
Ni 3.50817850842879 2.823010166184252 0.30689505299652353 0.24295845010823966 -0.4440022622605644 -1.4173432433666688
Ni 3.17460655452256 7.3769102761444785 12.053522285413775 -0.8535489139464204 -0.5972456671001585 0.6072187191524704
Ni 7.7552481360378485 8.155669156642782 9.028099749920436 -0.21580040163620895 -0.5393475092317936 -0.6790815667310434
Ni 6.464674647318564 4.298993650852744 7.661493403857325 -1.2443205990176183 0.15434255144104386 -0.08277898027044454
Ni 2.0774590461544653 -0.13235414153621938 -0.04153183909262241 0.42937577059664117 0.6364076820116008 0.9654078423019568
Ni 6.491434567629441 6.948779224304153 1.0604021989718924 0.04652616858599729 0.496373576773429 0.7384329121061669
Ni 4.391043717995886 6.101806069176778 8.143215324029297 -0.03514055245687496 -0.34843615752778057 0.4120228811404904
Ni 0.1766791222593602 3.0307708298043514 4.612429710223775 1.622115155102858 0.34983972274352654 0.8411970772492867
Ni 4.177204189334467 8.659043459078017 8.393358314385129 0.4508462817655913 -0.780087868642792 -0.5989593073571555
P 8.004149525127275 0.3377450624717737 5.8104919129045225 0.354227567398577 -1.8784734235567715 -1.142754825057974
P 2.4048783399961127 5.228515763878103 9.903086418316377 0.9878042077192857 -1.098066995232296 0.906196107828491
P 3.1774199897844757 4.33769914055438 2.2304416640061677 0.4682513646159161 0.7686294902942054 -0.8849274282577018
P 1.1808495135045676 2.0940444776329064 12.762031993516516 1.405668892352534 0.389916021939122 -0.3736748774899113
P 6.20014716205312 6.0045534528935685 3.281088160902643 -0.2607936785174476 0.9417390379301072 -0.42210289108431176
P 6.372855189623121 6.978712330615355 7.766327536343053 -0.7410333258434916 -0.627446359053255 0.2166180124414979
P 1.3595718354705322 1.0636261190507108 4.46795750342992 0.20252990977954793 0.8488898179078541 0.7428181856580562
P 1.4294557225009399 6.757659338429943 0.049395621259124854 0.6143794985669676 -0.8089916961613358 -0.018215237456446046
Ni 1.4071511767195874 4.9010780212806395 3.2306898497649272 -0.20988455037240628 -2.116223332880878 0.19382158337227265
Ni 0.5586080324722835 7.961099353431008 11.941830750391299 0.16022009326774342 -0.6195397026116686 1.505769908841194
Ni 7.431417125202383 3.0479558458468077 3.564024737158924 -1.450636715312476 -0.24977521591975693 -1.269113746801898
Ni 1.4856598570939012 8.886000053124498 2.7410285075276066 1.7510968591816098 0.5823638648923196 0.430583160641181
Ni 6.8292958572628555 4.708786639412124 5.0841487149923985 -0.4204766683347984 0.8973569122703062 1.1664493404614362
Ni 9.161707484414343 1.8704363327669997 6.817274647973253 0.47611919739976716 -0.23259484748572848 0.43512450015496024
Ni 6.583678346708649 4.563502687362372 1.5105518408784253 -0.2669144467032048 0.18911286504269367 -0.5476334033896697
Ni 4.60384089195371 7.86686310872369 3.148281102411145 0.3919582491801314 -0.6634641719087605 0.7193784665778772
Ni 2.339920270768534 2.6465570411836365 6.719258253199269 -1.8237670331528268 0.3482836911103163 0.961743506076492
Ni 4.852650037264056 7.313262068579826 10.333668387366837 0.12027389189210899 -1.0116612168425414 -1.0074299523700134
Ni 1.8772346992851372 3.099824522823046 10.527336968857005 1.654139273417938 0.5417206374496606 0.17084003487543484
Ni 4.267040405779707 3.814003533587995 6.389284729114919 1.4972947814906472 0.950156315459525 0.3201982457280098
Ni 8.706816512263138 1.0507396631133454 3.1952368757136247 -0.11576520538847805 -0.09408746330472828 0.8717497532251631
Ni 4.482005308545893 5.060041725767839 4.160342026518787 -0.3195456997456755 -1.0978674776269803 -1.275457429631739
Ni 8.999090926275608 2.468176021200265 11.174485192678468 -0.8552162743465141 -0.1381343171122976 -1.1387588165247033
Ni 2.997092626062533 3.0342207471419136 4.453430953100526 -0.8637891036171899 1.654506169839054 -0.045041613620670815
Ni 8.350764749395305 3.525068344378193 13.17544001577801 1.1644945307279106 -0.14088925414961545 0.7761124289348118
Ni 8.384221568067334 6.084510360599426 13.265665500970965 0.7508783369583714 -0.25639092146406167 0.09760704642221253
Ni 5.972249681460029 9.203761423296553 5.2083558859603425 -0.7171853155813004 -0.44260692457493456 -0.772655837844779
Ni 3.6719112162943834 4.5397222411157525 11.919486539784943 -0.09668427749762704 0.465365815538005 -0.18921159540408705
Ni -0.042999437617772605 6.678025283950863 10.227147116161749 0.2888287302777929 -0.8959618316949924 -1.5451892911790808
Ni 4.284133178043084 1.2621070584954417 6.573436519917485 1.1508327169701018 0.04729312865900888 -0.40898178032132143
Ni 2.2187580669479954 7.288715998966849 9.784792996025201 0.6378639548421531 1.4492249225666138 -0.6663844308793492
Ni 2.0975774143716404 0.27742132070513514 6.639603905088792 0.8928569675174235 1.0204297070637909 1.0914181224572106
P 5.199219139642547 2.4850935302833914 8.255218643025062 0.5685359578702918 -0.5149212578686293 -0.021398520280434114
P 0.7385184543127884 6.867374089266752 3.330515145046655 -0.6880912264288214 1.168248341343388 0.15731397536454195
P 8.951022692997432 3.55130247514832 1.804531842366069 -0.02502300440689884 0.1064848085278166 0.7705637312024406
P 0.8243835760686687 8.31883917745599 8.364331964422275 -0.20884839579840805 -0.7232096673985094 -0.4594401940821894
P 8.329410314538467 -0.11175057104108758 10.919752151875654 -0.5756620273921118 1.786619734678568 0.07193818090119869
P 8.392735668876345 4.862114248997583 10.922370952763714 -0.4758872838946191 -0.9357694506102335 0.21509566225970053
P 1.028896336227389 2.350436061583564 8.709385501510495 0.03598824516915092 -0.22762104842022088 -0.410478419471506
P 3.5322541347684635 0.8220387392044752 1.6997382971431354 -0.03904374416602308 -1.1540270555376835 -0.6011820260400872
Ni 4.2744844787514 7.988246697614019 0.7103813343802577 -0.7078002748219746 0.13479342566452268 0.30492280762617807
Ni 5.262479923335068 0.8187050490285528 0.34037585505111273 0.26532139118447207 1.878886856945106 0.6884020728010208
Ni 3.5350306725187473 0.923563164896842 3.908241623170895 0.4689604748677988 -2.052637380599117 0.5288525232377408
Ni 0.8438626948968251 8.221042322876215 5.4047253653019505 -2.416568291328387 0.35389306687729377 -1.75944625958757
Ni 0.3891322269212187 5.960008931976219 5.280274670757238 -0.17551327198138802 -2.3434738853355577 0.6362873543836526
Ni 2.799524900030686 6.509643489619678 1.9406329262084858 -1.4663165879415778 0.47710701523433313 -0.19206166325837246
Ni 4.382031500779847 3.9963879335834043 9.680566750043605 -0.411058460344692 0.07502170492252885 -0.6392847464490796
Ni 6.645749185651048 4.597632885621679 12.078917920232072 -2.1857045676011517 1.6434671384160726 0.45912754793777705
Ni 1.6567536185300151 4.857243777462201 7.8828526453892795 0.7819855998861371 -0.9566136410490943 0.029435788762613824
Ni 9.483767414691487 1.165324885485537 0.9261828882226913 -0.7873972578200117 0.032940973702394884 -0.07913855530437984
Ni 9.25989176286625 7.684275772414306 1.4559675070460951 -0.9292545323098512 -0.10494626039610314 -0.5271802777416404
Ni 1.5694356572536377 0.47970547116130174 10.852139306686176 0.4894580806005184 1.1717972350369108 -0.4817306300492736
Ni 5.719806131253963 0.8480404156513223 2.785513992426345 1.2125602758868859 -1.5132687883214002 0.5472081429267931
Ni 3.1970217928388074 1.4872372257161557 8.77884691203272 -0.3955511087377123 0.9225704354214563 1.056169840777878
Ni 7.097291708621677 2.252436270689814 1.3410409826913103 0.31954364286314646 -1.2447486876939724 -0.7461896732334504
Ni 6.693725175150144 0.5658869890794238 7.485010760847402 -1.6424996322964809 -0.6068932174922516 0.35724475695834607
Ni 2.7123822019345587 6.7015751207497845 4.367160881154488 0.0925658844538793 0.6368506830862903 1.1502375065882642
Ni 6.964968007532554 1.4123168283480232 12.016382172643114 0.12167128646026787 0.15746129957568367 -0.11796041326758393
Ni 7.808841771682868 7.1482102746734 6.114273738357122 -1.856946862338905 1.486167047008602 -0.7189904871108392
Ni 5.972858490401952 0.5908352415691863 9.916735730306726 -1.1748115963832024 -0.014302789775917302 0.012523586388307462
Ni 6.884125559547536 2.2873228679375703 5.856016985193484 -0.8305529672718792 0.322231988328587 -0.2086319089122278
Ni 1.9995591747220742 2.4347007537724203 2.2208427763551852 -1.2231172254671256 -0.5467263181943681 0.298344383077712
Ni 8.070334436616607 1.2765432099213376 9.11127781039174 2.189505943625113 1.2515747094768703 0.9395952521142269
Ni 7.661694495295716 8.712332690252076 13.30063327274431 0.398841606563526 0.19198093061910806 -1.0623392028133833
P 5.3277792945452385 6.530213852354341 12.487843817268107 0.5681826882959311 0.3888667547390013 -1.3143685048746396
P 2.279897243721694 4.833629370017923 5.708615115976073 0.5712800962743323 -0.5057735299310903 -0.14659633183672172
P 8.273602828195548 3.8556977217317967 6.6014777063197725 0.9192182311197719 1.2188759336922685 -0.366064412132505
P 5.779985972725238 2.910494166262973 13.115874517875403 -0.9882713771636916 -0.017030473119725505 0.45663023543722
P 3.724508619125348 9.237015305654609 10.640797739562222 0.11008615272582975 -0.2992237003588718 -0.6880007235975442
P 5.291721201303177 2.6596464334349754 4.324214944928581 0.4767090084649661 -0.0792480842990506 2.065315747397733
P 7.501503948546765 9.120400720142674 1.7764362321341238 -0.8177771556634498 0.8618872586087867 1.0121152736608245
P 3.767789400269312 8.287937511464456 5.525907862753887 0.2066336475352764 1.2311539797286732 0.00884793730893315
