# total energy = -340861.3112261702 ev
CRYSTAL
PRIMVEC
9.37576974489794 0.00000000000000 0.00000000000000
0.00000000000000 9.37576974489794 0.00000000000000
0.00000000000000 0.00000000000000 13.72238673898626
PRIMCOORD
 96 1
Ni 0.7145799121017495 0.6634932182351395 13.334304029756602 -2.4378796512116527 1.048744237737768 -1.5093722814804715
Ni 3.5586202632765414 8.213699288284948 11.842830965064138 1.9862653809317858 1.9488370608819983 0.45320141226132915
Ni 7.881647029075607 5.500445298771971 3.627499355276808 0.45605842209415004 -1.3150842999947416 -0.3440971638327945
Ni 9.111101083807375 7.353463043798944 5.986336124570787 -1.9763177828007705 1.7219246084930282 0.19093243474993568
Ni 2.7200889256142773 6.4221490893212385 8.475179191488683 1.2597582737289272 1.6007611149071141 0.5977143792064609
Ni 6.58434052912422 2.3356261138586216 12.205239153786753 -0.19577253645105638 -0.6083903708630684 0.7943037551318579
Ni 4.364120764334037 1.194613694577546 0.17421023896382629 -0.16844968026638732 0.33575779072916373 -2.123715013272233
Ni 6.12265887823235 9.419742046110073 11.558860465536952 -0.12959696906524776 -0.2748650690088492 -0.27290820239279445
Ni 3.567789766029725 4.659823164469666 5.013172484521396 -0.8046501313631885 0.46461016831890306 0.5006752894725764
Ni 8.635955827646006 4.525618397180233 6.187355439375567 0.8810106097017989 0.6712451014057601 1.919075770459166
Ni 9.023550146476879 3.86481414969112 1.8683030623465167 0.23408531598832588 -0.43316994753175075 -3.615261322314877
Ni 3.639401894893542 5.653007823107142 13.442120693263995 0.27822447239938536 -0.11644140551989625 0.8147877340178227
Ni 5.479406071595956 0.8932689562447126 7.463152986089655 -0.32843965980119566 -0.7162759163931535 -0.16237082106215905
Ni 6.009699605052033 5.23699554635715 7.677675284396616 -2.196000293100205 -1.4061936545077525 0.24710615372802602
Ni 7.013666398828732 3.602611374644574 10.499012209276078 0.351008289130331 -0.2263586367680295 -3.275311604991553
Ni 6.888856152764954 6.5070560596002025 6.071785951914587 0.4315246986188439 1.2655676813218528 -1.1801522918698257
Ni 2.5067901652513753 4.779683004139088 2.3995238594245665 1.0406768873486014 0.6737190168675494 0.7606048202175159
Ni 1.1141320875905065 8.42596671398236 11.672344781819703 -0.4682747616546838 1.2870518193375577 -0.7767901717281267
Ni 8.169886316540955 8.181643531727552 12.395788546582862 0.47876691943525934 0.6264778244923984 0.04894506244013506
Ni 6.682176685800566 4.227487672695857 5.2237147685965315 -1.9833453790715134 -0.3689409623493517 -0.2461928978851373
Ni 0.814430921683678 9.009233346165926 8.641782868506029 0.9098571016198459 -0.45039916692584364 0.34861896296254796
Ni 8.49119394368982 0.48416568417654077 5.257210643377741 0.06903489121147466 -0.3475604397910466 0.8136986147187019
Ni 2.9215367130937198 2.58859375576418 4.346827157147691 -0.1512924517608104 -1.3421634155997206 -1.1498742097115744
Ni 2.4543327338566305 1.1000121784429666 7.196376710590141 0.7570289299407995 -1.2298769127884623 0.8166818657167418
P 8.941455907103798 2.7210077510435324 5.1718030069975285 0.40594042239183636 -1.5021600800027484 0.8182332693642617
P 2.4864166177230853 6.936513190080322 1.0370182570747792 -0.34431622182213606 -0.5365851159953081 0.5520726701079459
P 2.3081832359868755 8.00626975974566 9.99361603222192 1.0465816828688104 -0.10301613325292582 -0.9435593789682977
P 5.430595814609174 8.494587972316253 13.484042572262263 0.015475469927779801 0.07337285646519622 0.04011126619858898
P 6.633591447286256 4.660048182942137 12.23235481729645 1.4747354081328923 -1.7397446673935844 2.643842755042466
P 1.5150587509152722 2.6120238042101973 8.551173555103867 0.3608689839744947 0.217913848434786 0.5433995678139804
P 8.17910269814257 1.0126862595849415 12.224039447161687 1.4059992791087592 -0.7083497195675413 -0.10639353436559096
P 3.115502636363509 1.40470594170774 11.981111379436198 0.11598632026034864 0.2113019995452232 0.4691718195476565
Ni 6.377811074474812 6.650167808091601 12.425799447771682 -1.005229602284585 2.6391831447832677 0.855064065039366
Ni 6.70455664804172 7.951430882850599 1.836851105356917 1.216385306059931 -1.753873907706115 -0.9926383958831356
Ni 3.5512509083031243 8.65593559284747 8.246193830863664 0.03599827247147994 0.27963086582860874 -0.19585198353874012
Ni 4.335327775627466 6.467640323839075 6.224405668444845 -0.8132653838360252 1.2636781776086237 1.2360907549086582
Ni 2.4748937967786455 8.933589636337008 0.20685854416539542 1.3463304024932168 -0.7753413550967421 0.8662861590074307
Ni 0.6641757742683008 6.1102078560889685 2.7926151920225073 -0.1252222370363198 2.5380277188881646 -1.4402988237215775
Ni 1.0724755428743582 2.475446967190136 11.404401222994247 0.02369837205820435 -0.08181841612938812 0.808692162643046
Ni 1.8821763887513072 7.972460734256928 6.516555589446343 1.044345337339124 0.005700907039519214 -0.4710746929973242
Ni 0.31396639948450566 1.0440294576461804 1.8096538726509517 1.1441211092778811 -0.406943409735054 0.24470422915475276
Ni 3.1100365626364073 4.488377839986324 7.469821971067507 0.0877293822971844 -0.7320897434969585 -1.149557449802104
Ni 1.701795955756939 0.5334859830342555 4.835028172597206 -0.6225602346055472 1.530865418357241 2.5884239119525296
Ni 3.928316237776304 0.2512565639378124 5.409022168561041 0.9454655948520749 1.061994674989771 1.1764401331255607
Ni 4.125273031576017 2.7171918127812162 8.55589425514091 0.13669501356260977 -0.8130553247077482 -0.7430722106503912
Ni 7.172538816162771 9.249271801674103 9.215035241087678 0.6915262202522994 -0.8051658946573423 -0.5231742419060409
Ni 5.376582005446508 5.9757218157089484 4.1963329276053125 1.4805345313131728 -0.2634879375201591 0.0015814855545069537
Ni 6.177075845491528 1.9885444958421699 5.083005092298758 -0.42978637577149853 -0.9809295920866397 -0.7214806005225446
Ni 2.47210919318182 9.239511625430683 2.8455836028651538 1.8843635637889609 0.13497828798181913 -1.5214610943242055
Ni 0.48376815154184244 8.735123343617802 3.5264885629846865 -3.1850406872194372 -2.2345401010466164 -0.5621249121376254
Ni 0.5943384786060963 4.07118421625586 3.725888682364645 1.1160014682235297 -1.973075621714389 3.512481216332157
Ni 5.423404599259796 7.529896277755387 9.126772682837993 0.4723265631265543 -1.0667751270975498 0.12313552971062018
Ni 6.562073076119302 0.11852941795093824 3.5188866889230495 0.27974296592644077 0.43709910738282787 0.6525115295519989
Ni 4.400536253795553 6.355637379166757 2.14210553964893 -0.5795847594852858 0.4589054046246419 -0.642428434284384
Ni 1.608572677766243 2.901069407868567 6.333059588185223 -1.7755729899461035 1.722586153336427 -1.2473244188409485
Ni 4.595449129803658 8.134999077538303 3.8435442785808216 -0.05419242688200344 -0.9022445793799108 0.8429122601681805
P 4.461075598659872 5.215937567641761 9.192668404924085 -0.27842321867375275 -0.1954272372964957 0.18079868875004346
P 4.439717595314523 2.7760247675626317 6.110757276192585 -0.740138581943364 0.02937922449306553 0.9126937997376926
P 7.195087542258277 3.69679098114327 2.5688990139611776 -3.625162640588989 -0.14975570340130984 0.5960285068636056
P 8.522443384054196 9.137897033570766 7.436518299564867 -0.9330471665830641 0.45416146218175335 -1.3635387959517034
P 1.6372531572365778 2.7623830226690926 2.2850382109393212 -0.4684125727841288 -1.064926246814269 -0.17628897380514802
P 7.58223182414421 3.8705239934300653 8.303031621855839 0.6388810832527577 0.25926207236426957 0.451779335102822
P 4.498513047017195 1.2273163792432955 3.4150631657250434 0.2612780743530339 0.12130233315662334 0.2401837155765799
P 5.892043071258887 1.5291880358324983 9.606960227936645 -0.6616543723935314 0.9049478372436867 0.6097026619165887
Ni 5.9332027001816625 2.087533872189929 1.719140192099591 -0.9430528716455241 0.20280630336938618 1.2531430824052547
Ni 7.721743277076077 1.835691322646724 0.47635660560483695 1.8069443051685334 -0.3831308806964886 0.39103522314522976
Ni 9.12764931730366 1.6060880987993786 9.4327415507801 -0.6599314761651538 0.7270274984827026 0.028071818535551657
Ni 1.0299470515773856 5.752081581382077 5.195775912508381 2.246922276761053 0.20234196213845795 -2.50183249991453
Ni -0.09480684549070902 4.225931294927935 9.999695281286506 -0.39777357031032784 -2.1343254417982274 -0.8540659627921549
Ni 8.6002153936019 5.824115619881778 11.78448367515247 -1.7595730149734212 -0.03512486872759112 -0.9716368539308039
Ni 8.252627484022389 1.9005810246454777 3.337599619000018 -0.9531331386996618 0.31340924783063445 -0.2504290474536719
Ni 7.9224691302896755 6.081358612764281 8.390526304568217 1.0352899120050751 0.5107992652804558 0.02933268752584626
Ni 4.750336845021027 3.817672779708497 3.20258572278666 1.1271901378504974 -0.3336137478029674 -0.9786839905855726
Ni 8.060630472386718 5.991032447606646 0.5518859310435827 0.6041958731657465 0.19832281367673585 0.6726581797032029
Ni 2.365769213400016 0.9677013166301633 9.99925649526519 0.6504263648881959 -0.0222050753421295 -0.5452296790441835
Ni 4.842453782188741 5.252343681333593 11.366842827207973 -2.1037989910745964 0.5882385785055418 -1.861255002795956
Ni 4.7339386238397205 9.120786253893304 1.8579700265752657 -0.5309266321579501 -0.097040118175149 -1.2899394252979979
Ni 4.795640564145138 3.468087831185808 12.92917795918935 -1.2834540746839702 0.4592023670397704 2.191648958110045
Ni 7.5657679725751 2.1455511350086383 7.040888008535882 1.1087607275007163 -0.3286800579467759 -0.16454391745407793
Ni 1.2261162807234518 4.588567314853927 0.35161574023673725 1.138342297812575 1.023358707785128 -0.16229857306332693
Ni 2.5408992153700667 4.0563892516909075 10.053610644867467 -0.6199809039141452 0.5536734389361626 -0.5263894064092289
Ni 5.891105494290259 4.826955634897318 0.8998273071402664 0.34312168729340264 -0.3584328637291762 0.32640386031808943
Ni 0.6560769844132909 6.250497497904798 9.46110512923504 -0.20991488938970945 1.796614641107751 0.46807961492474226
Ni 2.3594124415527173 6.379564343406147 11.550502904438602 0.6264492852473083 -1.6300876317853732 -1.6091375118962672
Ni 4.479414604166239 2.9547831924012735 10.82721008956739 0.25791070054269777 -1.9605880307703396 -0.8317706417290642
Ni 8.850182789207848 3.6374048559503644 12.96938407233503 -1.5230279245906932 -0.4140666510433966 -0.5590563005146307
Ni 0.7912718329815942 6.79630793019167 13.16155266055596 0.16993577789361056 0.8434120826227346 2.85526225400216
Ni 2.220032249396458 2.435899970653401 13.75038006174046 0.3930658804220134 0.1947764910863742 0.48136810450353235
P 3.804677962923311 3.5981016294254724 1.1798318560901548 1.5792918892897447 -0.11946939371294261 -1.0224107420495616
P 1.120948272152433 5.779196307314804 7.178468990489343 -0.46416202503789095 0.17221017575008404 2.6235382391571593
P 9.251850138337831 7.815022809684891 1.5015998335306153 -1.0754986230134767 0.15520669921355204 -0.6029835980252003
P 7.581500514108679 7.450192859652309 3.9162458718821846 -0.31808788425322637 2.8487666189754877 0.6859350993177671
P 5.548224221093261 8.248117738803288 6.30557358177292 -0.5485155488843069 0.7478902008643249 0.7187349194566073
P 7.828420784566587 7.238581737832936 10.297416284635592 -0.5222332181490102 0.730449122569742 -0.18805382765056003
P 1.0303127065951507 4.794131065225647 11.829328919138923 1.0734018883854481 -1.9050030944161835 0.15360593038533546
P 2.96094307308516 6.808196406153875 4.249123198823921 -0.5308656970130278 -0.910699137905167 0.22452621154498104
