# total energy = -381168.5254034963 ev
CRYSTAL
PRIMVEC
9.24762258030903 0.00000000000000 0.00000000000000

0.00000000000000 9.24762258030903 0.00000000000000

0.00000000000000 0.00000000000000 13.53483041029364

PRIMCOORD
 96 1
Ni 8.433711542836004 4.332696115240157 4.652313370436396 0.681622330875026 0.6781354007676901 0.8665062454380368
Ni 3.5515586864042037 8.631129788947478 6.589973271068043 2.534181862779513 0.859402801624036 0.5648117149411691
Ni 3.6820426405279094 2.524258793016945 8.69432804142667 -0.6291669412887875 -0.28887963812038636 0.1859496368233636
Ni 0.7796827778094715 2.198317088761514 1.0763021204961254 -0.5172028548139544 0.05935828735365906 -1.2454523986292165
Ni 6.227709679738786 4.946534804596879 4.360327086645276 -1.398836442811733 0.08009963366606851 0.16880937759865122
Ni 4.141140861822833 0.5781669101478779 4.508167903525521 1.0264039223693548 2.1903292108573567 0.22708214519761538
Ni 6.672603552803092 1.0312116377242064 11.4038389083336 1.0373925601703746 1.0782635873531237 -0.2825398119452876
Ni 0.11874502206384523 9.191350762782637 11.972788713089907 0.5053636960871812 0.9148416993186308 0.6596090598287286
Ni 2.811175530128362 5.1672755547693 8.011902509933217 -0.9756212924998487 -0.40013255746080767 -2.209807631296943
Ni 6.996834446887518 3.0961687617502163 3.0611998018548663 -1.415787983064407 -0.0921791905384219 -0.7681476655617804
Ni 1.68766337177278 0.522978948318009 9.416573835603092 -2.273829385564542 1.5456502899758993 -1.054293192580455
Ni 8.605652588833316 8.2148850505306 5.4272770864606565 0.23592674007243883 0.2230192879821514 0.5976953530430674
Ni 3.6216279224350556 5.428298948751987 3.876794797059377 1.285930561248921 0.5547191065918575 -0.6916131235391509
Ni 4.397041072915051 2.648491354299572 12.180197165837797 0.4204193327343017 0.3846316336117312 -0.6879487873136861
Ni 8.105624390149908 8.11143189710878 0.18461953650784277 -0.7814947762926476 0.43370319432740145 -1.4185730020087117
Ni 2.617613542618561 3.4896828439490855 10.470679812464367 0.36537715625749334 1.6606742463229784 1.8320053619022192
Ni 8.324793044489514 4.096410111567953 1.1203494714448583 1.3574825624552942 -1.5752601424225323 -0.616349477809145
Ni 6.5713975716599435 2.6282020704337024 5.317171193379261 -0.41040462881077705 -0.39761904701033457 -0.2650851068039499
Ni 1.9832451312097759 0.7659685535737907 2.6937695638091737 -0.2016868450529623 2.1565641985917696 1.59135139155744
Ni 1.5637822201469005 7.5582668592762 8.352330614906917 0.15359693152427098 0.6631062743487097 -0.35302557667067586
Ni 1.9738495467030652 8.025956121916336 10.905879402813728 0.45539610591980284 -1.3111222300232 0.8785428648875966
Ni 3.5408499394959647 3.9125673753539716 0.6176866250981016 0.6889607735179684 1.0997798641583447 -0.7315768084162819
Ni 5.870548001768143 8.609305399738977 9.995147641142992 1.1096708980198116 -1.0404251763491112 -0.690655901832204
Ni 2.050382870893553 1.3734199100380073 7.118968722614463 -0.244378727494534 -0.22362144034252457 0.519399348244641
P 3.3715167230566188 8.011835002288631 4.204189302816781 -1.0799430319380756 -3.32927597502315 0.6988610633508158
Ni 4.529605742111601 1.7297862924696958 6.718107404302817 0.454680567910017 0.3021899820760473 -1.0962679943503444
P 4.434947077731001 0.9356652015791938 10.403655818537905 0.0193254398014893 1.4099508075573395 1.0202990950231978
Ni 4.860846334085875 6.210296406484716 5.860080617808355 -1.5637824808002359 0.9345733734196032 -0.35550180612531035
P 4.435409458858301 5.809384226249065 1.5119761138820946 -0.5062892932252442 -1.252053705995818 -1.5185441777877267
P 4.20637359126214 2.2842182545910745 1.862176181600127 1.2696570208998779 -0.8422805401214526 0.6227906054487984
P 7.9744283690901625 6.681925156329435 3.9720933969201577 0.6833184876305264 -0.7081728276700449 0.12813915357279868
Ni 0.6158297024908698 8.935330332597323 1.3182236253478468 0.12511425070354582 -1.1584758353376563 -0.20956753335261968
Ni 6.071988963687115 1.8269418149377081 0.30845722430775635 -0.6522863009150702 1.0105127050603953 0.28835436174453566
Ni 1.3124318393473027 3.2776718494600656 8.847813607108979 -2.275592905222868 -0.9309877129508739 -1.0903948233990188
Ni 6.80391054533339 0.6993791979069892 3.7943272734811364 0.16035327641149802 0.7129661352936302 -0.46794746022225214
Ni 4.430905866678411 2.9817386803663233 3.9348865123686823 0.7181618205619567 0.07572670140935345 0.3847049100518278
Ni 0.9622706116439634 3.3862019476596266 6.5553381503466035 0.196069755976501 1.7710151953720918 0.2739880657205346
Ni 1.038683716741354 7.373675065635996 3.6124330113375924 0.7333020186375049 -0.8158670831249304 0.15700518587487153
Ni 1.9561033590373393 3.1124445774311322 12.657895130359439 -1.0967212798376789 1.9900654714041661 1.0247512172572804
Ni 0.13523908163684603 4.559207381881266 11.571657364199917 2.1115112721171894 2.2834679370955704 1.1738772574943912
Ni 6.087672931525089 8.454555684054633 5.296720076118837 -1.3116127965063733 0.46308910368868633 0.8064103085874048
Ni 7.530690448844103 0.5178798092461584 7.1496255161166244 -1.5496452700679055 -0.7495069105321414 0.2869363983510865
Ni 0.842455639651549 6.682461518437101 12.867766224991321 -0.3369137587104778 0.9372426927216504 0.8550512095235597
Ni 5.0111386957030595 4.916202602646082 12.385167945282564 0.8507816356139283 0.6015373524969769 -0.029285893448310854
Ni 6.553882574557866 5.965530332937852 9.62292620985623 0.26347353934245593 -0.2811742990563286 0.21145549440395198
Ni 7.750968817889224 5.87354423147304 12.99977141302384 3.066315627871687 -1.4644463675020585 -0.6338440350494825
Ni 7.322230541412737 3.8075421260993347 12.363011566424662 -0.9995271525831689 -2.0940303417236064 -0.39467281989781705
Ni 3.690531958025115 8.918175992774538 8.919358763698169 -0.6885545392184852 0.9724205261743641 0.5545244740825482
Ni 8.260993696544833 1.8606031610050566 9.17206762024977 1.1837664915836452 -1.2872629069070993 0.4508563090679203
Ni 3.7252752759303425 8.82296247104118 2.2973212109764662 -0.43818128470341305 -0.451111619611836 -0.9738456886566648
Ni 1.7364723235704356 9.080850920980783 5.344958449605406 -1.288392906746484 0.5745937340285975 -1.1505067010892507
Ni 2.446190363483825 6.876319429868373 6.102408093289845 -0.4552351548619063 -1.8936745567772422 -1.3642219380616571
Ni 7.096616294158588 6.5856296627581985 6.004267699020687 0.6588230735923234 -2.35591082554733 -0.08326671854014046
Ni 4.50741144800126 6.76397931117987 10.900884761876647 -0.6478686314633487 0.683683584279429 -0.6920309278028598
Ni 0.5003444673744808 5.909304787858325 6.775238291629595 -1.2904032523082938 -0.7949097641469729 -0.18718402345109697
Ni 3.948466646077446 7.444891006862548 13.119798155572557 -0.8177727847880756 -0.32853736172132453 0.8773035931638569
P 5.868578258165851 3.688284785746443 10.675570137592986 1.0501287767901204 -0.32418294140737075 0.02405164163256503
Ni 4.5166313276795975 6.934986347300038 8.334247813780518 -0.09315106753338796 -2.5369763948055146 -0.2132025590020457
P 6.370002847853702 7.391393510434082 11.80030113260013 0.8946577681715882 0.37782206688906544 -1.335162301691539
Ni 8.092677718585543 3.9524893618849455 9.959212304691588 -1.7097388650601135 0.3438292548833885 -1.483197937077949
P 2.1336947024102413 8.611404610056912 13.349308426205324 -0.30487832754148786 -0.917857089106187 -1.0857994907188526
P 5.509964703455491 8.606568103465369 7.731365707616267 2.0480199364317633 1.7246576911534748 -1.686361623786754
P 2.5073263961352645 5.927476366161166 9.993563523400866 -0.0017192966839518777 0.643386427322279 0.953815252368351
Ni 9.164356952570936 2.797063658123204 3.059927328992541 1.456967285516194 -0.5222962101764618 1.3963291030088467
Ni 5.540074962465185 8.888962753151803 1.1352529399399516 1.308934478343262 0.8582581464966317 -0.5993668272082194
Ni 4.3814773241701745 4.724971016017866 9.616036731059479 0.8452774179662474 0.06775345339588977 0.7759458214499605
Ni 9.031292911756903 1.689642362997619 5.635470662362699 -0.44655999568541155 -0.7388082931677147 -0.5393133135597485
Ni 7.861505650181262 1.2002211873744437 1.6135815923192298 0.33708627973260014 -0.5722697138811111 0.1391964398282248
Ni 2.2714195449874452 6.517243494030715 1.3489599484039037 0.8795684779386336 -0.12471701526512714 0.21984911778428587
Ni 0.3139438387642833 2.340369818690234 11.253548396240927 -1.1147192590769963 -1.2028463910332317 -0.4786455633660467
Ni 7.897663854336025 7.22816372487508 8.065391683501389 0.8168358747961028 1.061818554423223 0.7160992816059731
Ni 1.6369031716179239 4.904615331595974 4.691686972950393 -1.0421411305989536 -0.7711440291859428 0.48988282684276274
Ni 2.448983145492709 3.420806551226665 2.642445258679013 -1.0923704590681511 0.15480123624501727 0.6018366289049506
Ni 9.17264282237213 6.256192357180389 1.7419866808946003 1.3397069836394282 0.643452247563208 -0.7145640759083693
Ni 5.374348318818769 4.655484380207411 7.495250784961163 0.13989063768177198 -1.1712526753873507 -0.39899664408415153
Ni 4.757642866472795 0.39530257239926114 12.634290573810837 -1.207629671354488 -1.3029798034217237 -1.084912460128209
Ni 6.105252661984987 6.795365742100909 0.21717024310741978 -2.994463064705759 0.45135561730184204 3.1622370590613604
Ni 8.552173587649943 8.893170421410222 9.818409853331083 0.15017325055470268 0.5113793061536418 -1.244153734422451
Ni 7.508311202282844 2.8769261264302437 7.347057633661916 0.264797400360202 1.7505816101080882 -0.29083007697853785
Ni 5.178215492241187 7.085667109064153 2.859936394288778 0.5276237930369623 0.7321504215315648 2.1355001788326193
Ni 5.956014529338044 4.119917568079821 0.9857743691068133 -0.8716386815685956 0.2205713406622911 -0.03654411767262093
Ni 7.258921317462993 7.933350429740941 2.2717940737005575 1.6609462690374428 1.4125321951312706 1.4875104484103736
Ni 2.7103209586419594 5.5279143388172285 12.167366089555255 -0.355211271468085 -0.7145000554396533 -0.3959961666949309
Ni 9.193237277782014 0.16194898983638534 3.6224481865548834 -0.8078809795956603 1.6611164760667199 -1.2304854929067388
Ni 2.0648091620652744 2.2812682629989083 4.740317445632911 0.22721429990010544 0.1275861092828061 0.047976270768962534
Ni 5.912190046092669 1.700545309979323 8.850520386228185 0.09369537007263219 -0.11177459617184621 0.32967276087734837
Ni 0.5180518150255136 5.668922087398253 9.263264899511409 -0.9745925941250182 -0.6550044711771816 0.4247696392831975
Ni 2.4938341148406873 1.4172166504157444 11.349104080008486 0.6647034436325003 -2.6544886647920864 0.48891197828906113
P 3.355647802767726 3.7674629299850797 6.239556808982435 -0.2832970018262863 -0.4551878465637386 -0.4883041695017332
Ni 8.567617117301722 7.063833472233107 11.12632053001566 -0.6921605114021886 -0.8441607878633011 -0.38064410971889284
P 0.2894311656816676 9.074747490100439 7.230347088558184 1.2359146343421104 0.26767215080483575 0.966144463357665
Ni 7.142290301913157 5.656909425711032 2.2601272730965554 -1.9480292202687228 -0.9587222027516651 0.9094958616256852
P 1.4027626163763856 4.4121516881551734 0.937314052679141 -1.2342249053445131 0.7557678038401887 -0.07518008487726408
P 8.0857697445437 1.7337072844291892 12.914597110326392 1.3381154707825924 -0.4556182492329379 0.7010501005823346
P 7.5551226676105685 5.064571458773702 7.547142894115647 0.4463545645428248 0.09936259566073856 0.8981148734822533
Ni 2.84520678109755 1.3077802852066773 0.38952743211929985 0.9425455929918026 -0.06946323699814488 0.24834979632714002
