# total energy = -340897.1315853473 ev
CRYSTAL
PRIMVEC
9.03503727011165 0.00000000000000 0.00000000000000
0.00000000000000 9.03503727011165 0.00000000000000
0.00000000000000 0.00000000000000 13.22369032037825
PRIMCOORD
 96 1
Ni 6.474814880615849 1.7800830378951245 11.40413694786925 -0.5362231046701991 1.0421971806478694 -0.6774735988139752
Ni 4.5737255889062425 0.2952379120358287 5.906969114330284 0.4014703024356247 0.010227591265279161 -0.393245086312355
Ni 2.747807807070188 1.616702459404324 4.616985347232513 0.3739744110082011 -0.9492353463071524 0.661335555601532
Ni 3.346288674140399 4.178623410207867 4.935094552548859 0.3988850582069518 0.8535242313560719 -0.2773253576238837
Ni 5.184250160623262 4.649041659375706 2.897733408096602 -0.9189197260427465 -0.23126198760691782 0.17552484194561382
Ni 7.212869003037821 6.158001299640351 2.646509679996953 0.5610219088814338 0.0651134446698814 -0.2433274034118842
Ni 4.978730168424498 4.474078163137562 11.66787058853752 0.2510098596578064 0.2846388605661614 -0.21125520546768778
Ni 5.827183410936007 7.835066842874628 12.296868197404475 -1.2478386394732057 0.9673791070957147 1.3796979222100691
Ni 1.6426420513330462 6.477832583055485 0.42270331397634553 1.1093906477752316 0.32996766640994785 -0.32008048920322296
Ni 2.8912390233253147 1.5239487670531342 0.41013015614701426 -0.2135918240206644 -0.07062357585483321 -0.6186619279924055
Ni 0.609404227098712 -0.04323174971081302 4.700294715152112 0.6774296329499172 1.2506979632988717 -0.01663426612257135
Ni 8.511185784986118 2.4406797860207057 1.223099193384798 0.5772725664123413 -0.12884363583899103 1.313039501650571
Ni 6.913971900918003 0.72013312604767 4.634347978305109 -0.207384666768688 0.1880296592808439 -0.3557278060931873
Ni 1.0404658540298681 7.480766892372042 2.669690875054955 -0.9734206853041042 -0.4012345322757348 -0.26754385275708764
Ni 7.440560976634385 3.949729776657796 3.949387348746232 0.7219174309496471 -0.31083917311061304 -0.8639850216780798
Ni 7.742177624964772 3.7409029608275755 12.529525827470572 -0.8681522656818919 0.4892526494579317 -0.15444128180243724
Ni 7.940252746474136 8.8962410022687 6.841447656957064 0.5691404242235102 -0.14443583385029318 0.26813983446987366
Ni 6.775961707009527 0.7568253158009737 0.34937133768575585 0.07137125265413514 -0.5496190663611309 0.16635088875582965
Ni 1.7750595571872283 6.503401738457186 9.17646087539686 0.12474041230389486 -0.3075149938333865 -0.06731790852036793
Ni 0.16348267441166253 4.964852351217073 1.3713632510619636 -0.868846206425123 -1.247007401821162 0.971574633234301
Ni 6.3934905103788475 1.9666565569923447 6.9724285918893845 0.26817171614907365 -0.4751061827542204 0.44057009665056385
Ni 3.414674871043395 4.391425642425631 0.6028971932752827 0.2783363153869013 -0.4289800778201192 -0.48270636369898157
Ni 6.103881426546291 5.784266984025024 4.949627409956505 -0.9024626089279877 0.1835564540008387 -0.5076314090754354
Ni 5.185524100874725 2.734779283363738 9.401065576767005 -0.32560836099998763 -0.022242870558600403 -0.5691507086361554
P 0.04473698691573297 5.572377290568946 12.46334146914404 -0.08898356641925965 -0.4410007564300792 -0.9680805040381134
P 3.761846177160135 6.151830369202414 12.569051404903723 0.6505955434762085 -0.272323276423602 0.7349431537853537
P 2.482819199728669 8.437559266481362 1.2637532469697788 -0.6792574301872754 0.7780608109104342 0.7188192516402975
P 6.454224030735821 7.898944556192659 5.6745897634113165 -0.9836960990881832 -1.1224814195209185 0.56836009441406
P 4.721873094602955 0.9435741146207355 12.450712294083793 -0.00181365616997107 0.041009095422510015 0.20512672397244672
P 4.038047265721976 6.1493005587739775 8.275940520253222 -0.17068833978891895 1.290413536720939 -0.6737066755723753
P 4.724945007266057 1.064941769924995 3.5529145548978796 -0.20943923530487155 -0.31883298994936704 1.6683785569457719
P 0.15429133102291664 5.6136041655152225 3.5515656238372877 0.5288898042335793 -0.6389682436499253 0.3434898692660988
Ni 1.5513158948664747 1.1036478694800793 2.4984046389752885 -0.5459213057945694 0.18439411941078565 -0.08368375147290105
Ni 1.8038271157734533 6.50449497796376 4.929289541119321 0.804553457884324 -0.21467168734840447 -0.6502291612757253
Ni 5.867777833275174 5.48507172567614 9.334417721029835 0.584308133102884 0.5856906152727075 -0.1909406622800518
Ni 8.649738081129259 2.516827079916656 10.146907901293666 -0.13293966028523554 -0.4519068618196217 0.17683610455786963
Ni 2.3823947607569687 5.214011573306373 7.032477256423232 -0.5490899333305382 -0.28242385519271357 0.057788371763377894
Ni 0.5980625448457948 0.13886400492807388 9.331971032944047 -0.6267372488013723 -0.7008063600026447 0.08119543783340856
Ni 1.4239037996456998 1.2814483674129704 11.434379928037488 -0.07872795012952248 -0.43472417939274804 0.14934149868202667
Ni 3.835355240180715 6.663421283093063 1.5195478004113785 0.9313206708102606 1.0587265457614603 0.4731670567499786
Ni 5.669359380350523 7.796378813394033 7.952819579777397 0.25386969770410467 0.3062674945795306 0.23880149051707258
Ni 5.226497994778158 2.70612918026169 5.023983959470612 -0.19250954942906845 0.0930245692578527 -0.7945333546441606
Ni 0.9004806009797621 7.485808443154427 7.008952729949941 -0.12010239931125122 -0.2111842430204363 0.2585593898702902
Ni 5.071456755663954 4.476626043640488 7.206779387935084 0.149562099333265 0.4258412750808214 -0.33061455596532735
Ni 8.192276075369916 7.200256091044614 8.99181814375877 -0.13483430620478712 0.37354966476595663 0.6246256017750081
Ni 4.580167570461511 0.27147034306066425 10.247540146121986 0.2863810400682487 0.05533708200940792 0.25975546706092034
Ni 8.37808161630136 7.147112001972951 4.876130092484343 -1.0041764784297222 -0.5983846658006081 -0.08390255235192647
Ni 7.244563913691238 6.104866245605932 7.028523524125074 -0.02332813320297918 -0.027455525107791423 -0.0625279433308923
Ni 2.398784318318342 5.208870637114299 2.7683796833720016 -0.7392309825274301 -0.4122414249091997 -0.34838447835423875
Ni 2.258732205992627 5.205654163855287 11.281341756680373 0.20855991802371177 0.18765093578518652 0.14013540670272642
Ni 1.1516781274714025 3.400652493240059 3.79962889590884 -1.2218985225686763 -0.03819682278469551 -0.9399739756098845
Ni 3.6712879988593388 2.7541413681785247 2.570301851351465 0.5696618439446189 0.1286790852366687 0.18329600125060047
Ni 1.0588521548222578 3.319165492332658 8.08953957036737 -0.1459512420535551 0.0794342321679277 -0.3658461254741118
Ni 3.5935324683338825 2.736486905402933 7.116633207332633 -0.8319087099688253 -0.9817004088143931 -0.15358870399415483
Ni 4.073347156235915 6.842287915420796 6.133623865651189 0.44713129480784924 -0.16436805399784596 -0.5169357171954968
Ni 0.8571693429411983 7.405866433615823 11.534985067754077 -0.3950363738848229 0.1398351018534882 -1.2651210807027373
P 0.09489861019301415 5.466098147462864 7.976715446281431 1.0899595356338132 0.7966149197635377 0.01698393615250623
P 8.546458570388324 1.564154682790792 8.011347647543008 -0.22510702374911556 0.8832664956155111 -0.04154568465227038
P 1.8001137154659979 3.2589560041358605 10.186710854370222 -0.3941804536424308 -0.17955067527555527 1.3065227835779756
P 3.938399839953296 6.2183463133958155 3.92818934436338 0.5142897949322175 -0.7160103214365927 0.1362900648147072
P 6.771904975286783 3.832753149454323 10.425742703212254 0.7148391839466269 0.16757139142649205 0.21112022255172025
P 6.42237552444925 7.676492904197857 10.218408475534813 -0.14044316775113233 0.07000419710327944 -0.8882269249445799
P 2.5308223526082587 8.427259324022724 5.743378922975413 -0.9250214680651101 0.9502733006533635 0.6042295546171593
P 6.800871304692386 4.04705519785466 1.608106524969985 1.0605972804216122 -0.47412016469186735 -0.3898370890720706
Ni 5.332189860463353 2.7735124880305553 0.3634253381194472 -0.5178374030741598 0.7416164520404712 -0.15347171880031632
Ni 1.4964099735321499 0.9745191171828652 7.082886439721009 -0.124624712661637 0.36587517893983434 -0.9493736716572296
Ni 6.875365186772607 0.7196109008949426 9.189142453673123 -0.12865260287410749 -0.4444820301104603 -0.3971043121574451
Ni 2.6204770271846125 1.4455788539950574 9.257654237593817 0.9762859226670413 0.3349296384009135 -0.5059897597069544
Ni 6.310467553139896 2.04993249527414 2.5062461477997187 0.9819387500774444 0.21963391644968627 0.3360676086600986
Ni 4.278361186348992 6.918823715918256 10.641513848668534 -0.49962447961055884 -0.7169865693069329 -1.3562252930094256
Ni 8.096269769610737 7.303734372604927 0.10661343948412581 -0.9733034429999494 -0.6122537104732166 0.873580892896631
Ni 7.614837810041953 3.8240885487369267 8.060248883124693 0.098875628721991 -0.32926806923976193 1.0110431236425685
Ni 3.028942025967481 8.303687119630828 12.36047395610145 0.9125508464019252 0.37307940999775746 -0.016258627950707483
Ni -0.026879235802141892 4.9680868945505745 10.189171095011877 -0.18297127092133003 -0.19955308653941117 0.1712367560932212
Ni 8.548636014364229 2.385349217935893 5.606791747432933 0.3543350395107188 -0.2778992278494827 0.6774939105289494
Ni 3.602323559572701 2.631499772622802 11.386046996298477 -0.33461724936681725 -0.32672216288945666 0.10969328816278527
Ni 1.1724406430590737 3.5796546511264573 12.63692892920986 -0.013875986651143845 -0.7978680754443485 0.21373529157706414
Ni 3.246297916956431 8.303605804295628 8.116754006051279 -0.13816002814391046 -0.08266328062818666 -0.5476989665202825
Ni 5.516152253796936 7.8603107369355305 3.5909457371708053 0.16352447505062806 0.331375602501068 0.16463776271946487
Ni 3.0944550810267515 8.243269825577409 3.481758215575745 0.3880928526874542 0.7883421382317842 0.5642990369708087
Ni 3.387361953453521 4.432562166999464 9.200897940631835 0.1724675431765288 -1.3196315530457918 0.5656689207351419
Ni 7.018055529973692 5.9653472004776384 11.571853440733648 0.6780968342202709 -0.8531899879451048 -0.9000822816212691
Ni 0.5470850577053428 -0.06692432787684888 0.2772410213486736 1.417708082905255 1.2275022419086987 -0.42497249932262293
Ni 4.65541136063302 0.2035467400645828 1.5714766769736679 -0.37366279330505325 -0.3115490546934441 -0.7018432859075913
Ni 5.846500320564571 5.640293665535232 0.5427798624583778 -0.003686704822967844 0.5730826967007098 -0.511717406219351
Ni 7.936060489192726 8.884983345862157 11.31818302454821 0.844860899254119 -0.5468898403554259 -0.24669709121506544
Ni 9.220887960535109 4.873363564080102 5.80910068739503 -0.49185229186430773 -0.654983131020943 -0.01565004783243111
Ni 8.206135822502853 8.905691651226363 2.1512297188436507 -0.583314401731047 0.022854793110986444 1.1734519970315147
P 8.592528225297608 1.6150671176630842 3.4617636781538494 -0.2793770979465898 0.20530592986278837 0.21948967756233814
P 1.8421176036152946 3.146578210889796 1.5278519031427227 -1.0796704950029794 0.4321191376697332 -0.014329015028162417
P 4.729101124398489 0.9871320291760721 8.027573670930257 -0.0576382193387588 0.30038969564251494 0.8411155732790739
P 8.495573240627765 1.6289901100567317 12.415154001504664 0.6153382629358112 0.20996785411483193 -0.22499723764412866
P 6.362608753077429 7.846460024839838 1.4761073413402195 0.11419760379104203 -0.791608981908514 -0.45847140241101686
P 1.6901482771641934 3.090073087963209 5.886830016312477 0.4473578089963586 0.03651609264816292 1.137248550527764
P 6.79701334378902 3.973979816621812 6.04728595324726 0.5584011834291351 0.23203331855530362 -0.8112506673988416
P 2.4648123705005447 8.274133512804339 10.19356121960894 -0.49634246642517743 1.558992258500444 0.4175574378054744
