# total energy = -340896.4689216183 ev
CRYSTAL
PRIMVEC
9.03309345629808 0.00000000000000 0.00000000000000
0.00000000000000 9.03309345629808 0.00000000000000
0.00000000000000 0.00000000000000 13.22084535237664
PRIMCOORD
 96 1
Ni 6.477053285741596 2.0660130304499007 11.329299640519878 -0.5109866987009135 0.032178898725389746 0.38528289404248484
Ni 4.5088054270704925 0.5819498271931588 6.094955234073044 -0.031627654207610045 -0.4964892764156868 0.20396792777765518
Ni 2.7260611780870327 1.6529115950079778 4.749007128292106 0.03028810946058009 -0.5436998726632184 0.5537446584937302
Ni 3.2503238630817477 4.365143106829341 4.678777535662649 0.3169383440298154 0.24139059140048752 0.8557479784802682
Ni 5.120327796014499 4.603508380126846 2.6709014954713024 0.09908800184311321 -0.02323608770980514 0.283026521773719
Ni 7.243728069956102 5.9379221287199115 2.606225448772697 0.3824508239103284 0.3089491551767518 0.1616624821412248
Ni 5.118990898165173 4.727496622558312 11.250146254746165 0.3733655737796086 0.2460350321510343 0.5741874997291143
Ni 5.765155180975175 7.903080669387841 12.31360423172696 -0.5121596359630921 -0.33925577658009315 0.7489271267692714
Ni 1.9636771133213793 6.196069876950019 0.40889653038204776 -0.25213008930517866 1.2168306211274658 -0.23183148695714267
Ni 2.573998080819707 1.555299985819982 0.34707765118169914 -0.1139770031398037 0.10395021503142098 0.45260003123190434
Ni 0.5828441034572354 9.062812454397948 4.842465321053612 -0.5290687530136049 -0.04565533594526976 -0.3202170147810873
Ni 8.503573631074904 2.307404390095543 1.4355852999595724 1.0351469586693076 0.18778540448052175 -0.27180057115091255
Ni 6.7593374600081955 0.6346091495069048 4.854932796807941 -0.5128268372334459 0.30268131989016905 -0.08706372368872747
Ni 0.715056074280776 7.357707644704773 2.457768362461123 0.035405633192803536 -0.947275137256988 0.24681176241605882
Ni 7.536761625578773 3.711083900233449 3.8615707226716705 0.5832758351836277 0.577227829217335 0.34941549072191436
Ni 7.5816019020926735 3.90727365962213 12.545445804843494 0.4061098580901651 0.1446158110715832 0.20873269615615017
Ni 8.050302028498146 8.740096153282796 6.772933169150233 -1.1809642462481595 0.5354067794164908 0.2943375759111641
Ni 6.731380035388832 0.8660930121178076 0.4090437698073452 -0.06399964278041236 -0.8997984318322633 -0.10277522088671333
Ni 1.809680934028676 6.337808148259369 9.332396099095943 0.8987615059273167 0.4144422892152604 -1.133033484005152
Ni 0.09654118759917678 4.723142671454424 1.4469426085133448 0.5999774642090249 0.10863810742539355 0.09075068562201145
Ni 6.379631371518708 2.0801227226164425 7.203932776204693 -0.41788705323075126 -0.42205455434487954 -1.3446121342505293
Ni 3.421257092830447 4.0584244144382255 0.20633121354705178 -0.39172042213771247 0.12493118815846227 0.5827269046586931
Ni 5.774134075990248 5.631736388849811 4.858132318552748 1.018580312559878 -0.3046983503201978 -0.3615873501977579
Ni 5.510033519093207 2.883589296968159 9.272995379046032 -0.8003710443718602 0.4519086615918346 0.1223747402851957
P 0.3438474169187316 5.326679785676777 12.369687096506212 0.07879608436329656 0.6469306930301116 0.8189675764271251
P 4.026727289078178 6.07755568922593 12.718770997771257 -0.18652196438706586 0.298884314741582 -1.4128546114676959
P 2.2554099034690296 8.469600166133569 1.4573333760544287 0.2623695076449998 0.3155486627711404 -2.029365297445054
P 6.312822611426684 7.682637053746175 5.730165493006482 0.004045373713967226 -0.18520324557564233 0.30048045558410835
P 4.645485165976986 1.1895138945319292 12.660387404058065 0.8255120624138621 0.4699724610720809 -0.5494326613819377
P 3.9893302816713385 6.218517114487699 8.136174229274083 -0.05007351961762344 0.5097713382365736 0.45067581762599795
P 4.761027465914395 1.1514394051068504 3.722646260011409 -0.5687169635328464 -0.9499010049156094 0.5574236500072142
P 0.34625202642880415 5.550619208532561 3.6805375909950517 -0.5217146266413789 -0.4102279940235968 -1.244325741223941
Ni 1.3943121920990436 1.1223618768839967 2.6884591194560064 -0.4701169570697452 0.45186392439682826 -0.5060627790367349
Ni 1.8619102810881791 6.512201052847879 4.917268368960867 -0.0960561569953249 0.022311004792374477 -1.1292573047921712
Ni 5.898050053673103 5.437958465446064 9.025567202963193 0.2967883514445018 1.1498865510067489 0.01460592283863291
Ni 8.767466426819684 2.3388576219290247 9.970487506176601 -0.014570698725323293 -0.6445210551473545 0.922135918987199
Ni 2.3752158235745626 5.321603187086766 7.005408865435839 -0.48201473694859565 -0.37305781273120264 -0.07108354621038725
Ni 0.5197642043936029 0.0006043139602699346 8.965015666791633 0.09804850483500534 -0.2872289898908408 0.4308006759686258
Ni 1.34210994432027 0.9297130901773165 11.414031864886455 -0.32347820203086225 0.007435373232122679 0.15830179319910803
Ni 4.131502141472363 6.949167921518998 1.490399015091321 0.6121102429168167 0.7681322389428126 0.18935403451922228
Ni 5.580600046113068 7.946629213520297 7.754343557175394 0.08688117536427618 0.005915851263802715 1.0863378797208258
Ni 5.196115451121596 2.858513429199709 5.073539081216141 -0.048411044313535975 0.33287841229883963 -0.3839973424618419
Ni 0.8587156845938546 7.453106145966518 6.9820610284685785 0.2581696106310392 -0.8695674008618638 0.4719555529403808
Ni 4.890968517012796 4.68094005826487 6.856780150346309 0.38628768115791534 -0.3734457921982407 0.2302991094730163
Ni 7.972761953237202 7.258605575076649 8.966601878023672 0.3973786488647543 -0.23941701261388446 0.21475576242177852
Ni 4.714353471404459 0.5231994898807577 10.399966843582133 0.01642909209030074 -0.9240950995960988 0.8874882470063425
Ni 8.165166846417316 6.99145183255074 4.71458020205323 -0.11475681872862172 0.8847924453417343 0.4202108162679215
Ni 7.315785057416091 5.966746730322622 7.036900939571699 -0.5662780150740505 0.31092993305220645 -0.8452717615392927
Ni 2.7600165768412133 5.19130984533888 2.4305335853278813 -2.041657484548845 -0.7444626632400146 -0.11305834798027627
Ni 2.454598649925118 5.135160135667163 11.380820793042979 -0.18487645836384292 -0.21001927617805768 0.08577457256365872
Ni 1.032184503709486 3.4543904800691636 3.6771140485295466 -0.12182735242215792 -0.07497593928625798 0.5460508893938983
Ni 3.5914044434379884 2.8085152562536093 2.8599334315099396 -0.3458406288864625 -0.43601667295192653 -0.8296294270163455
Ni 1.3035296016549054 3.4630351506219035 8.228020014832179 -0.5784467892261006 0.15425847636766982 -0.17848803833899582
Ni 3.5124190732047995 2.878485599097419 7.373384578606842 0.5525519237372096 -1.0391095428614814 -0.6674290700937796
Ni 4.015715948008387 6.944895268257298 5.865943729174038 0.583320315268318 0.8486080250013773 0.6188555320604504
Ni 0.7888537388729626 7.188445537267731 11.322014450550405 -0.2020992500000326 0.6273041770484358 0.808820203580478
P 0.2231643834269176 5.549977858888627 8.07309794344788 0.09102913609437871 0.29393005606010025 -0.5669614142943203
P 8.455282712814768 1.552409395875492 7.89213075335437 0.4292382165775124 0.40765174865598824 0.009444947462983733
P 1.8720544451746237 3.1130389069056275 10.310593415735934 0.15204604209738332 0.49406806856870394 0.8928415408984559
P 3.970704042716531 6.379387477992141 3.678792397316066 -0.15478118164035923 -0.8540667341231033 0.6558323663951157
P 7.047402814163774 4.096146613213819 10.307142773989698 0.0039047343710448875 -0.32603336435254815 0.5498437807774273
P 6.290754763819218 7.7936086083338605 10.135192417904282 -0.5267110514147058 -0.043811597868311646 0.1714588994063563
P 2.424626845438188 8.507132669944056 5.777509743059798 0.3267129069180761 1.0104211737878535 0.763014458100273
P 6.977694431033683 3.9292331101066766 1.6520371915497696 -0.14227842118765818 0.30934356240169303 -0.7231253352148191
Ni 5.179575856782967 2.7287440068792623 0.9642926756976355 -0.6545092767083179 0.6986502328915903 -1.8625724360557987
Ni 1.564567939829503 1.2555006431084894 7.019528494005314 -0.29479420383260846 -0.6873304370033969 -0.2610775283064536
Ni 6.932691558835405 0.7865855290758956 9.247981839623261 -0.5109265348869395 -1.014621070801814 -0.4443892132863379
Ni 2.6628385561448913 1.3997862468064215 9.335569424869378 -0.18929361359493208 -0.11483832269883448 -0.5068369381985981
Ni 6.420903576069879 2.007975404220688 2.638074330104831 0.48063611143351415 -1.3548199280214668 1.3845796757824027
Ni 4.142965137220981 7.052533611315244 10.391346562382049 -0.07768459646667267 -0.2976918370953776 -0.07423623290675602
Ni 8.102748169803485 6.805695296242954 0.4579525516681155 0.3330743303597296 0.7775337347623706 -0.10381934588051153
Ni 7.868456821708998 3.744921868771135 8.151338986770362 -0.4130703485683983 0.5479725318966434 -0.3118820125528306
Ni 3.2949383122562352 8.551358696094754 12.490883209713173 -0.684523306571905 -1.5210672013198965 -0.14088231217107994
Ni 9.190269404762804 4.6918972007732025 10.193853327590276 -0.05626345047841922 0.6196811132855392 0.33658182929235586
Ni 8.611166808664965 2.404925668347773 5.841855178533502 -0.0391707566621906 -0.09053214185330213 -0.2802358464024593
Ni 3.7802322315617953 2.777387215788883 11.38051728109881 -0.4485801114392339 -0.6062303870972721 -0.2289199697373025
Ni 1.0247051022281182 3.196405327523433 12.416978051307424 -0.14318730615517275 0.2195472702731509 0.43522348762666985
Ni 3.03621244603723 8.323282116380918 8.079933285357242 0.5642111052426928 -0.34417378270700083 -0.3723756990625135
Ni 5.730323572144072 7.668554460860363 3.5275070494056795 -0.6492554845085463 1.1132817552995213 0.08330039999155331
Ni 2.864366873837301 8.391030318204901 3.5179482297829945 1.4606390779408265 -0.04325803935768679 0.6222478455714509
Ni 3.569110768491109 4.356137112533539 9.252556198210415 -0.4050909299073475 0.2802458737047883 0.24611447923871807
Ni 7.527818862938007 6.329145411519476 11.413952373662982 -0.8250762604280242 -1.3251398844585307 -0.718696095798872
Ni 0.27643705279451014 9.098764166832542 0.47183731980460153 0.3362617269487757 -0.32040599086344174 -0.2996602736756581
Ni 4.501687349332186 0.33919447041746037 1.521309358000853 0.03571365135152559 -0.03874292509615263 0.8112570951567447
Ni 5.93151766537415 5.433243190599114 0.38274120793120175 -0.08821994878035774 0.44590487859991595 -0.03281678941970477
Ni 7.930848399042098 -0.2597158932749933 11.273930390133172 0.4654480908391661 0.3840119977498612 0.40987626711113284
Ni 0.1190561733386807 4.891645999031037 5.793215582861313 0.27347898729459996 -0.7169451745460362 0.23942318326147155
Ni 7.912989973041296 8.769544038342287 2.738513297582281 -0.31645111998075176 -0.12545363632083556 -0.5820013393465783
P 8.410568899610938 1.5622645009674874 3.6831553815135303 0.7346068534918574 1.0411983070697102 0.2596847617239851
P 1.784903158348251 3.178438504399713 1.6233607326817137 0.028958592015879157 -0.16178178132790846 -0.9044300170670038
P 4.605902149924626 1.0960484752955613 8.34074037633628 0.5178425452804823 -0.07254701812979118 -1.6803025620768672
P 8.336705293435644 1.6583133849667433 12.318100002399998 1.148656021033757 -0.16035687595592382 0.6357381667484019
P 6.370065325421162 7.839325094924684 1.4489786678054948 0.06451103519919212 -0.13740386670417623 -1.074739376249949
P 1.777947676294322 3.2158626110872817 5.976800563473301 0.21925956382940304 0.5583412767254771 -0.2465353688262206
P 6.902837184564969 4.011416195465957 5.972106968050935 -0.07037135063471106 -0.16229523062921725 0.6514360370996329
P 2.2276692730955023 8.363632945387282 10.191235537071798 1.0211107922912157 0.2987801850635499 0.7441808703335376
