# total energy = -340862.14485793555 ev
CRYSTAL
PRIMVEC
9.31904165305912 0.00000000000000 0.00000000000000
0.00000000000000 9.31904165305912 0.00000000000000
0.00000000000000 0.00000000000000 13.63935944242071
PRIMCOORD
 96 1
Ni 1.1236154549023754 4.629159243432271 9.588782876352848 -0.0034172532116650825 -0.5674095575753324 -0.04671797288182922
Ni 0.6018190315319307 9.183607732278466 8.891416645657193 0.4820869849474278 0.8779890492666557 0.624143262821951
Ni 7.855877314459934 2.826120440069494 1.4514052795202563 -0.3976588991093345 -0.0899346174786193 -0.037874149337954126
Ni 6.409739157116558 7.3094366862119955 3.451317218758046 -0.7137276960500031 0.36323157066940026 0.27456733526277227
Ni 9.27826123537573 7.373598285978134 10.659758794227045 -0.11109582493726672 1.4204895023051343 2.022775817152994
Ni 1.635529034910149 8.304216394307273 13.102513442717827 -0.8747818551832676 0.32821648804679604 0.23435142516551893
Ni 3.1727701405924895 7.559541118241571 6.968771674050629 0.09874578801234607 -0.7318884261194298 -0.593669776823442
Ni 7.27898205904631 6.153679857657708 10.599227892974907 -3.8357308472919813 1.7338966932532396 0.467999139395794
Ni 4.020802904386041 -0.19974992394295904 12.124162272636744 -0.5953325092378456 -0.6110573761722702 1.338746419498372
Ni 1.6003403347333967 6.610564498432504 1.7825956223305357 -0.9268834609745132 1.0034539984414008 -0.6939780242269016
Ni 7.086581131120138 4.382670599450519 13.355073442145859 -0.8278473954152582 0.5999309272418055 1.3665505861948337
Ni 2.368229342827778 3.5229144816256226 7.37968455189059 -0.7320450063019521 -0.8973461136370288 -0.8902832932529764
Ni 2.235200027408515 4.270935293539698 12.79210922166185 0.9759632492202999 0.04445720187211053 0.4304157818253813
Ni 8.09032575700409 5.677998710459048 8.700928916922305 3.344624946675395 0.2028297004081539 -0.9811627911433681
Ni 9.073475301481627 4.986358098775203 1.1658232570317573 1.0761192873166112 0.6012010522034807 -0.34889021434606365
Ni 7.382134527864231 8.017022177663431 12.189754345251698 0.9769361546565303 1.4985039713074 0.00699031527490409
Ni 6.127381522938747 6.067310982329811 8.302755168621967 -4.056374950173736 0.7723290506329795 -0.0012467279229075303
Ni 8.651220218401962 0.7807707189668189 2.859272929709006 -0.7888239629642092 0.3285108793587633 1.1032182004159323
Ni 0.16317827802832807 3.3738284579424445 13.097672200731116 -1.1750278261590668 -1.2996324842160458 0.8881112253023221
Ni 2.039071482938195 4.358608834658047 2.1560012225032854 0.0606176136820569 -0.05102097113255729 -0.0026636628750921864
Ni 4.889104583138395 0.022614517669206732 9.937759541503528 -1.2240628772098467 0.245652452000635 -0.9658783541804721
Ni 2.166350949838111 1.5157141201398887 0.44199840410574354 -0.863467458611713 -0.15290119100882696 -2.952833819200747
Ni 6.7181248738138795 1.6828604459794616 9.516453136834345 1.5285915347213996 -0.855607596247662 -1.3331257308774849
Ni 5.089184401145511 4.3316488480025 11.689026410588776 -0.31037148944557513 0.6384853904762359 1.3790317493809796
P 2.2893622957949775 6.095762015603016 11.844446586684597 -0.3127027086819131 2.125059443115269 -2.297323354921424
P 8.029332631300477 -0.019826260494184417 10.17898572282908 0.7656678365627201 -0.0038355716960062976 1.5078568732772095
P 2.8567334909383053 9.006620498762343 8.381263432562394 -0.17202042833678116 -0.19800708220852994 2.0651123731376755
P 7.317553571236876 1.4558858746063217 13.452568320953901 1.6521155581196902 -0.02666182556190247 1.087635772596643
P 0.9430869856693128 1.891616291493081 7.8423721597204885 -0.8521000973150357 0.2294421607893597 -0.22444522179540055
P 5.918467253722002 2.355098813551019 7.492291188168606 1.694679913844462 0.3791400143695406 -0.1480294647388225
P 3.665188286074372 8.763123267057269 1.2412198930619565 -1.2474897407742194 0.43003423011624653 -0.3060330099712213
P 8.820957237739718 6.833541201062046 -0.13103970008882454 1.3286139590500603 1.8491751888132864 1.317688056166176
Ni 6.0506112602120306 1.0179002497103529 11.88075450372873 -0.48489437248923584 -0.5218868905531852 -1.4822967654199182
Ni 8.03824163484099 5.913313823849718 5.414866258607677 -0.054845744195286185 -0.1885413088099398 -0.3201936177423196
Ni 5.571985295943493 9.219327617812759 0.2550342049092103 -0.164042295227311 -0.7083947138728639 -0.1772690783302302
Ni 8.788620164219237 7.16876575687723 3.0438141781518433 0.2920696058125938 1.1189618364034342 -0.255233925041483
Ni 5.4595044667238435 5.341972717086873 4.436911147784408 0.06196204352509329 -0.05067387220578369 -1.6198731531462165
Ni 4.136946116860316 1.2443622738086728 7.6591001647109325 -0.25101680163634194 0.9366881057697609 0.4142376294036221
Ni 3.3581445113329433 8.832335787240728 3.541746400406656 -0.008213131938411661 0.6084394789334489 1.4667778438487125
Ni 1.2680605959880904 6.157603174070423 4.182236657871709 0.666412198793491 -0.2581163887956006 -0.5991462265569811
Ni 7.5476407024243795 2.8614209687425713 11.7705214272852 -0.06245415267016341 -0.20030487710377118 -1.3266738046045539
Ni 4.293645797334916 4.184883265618053 8.542931093986207 1.4540948490644052 -0.9875237003643896 0.11901507978434342
Ni 0.32705362035041174 5.3268479129589945 7.2234592106212325 1.4770694555827077 -1.5592352277491857 -1.8560842572282936
Ni 2.3605877289122756 1.1994910896584974 9.952067065704103 0.3401530915833819 1.5204632491873102 0.3645595454522044
Ni 8.383102079422795 3.0911539763583806 8.257076955489984 -1.9163732839263383 1.874268127226172 -1.9143567677169415
Ni 3.9622234103947642 6.279375087526361 9.919510062807518 0.1912185985317868 -0.12097297484166263 1.045861002652702
Ni 1.6825249604904886 9.580626851354253 2.166734894342158 -2.08027673958294 -2.6371314044605616 0.21873145924007492
Ni 4.0409040766003566 2.287880568218679 12.6267866322165 -0.5897169628232811 -0.4781431698083314 -1.3790410053523605
Ni 8.751409232067285 2.8790246378723072 6.046655327154554 0.12308745008150415 -0.45776589170355997 0.9103553814125032
Ni 1.0800955317494536 6.910236911457881 8.91919950366486 1.7536777325349089 -0.1570478661873489 -2.408811273090787
Ni 8.676782348853454 0.546600915759338 6.8193110249047635 0.7537852261925212 1.3150984410621287 -0.21986223041040842
Ni 8.65092200907843 5.444342386430523 12.017489069992875 2.559979540568907 -1.7467380679922822 1.0661765742816025
Ni 8.623486751313505 3.039973801207235 3.713765652973566 2.579639995112312 0.16653806506597127 -0.299412162220594
Ni 6.252219401002246 4.182656014732925 9.83972043068004 0.8192352282662149 -1.0054941687998813 -1.2882124153045622
Ni -0.08851132293664592 2.009073488799168 9.841642948912684 1.5646877662233245 -1.8289524340085082 3.6039497539567997
Ni 5.45158328156753 3.255243656631752 5.529900505160068 -0.898364013378582 -0.19105713325325804 0.4590100485233063
P 6.286317773339836 5.095148587616147 6.495103439785808 0.5336106067480164 -1.4276664796695477 -0.6395657680246082
P 5.632354045875962 9.15133589204751 4.897239174341861 -0.3584727158281762 -0.547953762843566 -0.6429786503608992
P 3.359952405356855 3.316469758369375 0.7226068542202136 1.5331583281564758 0.41480455765068563 1.6236696440741716
P 0.3023562969371626 4.403023385781564 5.037506589185722 1.3892079185830333 2.0339377473070845 -0.20704528115139828
P 0.7208036197169823 2.569390169632697 1.9692234041339596 -0.5116253607261769 -0.45393314822103115 -0.11796684102548716
P 2.700061767587787 5.520245978310727 8.289920984860467 -0.6116844682333079 0.8415986835630797 -1.1691793377980897
P 2.8990792148798206 2.40138649198797 5.330616533285128 0.8682419971822207 0.8275296070645232 -0.13993151822203642
P 1.6406265505342708 2.228676698456257 12.00038583338419 0.2964587360192249 -0.8551052026899466 -1.3297894674154003
Ni 0.8420285054450665 7.354727227223387 6.12906454180843 -0.42639946157713665 1.4817570908663642 -0.036387537490098626
Ni 4.736393452366033 3.830172594318339 2.57999430679666 0.4579687517429854 -0.291506277109956 1.2199563112406409
Ni 4.837346627422908 4.883131077626399 0.5540701274096735 -0.46712779253443426 -0.21660104316063344 0.07195849261617285
Ni 5.8100402074941115 7.071130160544646 5.965255364680005 -0.6090871398197768 2.332735415872131 0.34319470662318313
Ni 7.140920461292447 6.525919645756275 1.1882448705448043 -0.21332597195378744 1.0651825857994495 0.35716993785635265
Ni 2.559129905094931 8.332928360738569 10.605079319045082 -1.0442000700105114 -1.9895913599812254 -0.7033386395061951
Ni 3.2890904148526117 6.880015260326205 13.510753619495636 1.9373061774242633 -0.9691878781696792 0.7800315614835599
Ni 3.0570556040207912 3.4700102838228095 10.596363219660729 0.06445447092964383 -0.18308928455643306 -0.11669105963685708
Ni 4.066084126356073 5.513629458944864 6.413281324737635 -0.5535613388383306 -1.1290696142613974 0.4059810458217847
Ni 5.184219984938552 0.7702197003386094 2.7279536583793704 1.046898956998913 -0.31298013071301584 0.8650013787577361
Ni 3.879535556404212 6.890200972533088 2.275263518120876 1.0391738204405134 -1.6317318522570157 0.555083689020128
Ni 2.293891349896117 0.5603409103410656 6.39234516641743 0.7255429435173761 -1.0622132187584803 1.5636881213142166
Ni 7.577787801225171 5.173689468201334 2.918359379550288 -1.2158230057985577 -1.9327604670351102 1.5964771428197797
Ni 2.9360012567496017 2.022082870538243 2.5133249530004464 1.4573197837596061 1.8358633021957287 2.119152847822847
Ni 6.649555367484287 8.353150680490568 8.749266784458536 1.2718691980598482 -1.6831361748709206 1.4943457261646522
Ni 0.05133300742945497 0.57071207147102 12.385097294535338 -0.7585664496312484 1.0739639315365053 -0.9458774855785129
Ni 7.6898213164595255 8.304281627596795 5.26016924012142 1.39648362630884 0.535995047819793 -0.29485025388152447
Ni 6.1897259096396136 0.17936358906301644 7.028784436603131 -0.18265605367375637 1.136816862306984 -1.6744677005626452
Ni 8.796876834864525 8.944984359204865 0.9454381798045338 -0.3845359885741313 -1.398023202881818 -1.7324195944870806
Ni 3.1096149972932703 4.522325753277004 4.40949546000634 -0.38951698672849044 -0.7859708097861302 0.0019188142892676632
Ni 5.779268732922174 6.554929821511103 13.05873165450268 -0.9734384259159171 0.39927715143904785 -1.6367781564316715
Ni 7.107576931305048 1.4320570858478587 5.024835488648029 -0.019746843609624053 -0.041588364964747736 0.01655507614520375
Ni 5.456662159108931 2.1629774568656575 0.8740813482040546 0.35530203140967836 1.4273656605996772 -0.2397196314559678
Ni 0.9800276656218143 1.2530755774806175 4.911382683414493 -1.8988082784593816 2.5306211420114484 -1.8950791504342526
P 6.773796826900723 8.70751654725995 1.8732978518910044 1.57771091795587 -0.3604025858610374 1.1889423793576297
P 0.6455961602263987 8.799840290017121 4.029039073140335 0.08662715037194113 -2.8843293465714455 -0.3179122779073106
P 8.433359669479263 4.156283127683081 10.236284780537442 0.0036849050507549446 -0.7584908591983066 -0.06542069149765509
P 4.976973824125312 2.322575359203332 10.347881232731995 -2.292083446678723 1.2603290586307327 1.505208637021085
P 6.637421975633086 2.9358894282532773 3.553230255075038 -3.2255764425499547 0.8054397171440193 -1.3083742349644176
P 8.716015512980606 7.946532948813601 7.6344130922431805 -1.3500860128809071 -2.122769618639828 -0.015793515388830864
P 3.6231500904977487 6.970549747142187 4.5765914630225675 -0.032171185415905884 -1.998033062990675 0.8677200632404798
P 5.4837526123435225 7.485072658730863 11.097391227455457 -0.6132021904294148 0.4037110188406854 -0.15973569743215715
