# total energy = -340855.41281000344 ev
CRYSTAL
PRIMVEC
9.46372980616760 0.00000000000000 0.00000000000000
0.00000000000000 9.46372980616760 0.00000000000000
0.00000000000000 0.00000000000000 13.85112517979126
PRIMCOORD
 96 1
Ni 8.786249516572981 8.359236576817409 4.13438071492129 -1.4684107514664453 0.0007440772548761379 -1.1454079464101046
Ni 6.056957241117914 8.435845467296817 0.5123227831573717 1.0897605322491297 -2.2530489584840807 1.8596578335121652
Ni 0.06473001718357657 3.6063339451633585 6.824587787451101 -0.30276153830880115 0.22382944258827256 -0.580001278197414
Ni 5.218953455687269 5.556430050436581 4.38482317474992 -0.9682345131174744 -0.46906948964183737 0.3541643182608094
Ni 6.356238223517023 3.6228481531789933 5.79168133163673 0.28446222577898106 0.5874495069453431 -1.3093252860237774
Ni 8.046621199522008 7.725848087378768 10.49712998434935 0.79010102990442 0.8766353634522386 1.6385702153350874
Ni 8.306533067110205 2.90077505439106 9.322541087490352 0.8071387021129971 -1.1268690070656529 0.1723356455843548
Ni 9.505464569045314 3.7487725381967825 3.5913471830925503 -0.5830251526254023 -1.2400847065593998 -0.8296016591022036
Ni 7.8675106545914 6.994339650257547 8.283651661872266 -0.7275082947738631 0.35185341073944565 -0.029104373565124072
Ni 0.060428752115893956 4.919189823082546 8.903087774876838 0.9807259607162657 0.7802120529254821 0.6007374823035009
Ni 2.5983047951430867 9.00661245848935 11.306229647074348 0.41692957441348844 1.3192024359281733 1.6596244649022256
Ni 4.476949742526312 1.7862978747089746 12.196759970470138 0.4978853854322651 -0.40905042877572784 -0.5494468024493248
Ni 2.0616261576882713 4.91104155196423 7.314613077482032 -0.5304736037809316 -0.9763823390355894 -1.554247287616291
Ni 0.41765898949617114 1.9718532194439646 1.0773112211038607 1.4402057497871388 -1.079528055887844 1.366663200513298
Ni 2.35574940749797 4.522631164928301 3.1060036000560802 -0.7041889033216324 -1.7236145946009414 -0.023690144528088233
Ni 2.4780586478384103 2.325796703561302 10.975478924896217 -1.7567890244703805 -0.9839061582164603 0.6682806194607975
Ni 7.3123304259213615 4.138318572775334 7.856787302670187 -0.4482006166126281 2.4432208609189083 0.05417597182177122
Ni 1.865575536913545 3.6595674237237867 12.966647616294287 0.3065755127382526 0.4260593046288985 0.7181358524200278
Ni 3.700128968454453 0.6089114994033173 3.7873410214901453 0.16282667765265507 -0.39044541208003075 1.8272382795308788
Ni 8.213088201811418 0.37422141736381376 8.93792281687383 -0.26791717693610634 -0.21939711784853183 1.1255986249936616
Ni 0.5465720202969611 8.630258862864263 7.911734662647024 0.4194754807637937 -1.8829769678540798 -0.1738166010052555
Ni 1.2345908347734555 7.680668242641438 10.133704789624067 -2.139836601424444 0.08286691199856051 -0.7568114146133548
Ni 7.831453845113137 9.072063611862491 12.821750346331086 -1.6876284063143192 -1.9853084163351549 -0.1935629303942473
Ni 6.204563030470269 0.689742159622424 5.413061172791159 0.4501981066586312 0.7699212125224354 -0.6451206364045664
P 5.645748729663838 2.8003081017870586 7.665988105407138 0.49690450957623455 -1.6590765628185558 0.04245559806104947
P 7.841873411316699 5.6419916290436625 10.106971646470734 -1.1537537472716386 -1.2125420210544409 0.02113832464051198
P 1.4206666846321476 7.050677232101144 2.0377359188833033 -0.07395418288996296 0.9259077273248054 -0.3892377649251748
P 1.4636414803908864 3.9391827761764833 5.177218408495893 1.2643554061813065 -0.07954710359670816 0.23952757004981975
P 8.132324734071918 8.737899322445829 6.885379946780634 -1.514763370589056 1.101138435068768 -0.5468777561705678
P 0.7268863516227486 7.184532222458245 5.029620190127155 0.04216506340382416 -1.9708295059926895 1.0437611827008797
P 0.1555080035031039 7.780775573523609 12.541930577320716 0.7134425607094164 -1.4659270658126433 -2.177484750794521
P 2.812828615944471 1.7058277825846504 2.2425527923141226 -0.4677528277129428 0.5353427589477748 -0.2900402340873908
Ni 3.781886127793749 7.896744115084407 0.28378601805297754 -1.044636900437614 -2.4514129098113977 -0.5545303876198192
Ni 3.099172680087206 6.549411870517105 3.322496822970963 -0.6416151943544692 0.6299894371900827 -0.029662560061439237
Ni 3.522646185001604 2.312008049647961 7.226215219137251 0.6186662988677797 -0.20814494197348024 1.1931139942368163
Ni 9.254940721142797 4.880274967288683 13.130602944768597 -0.8146836043397906 0.10822133160294911 0.10563428760206323
Ni 7.60747575851942 2.2879417854738864 2.1130861333363042 0.9518537577666059 -1.2719051935041061 0.12889942877759092
Ni 8.903069793790745 5.889894023868626 6.609743146218924 0.9463264001904733 0.4596823919999825 -1.597901791081448
Ni 6.679424586688334 6.010575502731308 12.911796786358572 0.10587185753416606 0.08305408830870212 0.05021235918833288
Ni 8.499895988700725 9.338240468394154 1.8201344932414112 -0.7949624717617794 0.3739510139694334 -0.3816915771468007
Ni 4.439435518701683 4.616255841088002 7.798792621787315 1.4535173792943805 -0.2737101294687996 -1.2686522337844475
Ni 5.7969223450459335 7.406570244499982 9.769738269570134 -0.5847871296218315 -0.3640643509833408 -0.7479678481797957
Ni 3.4475893461637805 6.9006298005321485 10.499208219352349 -0.6851144031886847 0.33173812804680936 -2.2237599797119767
Ni 4.045053518337464 5.117861896934826 13.191104567601808 -0.14871826327573096 -0.3723235056683394 -0.6840769630631057
Ni 8.940574553885853 7.160305074882299 0.5702171485073132 -1.1085972053396587 -0.7031697180284987 0.9109374791682183
Ni 1.3320956400371167 0.8237211248362625 9.521720417245003 0.20822464617148012 -1.555470875610747 1.8979132774489378
Ni 9.231593700412382 6.01844932569349 3.239210324940935 2.9626973422583878 0.11090916284775738 -0.8519193487627973
Ni 3.7323340400173217 4.318394418117171 5.6442913153174725 -1.4893421023024738 -0.1446749464442928 -0.8834565001391301
Ni 3.9549872044779795 2.404648497937389 0.5185953430844564 -2.4659429851067722 -0.0085543173279143 -0.7241015830851594
Ni 8.319895853195062 1.7162189575996463 13.315972800404957 -0.016899603968816058 2.2096927029856333 -0.836066698001257
Ni 5.2300733378754485 2.5362889755863773 2.3448982952282122 -0.09207866040481562 0.3739294167028786 1.2224705930220625
Ni 4.224959016547906 0.07893791431473589 1.6914996960885638 0.7698283956983129 0.6383743188196683 -0.5419438092040603
Ni 6.011607049249189 0.15537551128979796 10.272756313861617 0.5482340130881461 1.5398719927312252 -0.05614903638774202
Ni 6.4831941550526935 9.060536789304873 3.3074958653058726 -0.9923033811412201 -0.8977533763777764 -0.3700964161100335
Ni 0.14066035825626727 0.5116697858203638 5.503688685811289 0.14603094625155497 -1.4675275775305436 0.9511323062195489
Ni 3.00843444143167 4.516839362460926 9.41796103314035 -1.1958977276295406 0.7866760633832709 2.0307328672165412
P 7.601825911994872 6.894904244171427 2.235529758635955 -2.0933070904043367 1.5032497135225014 0.16378184247707275
P 2.5054845359927427 -0.0839707256744578 7.5087359365531565 0.5957845091735997 1.0890642775130535 -0.45396528701054717
P 6.601954496822438 0.896654302769382 0.43847635532539325 0.16958276542956602 1.883289356888176 0.8054584861970966
P 3.8415644061585597 -0.047064073285131826 9.696978277887265 1.3231796754083662 0.0005563867241022675 -0.6368614817195676
P 4.399943375406986 7.957841952877496 4.075014739630701 1.9277720126815834 1.2228333756781198 0.710952447297711
P 4.7624609984711235 4.639953019810724 1.3298905910585248 0.4153264915924266 -0.28794992721726537 0.11000773407941056
P 4.917827046031399 6.658348861043166 11.80288995787305 1.8667941874466303 0.13881874477383188 1.475826584314542
P 4.050088222443089 3.633381284136817 11.085540206489474 1.457395374192548 3.173772056284154 3.1546957563789926
Ni 7.279046489193 4.550028661894068 1.395390009452228 0.4756569130513679 1.7572999026685283 0.7702919655982928
Ni 2.007342205150917 1.815351524341066 5.725708726766934 1.0059407694189966 0.36104176210693306 -2.442614594793477
Ni 7.869185734716768 1.8999667299959622 7.111499675365145 -1.552533647359294 -0.7150579848256523 0.4458136044376903
Ni 4.604255832054291 2.3836863370464827 4.783416534751365 0.1401148378774361 0.18328597394827142 0.11945499553523943
Ni 2.311222560097647 8.55995281624641 5.0603971849051765 -2.4305016135800273 3.4109529804786676 -1.3833344905213918
Ni 5.168313039015829 8.878227503795879 12.371187862033333 -0.7259322085359949 -0.6350282851655709 -1.003098414874195
Ni 0.10010354539036222 3.1978983064591864 11.377618344349502 0.6345891407456232 -0.07824406851456847 -0.11852451330117007
Ni 1.6354176349420573 6.338077326564585 0.055122438972990455 0.8517658539040686 -0.5203267451549168 -0.9806159175009629
Ni 4.205946383938502 9.107221367036178 6.198544098494371 0.6251827598300587 -0.10391859046253715 -0.07459155936364573
Ni 5.988969808232915 0.16644145021970178 7.6526631742403675 0.847230170817244 0.22225412768135272 1.1785543512550865
Ni 7.043049466106528 3.8042016020062803 11.463730712014753 0.2621499354350259 0.34197831771757875 0.29007134443564236
Ni 1.4537897379586364 9.321764115296608 2.6560505799395346 0.35780011524118377 -0.42706820550938707 -0.07888478742236091
Ni 6.11574592890767 3.034251495567288 0.02420727374395019 0.6302447477339984 -0.06328898986663294 -0.8991453716292966
Ni 0.23188408623627396 0.32313809815075056 11.8063110960952 1.3448443048659935 1.2728791273816014 -1.6929017388981167
Ni 7.360339925785726 6.167020415457076 4.3958209748272665 0.29580644714720666 -1.3757317384734693 -0.48108039805978436
Ni 5.326007164038481 6.67858231476089 2.3382225804234964 0.7367958907233763 0.19332098958677027 -1.1716619950106273
Ni 5.618161958107634 5.025637852744359 9.811859436926001 0.1860717642235247 -0.242215401294628 0.8762070176655684
Ni 3.0993619546776427 6.7920429679983965 5.789798049461882 1.9252088799400975 -3.2863614350478114 2.0624268558857124
Ni 8.198069263060237 2.117282351006294 4.920806228084879 -1.3574311403920687 1.5894045522437141 -1.9933351432943733
Ni 4.594867812368612 2.4052068579791785 9.594785141018477 0.9136445936867362 -1.9234345616484942 -1.7884341621794877
Ni 6.577027033261876 7.675671393453898 5.738825455884225 -1.2340009622591652 0.9705235662619672 1.6328538816766007
Ni 0.6996185077514309 1.5221273288359438 7.551051110364222 -0.12559067611933208 0.5759026826480081 0.024023873718423138
Ni 0.9933792967204425 9.084385387699946 0.23171657822373715 1.3469217562203124 0.10420655401660119 -0.3069069279357424
Ni 1.5857614461408895 5.863054886944648 11.38473790806879 -0.8254135891627848 -1.4898090146365632 1.3291328076680076
P 3.151753161310627 0.27664468775578654 13.303825157190708 0.2531287057730221 1.031958790749313 0.7206671034823137
P 1.745518664199306 6.638446637858708 8.309400577155326 -0.4865092823848395 0.7061727665208806 0.9587525417689683
P 5.055817686189552 6.532878735042427 7.338021612454338 0.7166919208846496 1.6453237320088372 -0.6255604548844517
P 0.40978422016103644 4.012857910504116 1.1612478773520396 -0.023582929526262612 1.3278094608708937 0.046011690843423984
P 6.69890094204431 3.7432267926969756 3.4871448964462735 0.07470288813052942 0.2525975158599005 1.6188267141595734
P 7.886580069577936 1.7636795611517437 11.038986228225571 -0.22003680831505973 -1.5333845852346688 0.726208087905201
P 0.08197482511829882 1.3320388576599855 3.4226543116195995 -1.110401862648565 -0.07753418693173743 -0.7610174822749023
P 1.7707111121864811 2.8551504143662023 9.021514993367413 -1.1987107715983034 0.5767004959589552 -1.2648439157819507
