# total energy = -340870.81874899653 ev
CRYSTAL
PRIMVEC
9.30307868027822 0.00000000000000 0.00000000000000

0.00000000000000 9.30307868027822 0.00000000000000

0.00000000000000 0.00000000000000 13.61599601818986

PRIMCOORD
 96 1
Ni 9.001286855881455 6.485473881117811 10.634188352862337 0.24188141499397695 0.15367380750879342 -0.3820070515046905
Ni 3.1737453086981255 6.350114085598077 2.197676521745853 0.3480633475693941 -0.8554103926351913 -1.0620977762265384
Ni 5.42092258205779 8.766467845660586 11.818630288130052 1.3467538631838807 -0.9290604140211741 1.7065159872474414
Ni 3.301290518084763 8.879397918362583 1.8780134335084901 -0.936940330989883 0.3027605098675366 -0.9170888434815948
Ni 1.0394143803318896 0.39934116663515495 3.3025594580235182 -0.23870224593504696 0.846642159524258 -2.436982079098048
Ni 2.5889351735804893 3.044693000557248 13.183361237643453 -0.49941004960690766 -0.47393041727856444 -1.635689551353183
Ni 8.869852959585728 8.31205896509966 8.942210445330979 -0.032673064752988895 -0.5598181183813198 -1.3174078059215957
Ni 6.453666654940357 6.99881776543252 1.138650321143506 0.13655463133000353 0.17549784536242033 -0.32456834977124743
Ni 3.6404993747336007 3.9368489476738873 3.2904142887416614 -0.9720981098379388 0.2015608609980593 1.3934494674682067
Ni 8.68409838658624 2.5884700196439954 3.2389598905945753 0.6686457161097001 -1.7714880212434525 0.10969303105246915
Ni 6.446056736539316 7.39070995692866 9.788171955014406 0.7662141959844934 1.2648660272691379 -0.4417926562037553
Ni 5.935280501954054 2.1846233719799604 7.34137759103986 0.3034405666536968 -0.8901465105647961 -1.000575134231709
Ni 9.320475487103593 1.3742321838202247 9.455111503098145 0.36080599194704316 0.31605876963833957 -0.18988573865297623
Ni 5.065219366820878 0.11433483759020947 9.586696109269296 0.9175143610547877 0.08326620431950821 -0.08980323410707759
Ni 8.113252172642152 0.4028391242375894 4.074532652260347 -1.3059879941204284 -0.2367296955897084 0.4019243592539078
Ni 6.18341221783738 9.241529561001844 2.3630834009473505 -0.41744353793542943 1.027591772029869 -1.1384127460391942
Ni 8.937867768179872 4.535464851626664 5.528612230511247 0.5314549938575944 -0.1699674024624944 -0.8218418126511267
Ni 6.484255177804198 3.148524662261424 9.44397292693486 -0.2680472747560674 -0.5146824023849459 -0.8392026725270773
Ni 6.823194245169869 2.2002060288525067 0.5496017033565371 0.8972759225207257 -0.4830483204194326 8.253241147727722e-05
Ni 5.999899686811792 3.1053583769547872 3.2686422935901263 2.8388701857973815 3.1603701810559506 0.49839060720345774
Ni 5.407823847206121 6.059867332304591 7.823356145416782 0.1655715873876439 0.4055925521341144 -0.46153487182768904
Ni 5.035598364144943 4.8563652493350995 5.629492955642306 -1.01041808846406 0.9312751622843057 -1.4015214458430636
Ni 2.094346295985217 1.8465774001723572 1.6842582128013062 0.5246845079029804 0.6272373283662424 0.9419745509796809
Ni 9.032954535877963 3.4375248030051067 0.7431327198663311 -0.23522817134351745 0.5197081377343115 -0.2775600993425091
P 1.533854408667484 4.696594175228163 10.979830288452886 -1.1303106857573502 -0.13731439231416354 -0.6719871217781072
P 4.947516814730452 8.584471716467968 0.38713273641793516 0.6107562999920836 -1.5591110434664954 0.3201362821418228
P 1.5908264628092612 2.937298259699528 3.832059068860533 -0.2566704003776934 -0.2975841078729198 -0.07614527700401079
P 4.354799062692418 3.829389085265058 7.500943067106867 -0.10683627832996438 0.7164859755214305 1.0183681965490718
P 3.296806434136961 7.52807921745405 7.904671565671032 0.2689199071690078 -1.040620323079053 0.664924558504371
P 6.997906063716992 4.680350999765794 1.3758006828940825 -0.5367530090317401 -0.7675678817989103 -0.20009173265170055
P 3.501390438485724 4.8678545515665 0.11742811126789415 1.5138305743621412 1.4941904315337105 -0.3748796964312899
P 7.4222753030591395 7.338315017521984 11.95205318265823 -0.12078888385531457 -0.008076349250231252 0.18351351657804527
Ni 8.463624723766843 2.7316630074542885 7.584627051205746 0.14229076248283237 0.20397306998397777 0.08885861080562116
Ni 4.26188921541712 7.3525022125850485 5.963506973128379 -0.11882816058451794 -1.6492588053971855 -0.4290824077259385
Ni 9.335732536220593 6.9547676876465445 6.425034569533408 -1.8024397324299606 -1.5599484517661262 -0.15109653369992043
Ni 4.055667869211898 1.140957484668516 13.51107148898216 0.3797930745725072 0.4347277789371739 -0.4892896733434541
Ni 3.4919478135748974 5.318086349777711 9.089698664590857 -1.0566925460505672 0.7007364259966576 0.14417795220321622
Ni 5.548207305239991 6.136264214834355 12.433760087136237 0.25113250127859976 -0.2880221752160975 1.3379676323508183
Ni 6.361445235491068 8.786469464929825 5.640875272468313 -0.6592748164177614 1.2126739186466147 0.10016683672958877
Ni 8.220972521255417 9.213062140088415 12.851267375607227 -0.6452319651714501 0.9381667471978166 1.8199654000185495
Ni 5.496947341438359 5.329017467285318 10.155150501671931 1.7988327318049926 -3.2047474216197456 0.18800831912460525
Ni 2.4238427384400616 9.147103311893574 9.10029208034057 -0.5002950233150222 0.5008105294988601 -0.2934523450927333
Ni 1.6562271062803084 3.4666248332721676 8.81348467525352 -0.2817425128549728 0.060607072159095624 -0.08485283208033773
Ni 1.2855924496819404 6.718320638647947 8.524008216878867 -0.37877466061032183 -0.6015766903753446 0.9046177075977775
Ni 7.708633369443536 0.0008158800046103638 10.688829055474407 -0.2822881009457977 0.0777604440099306 -0.8019664138834381
Ni 8.972884556519135 7.118120447064485 3.797147405310917 -2.0763928311475017 -0.08248973116479988 -0.4349422089408252
Ni 2.634222560837539 5.5656784870947025 6.980472094177199 0.14868381049336973 -0.15425950480893433 -1.982591274514308
Ni 8.352834359172718 8.623767921022976 1.6195683245452215 1.2907027858265836 -0.446638671442147 0.442563987152141
Ni 8.222135406096653 5.225139290187492 12.532475985846855 -0.6423669849188292 -0.26327325040619176 0.5167531688710454
Ni 1.5676059782994838 0.7593917105625403 13.337507670350307 -1.0520617321467751 -0.7283688430019456 -0.553382390058305
Ni 2.163979840278359 7.682845235204312 3.819422697021739 -0.20197532282765862 0.8437319278559986 0.8349125297921556
Ni 8.896664432485238 0.4247832263456273 6.657868302753322 -1.8320945791819157 0.46836500737564496 0.2593204364060308
Ni 8.80829448763012 5.973153335463391 1.363315020930712 0.5567865306438475 -0.006555798840646773 -0.19226606595969467
Ni 0.23043167829185798 7.363777544005662 12.904028856315861 0.21466963046587548 1.3225937209979095 0.2766923520255751
Ni 1.5418643594539094 8.515489387685918 6.906087467576707 2.2725502617418023 0.5569001734035763 0.8850924930806564
Ni 5.53210367595857 5.561575829374827 2.968750108269502 -0.07120155984549029 -0.46754688234972386 0.24611576479029873
P 7.173194673145367 0.906996218306542 8.70004944537649 0.3221283728711872 0.5430218727595875 0.4322456359452685
P 1.241737736549292 1.6674466192285424 7.439221791273487 0.6224319365577989 0.1277077224623349 0.506262810862683
P 3.209915678799894 5.8738615761793955 4.547973771286858 0.781959374633892 -0.647097300514963 0.05381241783476539
P 0.8789874391744961 8.776208169090769 10.744191676995916 0.06194250314106751 0.33640750849802065 0.4735599213130231
P 8.958567118353852 1.3211860289024564 1.1159926728968863 0.466477560544945 -0.12490316313400424 -0.4077165404556527
P 4.492791629492709 6.951139486941892 10.728057347554689 -2.5778273673836054 2.222481627220185 0.49046029661278767
P 4.343728399003863 1.48504115457181 2.2712024741795767 -0.3515353652783946 -0.15254046523529857 -0.05735976886639153
P 3.915963535925309 0.05091481958075325 5.289582646857236 -0.15581116556677035 1.4519209813415384 -1.7474507777885906
Ni 5.424811268966879 1.4061138346275193 4.188797716760082 -0.6861639274991215 -3.997483060933535 2.0927869562348085
Ni 8.911456327665746 1.9951661736459798 12.017301255638104 -0.07918149272717331 0.7171349219593391 0.5922155608754187
Ni 4.952484658772207 3.313393823512335 1.4131637076890213 -1.4076118750115179 1.5802416547975238 -2.5818858537236955
Ni 5.102040952433738 3.455228561828066 12.52385668340362 -0.654411574788189 0.2797059420409183 0.04005213082587941
Ni 7.694939237553155 5.668635659398271 8.77041700258142 0.7646375955259928 -0.3625849382243368 -1.0804863060360554
Ni 3.1457709509573806 7.329318940390191 13.407304018521222 0.03441395870349557 -0.39603241924950505 0.1128922547160572
Ni 1.3418667729189768 5.497654375421829 13.01581651094983 1.2339824503164039 -2.109522780932251 0.2697927966922644
Ni 1.2285459709103241 5.4612886406667345 3.5736679177538977 0.4266462874806201 -1.9971293202294829 0.016970566416067548
Ni 2.141596632854271 6.858173821194214 10.972232464054196 -0.0043353941505602745 -0.9896644008564763 -0.42455778038270753
Ni 2.0244987808812875 4.24579488921443 1.4534395264342854 -1.284289940321704 0.32203118517169055 1.6036348369104831
Ni 4.424172120781124 0.01657808629664388 7.300597545427437 0.07431439444285912 0.611406789091889 0.8679746024534472
Ni 2.0073811160183106 3.5278297882360397 5.966652344046952 -1.1507414428078762 -0.36199281316629267 -0.08692771233149545
Ni 1.849647416153217 1.0367164875002248 5.3807016514770325 1.0611030164134372 1.351818936411614 0.3200108123075521
Ni 3.420183864252613 3.716645074137658 10.68281089384405 0.3921837349273761 -1.2687833600456728 0.4495363047049161
Ni 8.693717769992935 3.8704621778574726 10.208525055268865 1.573910056152541 -0.01845717826392305 0.22129202087839955
Ni 3.823463024114125 1.8989258241853846 8.738174392319406 -0.6329721739674906 1.6528303247985274 0.1041186222884852
Ni 6.891785844645265 6.590040486041649 5.709323604531268 0.11656096181689604 -1.3451757200634833 -1.4894200067282606
Ni 8.162009608265446 4.654200045456106 3.2948127843651482 -0.780041845896205 2.021936351970834 -0.337273970263374
Ni 6.993124281249834 4.454630400542747 6.730413710688915 -0.2874555040793501 -0.9791133648135073 0.6451172939704567
Ni 6.502005452020806 1.5787510666178786 11.80519106059687 -0.9463968484170926 1.630718837611469 -0.1541306925405539
Ni 3.213888093417552 8.836445603866734 11.332620709739475 -0.5532677188573116 1.3488727092990962 0.6881750443918794
Ni 4.605833339139466 7.946187484810989 3.631222344624166 -0.9892108582588253 0.02183123694247853 1.0688914021096043
Ni 1.807457954113217 1.823245278717821 11.039073224112627 0.8398295074777987 -0.5476804545775213 -0.37030364702483326
Ni 4.15760170285518 2.7169734461398103 5.687646500782778 -0.4977640293630524 -1.4744656994112735 -0.35043416179441583
P 4.1780405668247225 1.5732529470885204 11.004570896027126 -0.07517905643599956 0.48100480762684256 0.5356836872269612
P 0.5148909863074866 8.614353205348339 5.018842589044558 -0.5707594478841719 -0.2148408659364171 0.24409616325710867
P 1.213065647903806 7.273733044979165 1.3772175417846428 1.1049020158762584 0.5706116094523979 0.27145912865109373
P 6.572736759604075 7.3953987086085196 3.399587778252534 2.7395451282427983 -0.1720052588281296 0.5922124755516252
P 7.257229383312361 7.702651489820225 7.456119903478438 0.04704964518963509 -0.3842822206921124 0.5780729508264496
P 0.23852442647897948 4.7643112853029495 7.547972921010023 0.46653695302797066 0.7399670893625062 0.7635839574504978
P 7.144736555310668 2.5129941419084894 5.275408476104392 0.7137930020702996 0.2362247309288319 0.05700161419602441
P 6.861401989513482 3.9247084299313957 11.348469434663697 0.01389706969706639 -0.10470380536799387 1.1858452284895449
