# total energy = -340857.3939922218 ev
CRYSTAL
PRIMVEC
9.39851393955533 0.00000000000000 0.00000000000000

0.00000000000000 9.39851393955533 0.00000000000000

0.00000000000000 0.00000000000000 13.75567516688363

PRIMCOORD
 96 1
Ni 4.367056995305796 2.548585567669873 12.800397870060909 2.5920458249758327 1.7613254788881536 1.250406400200382
Ni 7.335624547188082 6.373592682532873 4.03638250804056 0.925760917334296 0.18586453330872507 -0.016079422060365854
Ni 1.262859491891276 4.067620348100687 3.2166272238222753 1.7279556451784561 -1.0323089749998802 -0.5880550017398259
Ni 7.5880874228071535 0.8780053925688132 2.9825055477330453 -1.8028961032410886 4.480635511030999 -0.5902692357823254
Ni 0.7794347204965449 9.350506114600915 1.072423987287884 0.28704232780133143 0.9163041427967703 0.9146336970728829
Ni 7.5969972138162705 1.2701339415126436 11.83752859783301 -0.4105385832854801 -0.28570586837809503 0.061199711437772024
Ni 3.7246403868183253 5.29756624493508 1.3207280205846628 0.7537533445133212 -0.5303992988995703 -0.34997419143886177
Ni 7.575624993610859 9.306633852543367 9.689855430032198 -0.030869692995662962 -0.21782000316939903 0.6121938037695586
Ni 0.4476230130708638 7.282795501552806 0.35398280129752224 -0.030615668003327916 -1.319009860301393 -0.7882302952442682
Ni 7.527401219699703 4.722536979839343 9.95612378245854 -0.8393502538485351 1.1444293845469193 0.27728704818678046
Ni 3.8942553639718276 4.5338900123973795 10.590343007277074 -0.39897453259696447 -0.25702135595920894 -1.5805846399592391
Ni 8.657544299312782 4.312611405310215 4.061610938426394 -1.7381654958319228 -0.2690664600492011 0.44653762708790834
Ni 5.090479393569187 6.450970646011834 10.959517566155961 0.19375679157260825 0.3591216622660847 -0.44573801400474844
Ni 5.1698404434436345 2.6743376812795514 6.708546313096052 0.22377647786315008 -0.5096163007159481 -2.5371496871585855
Ni 0.393215017130174 2.8440372450565587 13.381273010692164 0.8812759475480436 -0.6667523557417291 0.23126044494502107
Ni 2.7256535662054744 2.5207471700232458 7.915744047316031 0.17562794318238142 0.6411094583626443 1.0544988808333582
Ni 3.9033719222828434 8.082787591115004 4.521985854916212 2.0772474658383127 -1.233922800723062 1.3855939759795297
Ni 1.1068347655807926 4.035298859408333 5.691726752545757 -0.14284406388314108 2.345800990806837 0.2524211381830363
Ni 5.033402219731251 1.135152487427277 10.725519950447872 -0.25808476422671683 -0.35051258044083505 3.1313809929124523
Ni 3.077270761598994 0.6855717639479756 0.4341427248384002 0.9620530668971109 -0.10611688366543659 0.6073547305097023
Ni 7.62923411588512 7.821725075439665 7.7437709830695045 -3.0120044160236317 -0.5649976056997301 1.9688656973980996
Ni 3.804029632233942 3.0495639431444848 2.6724523394267785 -1.0928078037158857 0.07142267471736086 -1.2344457631060677
Ni 8.843785247241735 5.160921253920796 7.862647144039658 0.3998697907177242 0.1460268324864969 0.24954510218682185
Ni 3.556980300519143 4.887443301617775 6.066858089422091 -0.8850696102625208 -0.24423320305560514 -0.17779204071323576
P 2.0374380003473043 0.43716716655436394 7.897545705194774 0.5806399402226775 -0.8753192157439763 -0.4434114227541009
P 5.819540900066196 8.003323157589605 6.114232237692715 -0.6796852617533132 1.8811998213489989 0.6034862486932316
P 6.592907000251995 6.5086493247280215 1.913084385579563 0.3557743430604066 -0.8672665206428289 -0.46779010870878146
P 6.366355826966397 3.338483653493896 11.390428142125128 0.5409104828435394 -0.3263943472363927 -0.035636775367003146
P 0.2700634722675656 2.7696386104276933 7.901011877055704 0.680844315058421 1.26477886687197 -0.2125448708133888
P 2.6347699385069996 7.987279894664963 1.075392977772884 -0.5945575787450341 -0.4378694098899491 -1.116530344143806
P 4.40914353975603 4.087610986788862 7.9863250056707376 -0.5769612058195096 2.0265175435836134 1.1174911653951787
P 3.336002445871104 2.4600045758334588 10.32970060516514 0.3714164204730378 0.663902802108076 -1.6158295792044624
Ni 3.148436307507251 2.598143930529652 5.230994692534476 1.6819197859653163 0.003182768603355809 -1.7176792029531127
Ni 1.0614587413276142 9.186680621900592 9.750999340757945 -0.32834812852865386 0.361067730248862 -0.8791501594542924
Ni 2.1996939412559358 8.272684560882086 3.1057567168411144 -1.5036603186973587 0.06638896894819533 -0.15964930836593794
Ni 5.510715137652113 6.144297143240248 8.572426659783183 0.3139532932595625 -0.483446841409432 0.16247340807829436
Ni 0.750086921546053 4.904661378757754 10.221374275848712 0.11150977254623376 0.7576020288354501 0.5638514079104289
Ni 5.265620696791634 3.7866705773881217 4.24169961927247 -0.9836984130810283 -0.4316190581048631 3.5156963808353456
Ni 5.782275793155704 1.6753320636392552 1.7240812144675095 -0.5547350474314575 0.6256584139148967 0.23266503860203155
Ni 4.062009435408236 0.5526034715020107 6.753774780683784 -0.3838433333824809 -1.0986660622688758 0.15797346332541182
Ni 5.420733767271017 6.145913687600552 5.462117302894794 0.5257479161704881 -1.397413337211961 0.043311518303441536
Ni 3.483794074160506 8.815448728367805 9.928061700185312 -0.17579763599102627 0.1323220813058947 0.2626394734769348
Ni 5.564615613851776 2.2828801862155217 8.988260140038397 -1.625179910071111 -0.4355996400191659 0.5134557290666963
Ni 2.6034352937555294 6.537972687542834 12.49207868753648 -0.30840922351288175 1.7044053686623422 -0.1925972240468683
Ni 4.55194455725868 5.282481630410151 12.822695843868008 1.1312195707248647 -1.4025429451290425 0.8191640087086473
Ni 7.573764087893764 8.357017424515842 1.5055996050642186 0.06573693718649325 -0.4138182824780164 -0.19883652008836078
Ni 9.201436288445226 0.5140178734134805 7.634509501637669 -0.021260966261305317 -0.1737302119390363 -0.34173432002757276
Ni 7.512147431927766 3.3562374459160695 13.595393709728123 -0.9598773994020308 -1.4596533169887893 -1.096587325362976
Ni 2.1129926521640607 4.951005449924371 8.264780410841299 0.7130288702107656 0.7123984357156182 -0.5132333286432451
Ni 7.441874744823165 7.079956778389571 10.57805914984151 1.7025091800808938 -0.7482290722609823 -0.8467424325475481
Ni 8.120466232629294 1.1076994288432807 0.6185951356059238 0.5798015034817822 1.0145642494219496 -0.10998022327558478
Ni 1.5422209137847054 5.043007500755847 0.8944941450439117 -0.8088646836651683 -0.4218000151319123 -0.23104627205168593
Ni 8.034206673682386 2.1609532676909806 9.157029250956857 0.8522679903514677 0.8730648724921608 0.6084412787056619
Ni 6.610331844693874 3.8970843166023594 8.130896703158742 0.6248328326898078 2.324797649082293 -1.1256364202101323
Ni 4.290318130759979 0.5197594254466757 3.26481340367854 -1.8151155281254157 1.5928639715472246 -1.2716136304056163
Ni 0.3867713961218933 6.1810077378411 2.883959311796456 0.21802877674609547 0.7652299776943531 -0.863875492683409
P 0.3390682998709752 6.95482496668559 9.601378761698108 -1.3337453667393546 0.675789526243333 -0.41555094889840694
P 2.2570060779369383 0.6387511881356186 4.543444541447873 0.9477057970365034 0.7718834784551287 -0.26572813970458753
P 7.188800965812118 2.6828809302534826 4.231892270202836 -0.5093422211189551 -0.6617908979713958 0.40646364188515804
P 0.5151851688178394 5.52670200949442 12.72752085480375 -0.6670053522927997 -0.6195502441346298 -0.2524648469367781
P 2.4493936538405348 2.9942724869138613 0.6023187895409581 0.679608642879107 -0.6404103754130906 -0.09581010242278983
P 3.889443324945807 8.639715318780826 12.341962806803457 -0.4338944844026012 0.8637142845151964 0.472000033025071
P 5.452077810536209 9.162394862441145 9.155790526848207 1.522281790453288 0.054354406381164455 -1.2770844237122008
P 7.624722829298225 8.51117184659551 13.11670954865512 1.5671480548383592 1.0654872615240618 -1.5365686393896052
Ni 5.892078628977966 8.453164219899026 11.540956617610577 0.6011118349237841 0.9443127121945543 0.21232349883120205
Ni 2.330577643358206 4.179707022757564 12.297394114879058 -0.6802956416438025 -0.7890931574651959 0.5600094084565194
Ni 4.7913998898855406 8.21431979066414 1.4971400028624198 -0.18341375777538735 -0.02581747528373618 0.2755651803996673
Ni 0.2476442576334455 7.366808815719989 4.854955459232531 -0.8628128557468495 -0.010051727809047206 0.03732753280586475
Ni 7.935512881080351 3.261350051371726 6.422813638750007 0.8306439843237888 -2.6815436120273493 -1.1153154979000985
Ni 3.840242105607491 7.169440027543364 7.2290613790460325 -0.12385466726483185 0.43818976934384535 -0.4087280124393025
Ni 7.503124858753978 5.333957290069361 12.304437361062845 0.49793680749549085 -0.1253207102873971 -0.11353683027859154
Ni 6.839655579527667 0.9454528864483719 7.530571338378368 -1.1241490370313285 -0.9057047700143691 -1.0285466797439704
Ni 7.7802776299225735 8.802187425505082 5.749019152347943 -0.8602075569135186 -1.1289528861778753 -0.34238275224484904
Ni 8.51842749918943 4.858420691242088 1.1315951499832364 0.137143413953938 0.8895273889235583 0.7011467740611989
Ni 6.252690202004106 6.915595570407055 13.545859783004024 -0.42800562972199196 -0.009689716483938151 -0.004817990213933638
Ni 5.774399838656084 0.7137212523988238 4.948480069287082 0.41782380409298364 2.9365731343675106 2.7363824142441002
Ni 1.5220986959044125 1.5785367708092046 2.797931896138499 0.5399100666034831 0.023029885236270014 -0.72277129430951
Ni 1.294147144074133 1.90675166703321 6.153106370152532 -1.0819096687461431 -2.163783342048028 1.1835631173235874
Ni 0.46970388121096673 8.485363527912984 11.781983381731873 -1.4580859725016695 -0.06485813412596572 1.3636295558932967
Ni 2.1163385230493406 8.406697968054015 5.849972347648914 -0.7555258630327117 1.8044521348742988 2.0032547164009307
Ni 2.6610951754442724 1.5937435660125274 12.068142748600929 -4.114788357115623 -2.353591433385534 -0.8446117593577905
Ni 6.359974236148686 4.2600925106277865 2.5147574972277718 2.0866584747395676 0.26255385574166396 -2.1692006564088575
Ni 0.28137646323557536 7.512382394770834 7.36756727577741 2.7186621141462015 -0.6057562756743309 0.05441636996735145
Ni 4.932283610588759 6.114870396774486 3.0689596559140133 -1.1595294734131516 0.521846781343869 1.8116787345297252
Ni 6.124109135763896 8.483333448948882 3.6546355573548204 0.7261965179409752 -2.9113449559283406 -1.7089911882608118
Ni 5.95542461146894 0.5411382246116934 13.528829676138498 -1.4425361976925286 -0.5824278853610356 -0.45960500179482777
Ni 9.02180249566333 0.8934856845214665 4.910212140962379 1.3345377807336631 1.739288296582456 -0.9695354913170852
Ni 8.739950467633385 3.3360212428985494 11.181204068738692 0.35389049577413245 -0.5601389920558483 1.2876573141320404
P 2.9343005708493353 6.7968735450619535 10.102057324584962 0.2535948467761633 -2.038347189228689 -0.004970970852030148
P -0.09570036598135659 2.8053999551425535 1.9831832001802945 -1.3552261623209498 0.0320742548267254 -1.2575985470734472
P 5.58881678668772 3.5804671863121613 0.6141580972774389 -1.5021557091273743 0.5435852014622251 0.26611020563435456
P 2.8826275424019503 5.2685624315868385 3.7928801754047075 1.4104380316064031 0.08252289839558047 -0.27241172237235023
P 0.32737372924582403 1.450181268898339 11.404169709039081 0.8949796702873812 -0.9918259272841694 0.03928157120844203
P 1.8349752177329772 6.359523107489998 6.060764093124295 0.02729277427768203 -1.758360996943191 1.330633303472934
P 7.746922304720724 5.241090575975397 5.979523340505306 -0.5557717162260879 1.9516796725371164 -0.6757054511699588
P 8.591425755273614 8.710815075093027 3.3816538465763575 2.796598164502048 -4.233638114966696 1.9050884550411384
