# total energy = -381163.4733302126 ev
CRYSTAL
PRIMVEC
9.31021952961306 0.00000000000000 0.00000000000000

0.00000000000000 9.31021952961306 0.00000000000000

0.00000000000000 0.00000000000000 13.62644737300628

PRIMCOORD
 96 1
Ni 0.549194017813035 6.617825015871569 5.9843409262939575 -0.44824329692510545 -0.5487963133495194 -0.668323556883591
Ni 6.7312793500542725 4.689185126740611 8.062510387921352 -1.2750910474312556 1.1695012399138829 -0.6557596041756514
Ni 5.35081587175078 0.017886793601822784 9.87474553432681 0.8127894726408711 0.459883452267195 -0.04370515419743441
Ni 4.143168686824881 2.9104211502695247 3.3904784094901297 -2.174987181183648 -1.3192844541190183 -0.16230654348312692
Ni 0.3302111392629657 0.4069198993317447 8.056786465005258 -2.2817108451951476 -0.3831115974227789 0.37922897453892107
Ni 6.105818807596198 2.544324701169548 7.9853565993630005 -1.6295464145699228 1.1729112940366961 -0.05924027371855604
Ni 6.218127984786905 3.2723931721544237 12.322532570049084 -3.25084473019844 2.7593392801505896 -0.5000134875188614
Ni 2.25364102959131 1.4079193154530745 8.472911378304378 -0.9220292182060056 0.15696919043061355 -0.2812048951839479
Ni 6.91261449422599 6.02855329640448 0.00047389016985882756 -0.21164935558231293 -0.9775388212375358 -0.8662972147510241
Ni 1.355176922285093 8.748282531957924 6.17314845259394 0.637681920738334 1.1660140526962306 -1.0085776928212113
Ni 7.255733321730454 6.953923937912898 2.336240365504287 -0.506710954143695 1.7117767214257487 -0.9589345758727872
Ni 0.9323626163132108 9.314874556851807 2.288262011627401 0.4580931931359917 -0.13495900470810948 0.2990110701274334
Ni 8.672255279952676 6.693386756904461 10.209561508128324 0.052317321346477645 0.6813055709655557 -0.003101778853775303
Ni 5.936093507075049 7.5043720422854605 4.078327663485356 -1.2754828835530356 -0.8594673363133843 1.0563063663557422
Ni 8.473100375759154 2.6323993771393814 7.770127601294012 0.21372629271599966 0.5172331938312577 0.8151379182683898
Ni 1.9897521695819067 7.0519698589106055 10.825435317621693 0.4453261232783105 -2.166578388294662 0.7015262688878047
Ni 7.268907282248141 5.290532200830625 4.242867171774454 -1.8290786751737271 -0.07052535971407209 -1.9598722356502376
Ni 3.2526461967070643 7.664116787559287 7.1361025879665245 0.5335180470342102 0.7147288836210077 -0.7744162721793115
Ni 3.0904901045964324 1.2072747761480138 1.9548090539529452 -0.5340206977022416 -0.0855683700901236 0.3130832319497834
Ni 5.198696196204152 1.551994961397384 5.8868024122561184 -2.242847592471047 3.8816885449690184 2.849614054577447
Ni 5.105072629443829 1.8374090487685475 0.9648887989736981 1.9440129000204778 1.6865655122674437 0.12356618949013558
Ni 2.938826629802713 2.5085641482731282 13.423521880988682 -0.38151648502151714 -0.6789249865485211 -0.9198070137437062
Ni 6.39781522011648 0.4408277185581858 4.706383895125291 2.0894576347512595 -4.289826746343122 -3.5626588656278124
Ni 1.63561935247149 4.247964516921757 4.266685506186042 -0.4499872761994056 -1.479540799941336 -0.804513348675008
P 7.163906627323429 2.008279506281692 9.781663822338311 -0.15966987719122824 0.8478631764155526 0.10208128014348226
Ni 5.30377133288444 4.034993247068698 9.848215132990273 1.3106470901589942 0.8413485152254866 1.4407623936215574
P 0.9834477904196035 2.153975130409802 12.288098723423882 0.9810378355297297 0.0842311393359388 0.08262265719823836
Ni 2.115589095629292 5.602387311431632 2.1929998462443847 -1.136906336696997 1.2705000856264637 0.37222734641010735
P 7.7897675092177305 5.101786121978994 1.8474463963544965 4.511258378123179 -0.8431804262279026 -0.4939197159162977
P 7.24093007280952 1.0281182233269248 0.3376527976670553 -1.960207250392153 1.6654888941028028 0.1836127611600709
P 5.014996256292864 6.338834979918923 7.871344583035413 0.665582503803344 -0.4232444608879227 -0.8313551514582005
Ni 0.2991932121529132 5.923422298407508 3.7819656890663147 -0.9995986292510526 0.6343677687634365 -1.1327776592406038
Ni 4.019733797394855 5.322056603878601 3.553409111858764 0.5900023552741839 0.5162577172918656 -0.4317442708288177
Ni 7.433372308781661 2.0166587037841075 5.519882939757016 1.318777946796245 3.691551352426868 2.226226181864282
Ni 2.4069989643244063 3.7119658731311365 11.48386520918594 -0.26587957768078724 0.020583737688622615 -1.8155168773288926
Ni 9.240169356008051 1.776334009195386 10.44521712766431 0.5590863824216178 0.5484039630071071 -1.4424698632309674
Ni 1.8923021026288154 0.16961543993167177 0.05259436067877216 -2.9765982686101964 0.8292895271784234 -1.8605021837903313
Ni 2.3900264342722912 8.017951677647396 3.7913950793223665 -0.8668908824709651 -1.271166772676185 -0.0252114662686211
Ni 7.486654694677576 6.205754703141672 6.300814836762686 -0.13010913281497594 1.0166764106689459 -0.39341837866542567
Ni 3.044041419774709 6.139046980802998 8.770758332725237 0.22072277863849085 -0.9688752320252669 1.716416534190605
Ni 2.970099656925617 6.065282112123401 5.394628833447021 -1.1203810853484641 0.7848752627291063 0.5807651529466321
Ni 5.760037257329855 6.766881629220092 9.891043073469008 0.31843524029031606 0.5540989565093554 -0.5685207883616402
Ni 5.428155864698074 9.16343452732482 2.4404422036004356 -0.7857193558969565 0.21925673561592562 0.12177284503513869
Ni 7.175674744704599 7.746018788035675 11.850730682412248 0.5848853457625927 -0.26575642183936166 0.40387402678111084
Ni 0.9797888741768821 7.338100833179198 8.211746688505205 0.01967716671395321 0.16396233391899503 0.7138541943255383
Ni 5.9100807539397735 8.051282263268115 6.688214930001582 -1.8144876647334298 -0.20452637138428648 -1.2890325972130123
Ni 4.318843217572744 0.44401926178466133 8.017801783114297 0.37991854440677797 0.8563347042216737 -2.3878773511515976
Ni 3.188806021958106 3.8345162917136855 1.5435906263024615 0.5572837819952402 -0.4010368144426319 0.5717344102029314
Ni 8.812644078995922 5.365712222866185 8.120122956882128 0.45087893477573965 0.9249191381592909 -1.0397595177406544
Ni 9.233968749856263 6.567196042518085 0.7798956695812046 0.3496240071882946 -0.8501655992964842 1.3845045995700929
Ni 7.198009961158259 3.3681487791681377 0.7097487521787615 0.33347722222510306 -0.7878466866526045 1.361910516319661
Ni 8.147252005329113 2.649204323241448 12.384750904570353 3.14119026569339 -1.218262982698618 -0.38396340390011297
Ni 3.9533891736146187 0.37887286324727093 13.451415298452279 1.656269432387064 -2.205741431647369 -1.2664374855213156
Ni 4.0852870525220855 5.747170534053923 11.199440798142003 -0.3175546374575757 0.06593259813706709 1.2542576556256722
Ni 8.010484881650799 0.285149677138865 2.1450205613455537 -2.005889840030932 -0.3040573743020893 -1.3012679629369395
Ni 4.162478081958225 9.207378763115265 4.922799015151843 -0.5908796156728147 -2.215398752231475 -0.5066762442510178
P 3.9301322454356926 7.390675642397131 2.473976683027047 1.2527404476501973 -0.511789397107867 0.42253817884951744
Ni 6.860495885760966 0.5702686305535545 7.818078955534502 1.1975933701644084 -0.9971630232263665 -0.6037788402329859
P 8.464181185528806 8.477662383288248 6.123929977486696 -0.5355751866735551 -0.12333838975004566 0.2379273154422354
Ni 3.119035237421327 3.6382754862071165 5.789591617942818 1.9364901092808717 -1.08221537291202 -0.08390666611698452
P 2.9515536997869374 1.0735055431316751 6.307328266287897 -0.48262048885339465 0.6935193394229282 0.6396290171623759
P 3.611666879027224 2.608825901499252 9.403420329925666 0.8122369425715108 0.27610691183575026 0.7253925339824411
P 4.420091854060264 4.325565196013571 13.392985292224045 0.3013613155271649 0.3285754140481116 -0.38703587217784957
Ni 8.46465600672061 3.400483171308014 2.96384784456687 2.169510474339792 0.01904467533627688 0.3906513574432498
Ni 8.799293224308741 1.132439232231997 3.9957236724626557 1.8004784949385313 0.5906348466518602 0.8604433270734085
Ni 0.5764608575078395 7.4335585131706035 12.507224979353435 -0.13488392849579994 0.4474274858920294 -0.30575455949885405
Ni 5.8504953494781535 4.894670980158178 2.0317440523542896 -3.8144534259704437 -0.6462457511479451 -0.12506308575063624
Ni 2.4203125781337995 5.274844481062213 13.28277463849672 0.09151610303312625 1.2405158805595475 0.06593594057117677
Ni 4.13863460995413 4.003291949851227 7.9027265397258475 -0.411778112119536 0.8903457710597956 -1.3821381562204453
Ni 1.0765965359881216 2.5465219129590704 6.3267726596032245 0.17219346357953572 -0.7459335913585863 -0.3425179922711327
Ni 2.8350828545033626 8.553475500246213 9.459465988953488 0.3313781736042293 0.7054495152016109 -1.3918175882917385
Ni 5.197234491750952 5.287832237190957 5.7992388673339335 0.33658928549152356 1.1034603983337254 1.073761328607396
Ni 2.198580391780993 0.9939590281754113 4.24074071765273 -0.825891557240468 1.0304382403397288 0.5794428345907827
Ni 2.236258849883521 7.685390638995975 1.1264257614910966 0.15944104900987377 -1.5026853563785991 0.28719633688069246
Ni 8.432908158405903 8.082806666316092 3.7976087197813797 0.85442823122758 0.07892232552851569 2.5232037665014544
Ni 0.44700039405163183 4.043391065010008 0.27787839575065787 -0.2502542124387045 0.619638690083378 0.43295166087335757
Ni 2.68106389418952 0.9318784849019602 11.197818957914313 -0.5925875995028569 0.006767143520504475 0.32000438454964886
Ni 6.3749213904959925 8.24763479140805 0.42182462964465234 0.40516857722281835 1.2642762162039387 0.4176610532628742
Ni 1.698714709664678 4.978304681451732 7.193892051096794 0.20998070963063836 -0.9671497646937279 -0.6080203891181594
Ni 0.4075120292885821 5.012277672214303 11.649467944535898 1.2125571905630925 0.8881297372450833 1.283539435308925
Ni 8.637984362167796 0.19082039574445106 12.755376775431357 0.9123204755586739 -1.145546528870498 -2.003583046274627
Ni 6.375982755512966 2.5265980433422155 3.0622987601105276 0.7162445489345858 -1.384874581315002 -0.25377276711492425
Ni 7.6371357716015105 9.253548141353575 10.116942514046348 0.8358859494490185 -0.39454760717386245 -0.2258960953093142
Ni 0.25545287016836005 1.7087790568870236 0.6357706794738253 -0.22452441177276816 0.7456739099392964 2.1395838619836898
Ni 4.505708632096055 2.3957894601100636 11.27783377690877 -0.5407469606824816 -1.2193878403316805 0.5572503576541434
Ni 7.585166126647641 7.729902798172696 8.11940048385303 1.5914706907441236 -0.9350693392194154 1.4758093579233615
Ni 5.868836481788995 0.3606211090431207 12.125793667802094 0.6122999903301196 0.9912345735570736 0.36444693113374005
Ni 8.365893198825473 4.213479464089594 10.151212500809283 -2.112218325486543 -1.4891680386184547 -0.6451250072799406
P 1.0465803884905802 4.378195866548186 9.134570984994832 0.4639059431630269 -0.3127716142466355 1.4740476380372485
Ni 8.612790908343866 4.263251897253942 5.6116025666404 1.850052192101601 -0.9929261023268835 1.2818867301968504
P 5.529953804132974 3.586380323008824 4.68627102805366 1.3007730255783923 -0.10503470634485136 1.2800761593506729
Ni 4.504218996984514 6.902484975467515 0.4002249205273148 -0.44596967039958035 -0.9222644741452634 -0.04655702182393272
P 4.133830536719412 8.279168504675473 11.136418060660503 -0.8193565843354276 -1.2882057304363428 1.8260630282758552
P 6.932566294501186 5.715441306178111 11.409478417847273 0.3745079149141679 -1.7568281052384325 -0.42346300465663195
P 1.3118099201003695 2.36169543649468 2.837189757164248 -0.5822864746871649 0.38487897373584684 -0.3706828847411229
Ni 0.717651266445484 8.924310851044778 10.468613709134944 -0.7191367828807164 -0.4423716686356768 -0.11524121456420798
