# total energy = -340892.52111908153 ev
CRYSTAL
PRIMVEC
9.05417799036942 0.00000000000000 0.00000000000000

0.00000000000000 9.05417799036942 0.00000000000000

0.00000000000000 0.00000000000000 13.25170469924602

PRIMCOORD
 96 1
Ni 6.39893173138144 2.04680561263092 11.262570926384935 0.2073263027269268 0.3077026843641604 1.8994873068042768
Ni 4.427067550993649 0.5041284885838322 6.034322695015473 1.084190751470836 -0.33488515831622323 -0.5391528767224844
Ni 2.5776068045184894 1.3815317674057954 4.7183621909234335 0.8637207122730995 1.0176531727599185 -0.27029236203650225
Ni 3.50765198030853 4.062084577071605 4.851170686323779 0.2659088882568259 -0.49548346085899175 -0.3289973320768786
Ni 5.220883562892169 4.364068579681859 2.8629908769759638 0.4173427506915071 1.379022236299283 0.30691309858332944
Ni 7.043380966946158 6.227997902781945 2.635445799723555 0.8472844210939473 -0.6457305020744234 0.07356131832691847
Ni 4.70779234339406 4.67313294957665 11.34728906015472 1.7911834427898508 -0.2753741474347838 -0.19496341028619973
Ni 6.050237223885081 7.563769854003523 12.273755119336604 -1.22338590574748 0.5139326687031149 0.005734588490932059
Ni 1.8407777896645807 6.510759885257831 0.6108709106140261 1.01058675283144 -0.15241345273913104 -0.1972285521712926
Ni 2.8207295952146945 1.486686992012742 0.6610862878477599 -0.9279057315914406 -0.4416959827248909 -1.1939102648858664
Ni 0.5552836895057184 -0.03358737912880387 4.769685799558227 -0.27737986501090295 -1.0126091825781078 0.2566701432673773
Ni 8.788800152722297 2.2564551068425476 1.2675613949878173 0.042582867667533116 0.2192438801001192 0.6658344719131501
Ni 7.135461958357613 0.7040202950428417 4.960364979787033 -1.383192822737205 -0.5561360415440423 -0.224288127392246
Ni 0.770156539070863 7.661518760913855 2.6807275553033953 0.19035342231801408 -1.4037791315289887 0.010985038256593985
Ni 7.488937071897753 3.8928982048479615 3.9070263443758315 1.1751016168197954 -0.21949327710676392 -0.26238956224965776
Ni 7.532505776978572 3.824756460367862 12.783376777781728 0.6939499992024437 -0.08043130597387439 -0.9220379599567541
Ni 7.698233453162965 8.964532695721799 7.218189983778111 0.27982138457286004 -0.6938201584927985 -0.024225705316584082
Ni 6.756807175484607 0.7034978689657088 0.21965888811579318 1.0345314365724958 -0.8959682594528957 0.1443288759587837
Ni 1.8489808750351588 6.565890775789232 9.256462033537321 -0.27468894844230113 -0.43070066005565183 -1.1567796785821562
Ni -0.2222927485289291 4.9682176684646295 1.4289847148971857 1.384242861268274 -0.7665240139154282 0.5623182590953542
Ni 6.411218251081081 2.0718041984015225 7.040286248867059 -0.4615760094782695 -0.812609495419581 0.051384525119563124
Ni 3.662089096385737 4.528981379836062 0.9081177672354424 0.3637157093946704 0.194716070162084 -1.99972227776764
Ni 6.046027031062434 5.594775848077622 4.840529310787311 -0.730249090743794 0.6222884690013992 0.31978661211188797
Ni 5.019056878570365 3.005371449477606 9.616245192968941 1.1037966986272216 -0.32801619911053187 -0.7055037654783141
P 0.40559458443108415 5.596622900412719 12.512988235115369 -0.546014122618692 -0.972442637661551 -0.30543342871400947
P 4.0452981308496945 6.226911401408358 12.563901689481632 -0.17955736014377463 0.3241497741765901 1.0618450367857843
P 2.6066797704400413 8.429974019917243 1.522819500609172 -0.4383674325722902 0.20957164711767778 0.08852385317402174
P 6.173645671568281 8.033455343626851 5.913559878176956 0.18122292077165564 -1.3331956648834717 0.41143049897213013
P 4.736023270751082 1.0088889587999672 12.545362354377001 0.10740372079766018 -0.2538313882670015 -1.0157263880508507
P 3.8556040451996054 6.294645707873363 8.212452823253981 -0.18769695853177354 -0.5495920697779374 -0.09715478937614236
P 4.61018830333354 1.0469708319441737 3.583459897397094 -0.09665933779696256 -0.7836719864496244 1.5422559195823697
P 0.13911925754526022 5.6551491077365785 3.613607594260685 0.2610657012319117 0.15090627206598525 -0.8954177862660644
Ni 1.4623584154225175 0.9713865530550067 2.629536137669056 -0.014104300611866032 0.33893104625082277 -0.3529993514184308
Ni 1.8054393324886802 6.615688755411947 4.892741134295009 0.40447746469306467 -0.8360312167776311 -1.1744439286311386
Ni 5.849822991348939 5.651636086628649 9.125455319581507 0.09529948133495846 -0.14356397276830116 0.7650805966006823
Ni 8.724886709421071 2.4669647479749313 10.296508230060503 -0.8269986742617176 -1.2253666836229349 0.4771121574406557
Ni 2.375789174374798 5.063141671803636 6.813403937452538 -0.49669239356542844 0.6950514597967384 0.8263067904010156
Ni 0.787802226795719 8.952019821569328 8.547747147142774 -0.3712958357347735 -0.3144811407385745 1.2955639705736268
Ni 1.5789490669864616 1.015244991835448 11.479302598716725 -0.12070789410573404 0.5390572316848845 0.11648177183952843
Ni 4.14407015988682 6.865584071336841 1.7811352021793614 0.00853040606851434 -0.43119251209040577 -0.040957930469600425
Ni 5.444874875235138 7.916330495554227 8.167688061244407 0.6203511427693703 0.39286507726511694 -0.5358497804911804
Ni 5.536032340479046 2.614276225877034 4.755612890516847 -0.6504168518064992 0.5094394088184517 0.5827916964583576
Ni 0.285405802484946 7.333277641775261 6.706197941502946 1.012673974377772 -0.3713724546089798 0.5172851301151156
Ni 4.884629496123376 4.838127237333873 6.851038534197952 0.38100792081621476 -0.6563517292336953 0.6074945985216764
Ni 8.48393692147204 7.195617917741852 9.351423159006591 -0.7005320232953355 -0.7842258020705656 -0.6291486864563424
Ni 4.584329570642182 0.397430432026393 10.384632545636482 0.026515272681709175 0.40734038806315653 0.02812761147415156
Ni 7.940704343035018 7.191788000399959 4.673147436261632 0.2259449462693786 0.35711903001375916 0.19522540569833474
Ni 7.2447458881841875 6.122897003243678 6.974319317969754 -0.14507321032397597 -0.2858691334288367 0.4235524790466447
Ni 2.431617236620917 5.056667934452684 2.8172328716273687 -1.0656541261192294 1.1741071141170103 -0.4649675516583218
Ni 2.377437034791404 5.3313898067640295 11.309256984990137 -0.17769099635899718 -0.4065181492721773 0.7317655273883205
Ni 1.2001946881542094 3.2517990151851364 3.6080284097073183 -1.2744906948430954 -0.33497771803002957 0.05713145490566936
Ni 3.8925632002577726 2.6683477775691884 2.4523341015617777 -1.5815765715588632 -0.64352449556204 0.348564969796161
Ni 0.9216610068571979 3.3432462141286665 8.21141883611345 0.7834027919486379 -0.296714817894089 -0.9993502606856725
Ni 3.6416538163841974 2.698751707673384 6.94464877629273 0.11210318315585856 0.02287716170848963 0.053637839930114076
Ni 4.044600959134976 7.005824236132518 6.010469462776193 0.8653032262688711 0.2794444608494155 -0.20515757721038214
Ni 0.8796994183914761 7.465722159215455 11.574834137407128 0.09113557976525596 0.40994337290364236 -0.5718765922077506
P 0.2446357438589241 5.436535977192863 8.014790155446446 -0.37370238829373703 1.3943493535746565 -0.4438425967542485
P 8.561938665917436 1.667526091468101 8.159034983221602 -0.42177996052725425 0.15761350888283177 -0.3167041165318223
P 1.755867707318796 3.155688914513298 10.470741401164457 1.9899842245442694 0.03829452470482437 -0.07230096355725613
P 3.9763867812299702 5.967373385792885 3.987981561721761 0.4776374338165064 1.3647893805293527 -0.2027296844951799
P 6.970820783546805 4.128315889969816 10.488180653628332 -0.8018543137856061 -1.009580937274745 0.1373475595449441
P 6.436579003976212 7.707622635866374 10.070302265751039 0.0869984176684308 0.17652962906104439 0.3473349540438018
P 2.2853832059142882 8.359532514196385 5.975949503301727 -0.08868840377634403 0.9850346153939487 -0.33281850559518167
P 6.949706440186774 3.9143747153325212 1.6594180749677117 -0.10912713124667012 -0.9769500386136012 0.08627259524599981
Ni 5.457297207606477 2.6931290630650735 0.3231309410114918 -0.5010473281000145 1.7317667913944306 1.143394772634818
Ni 1.4566361748549619 1.1393868279458186 6.807918010933737 0.2530682848487319 1.0944412255542506 0.4436505353481005
Ni 6.796138525208438 0.9799970764406796 9.308408569626303 -0.5842824220712712 -0.5648723929757755 -1.4675836275794596
Ni 2.632176336006871 1.7004289747315453 9.122777999113426 0.13606303640556566 -0.5110730877671327 0.38590098724245797
Ni 6.47542142808193 1.8053397365294346 2.585089177311255 0.3074797697200769 0.9494927137335971 -0.22370140165084054
Ni 3.9073667814728883 7.163529910508598 10.341179734035512 1.4174581716779782 -1.2025687118918127 -0.15081782611723704
Ni 8.240723588994703 7.0581936023393865 0.41018686357010975 -0.8309589444610463 0.83562883913289 -0.052430192775258094
Ni 7.505759734832117 3.831936423611646 8.34172294584768 0.4105707220749961 0.18498804424104268 -0.02546497704032389
Ni 3.3480449285286737 8.35999427728016 12.370598608435614 -0.5972603223881779 -0.014235426873091614 0.8496513786642271
Ni 9.370531096496732 4.708163564696702 10.119889283023715 -0.8215517922145336 1.7495811938680321 0.554418030411671
Ni 8.762896149140373 2.29916366500261 5.661883605417192 -0.46057379346600036 1.1991460593635088 0.5230158619513057
Ni 3.4951481603341716 2.768894425516505 12.04515070324495 -0.43172293067257905 0.3520066484878583 -1.2825264206633782
Ni 1.0482746335924777 3.411170658334049 12.538776345217446 -0.5440215176686952 -0.21315319382134904 0.3431273437203574
Ni 3.2085019354477144 8.609473101011845 7.904774648028324 -0.869364283712122 -0.3551896742015302 1.3047973162464368
Ni 5.644573827700337 7.910653525877238 3.681535660137313 -0.5566250653653189 0.5105452402881208 0.35185932427671657
Ni 3.197971926302039 8.34146942886051 3.676672661072702 -0.0213758945726148 -0.5382313933494794 0.34492145950630276
Ni 3.2795410169240453 4.2167299392454165 8.965718793054632 -0.992835085274974 1.166056990119024 0.44049167800414457
Ni 7.600457383718294 5.979189088230638 11.350204505507179 -0.19805824716143955 0.35753914827031325 0.24596972613073764
Ni 0.82312710270445 -0.22634902032365203 0.3852643328956582 -0.4298187716713307 0.4417952273069165 -0.09880389494379113
Ni 4.689403307646109 0.3675606984308776 1.4736562188721947 0.14482792708238926 -1.138542329638523 0.380128603535055
Ni 6.0201682983710745 5.533560549854136 0.5723598694272527 -0.7707290531357114 0.5967291324750561 -1.1892511688473002
Ni 8.00860162470606 8.949412218272721 11.057633226463428 0.15592506543681534 -0.273715014564806 0.44314428513564325
Ni 0.22367713236244055 4.932670965192125 5.627350064675556 -1.1535848257939423 -0.9854030544769609 0.7479048561523441
Ni 7.7652524795570255 8.844718756749549 2.555591570436193 0.09175084475175166 -1.1891758355246747 -0.7318382896077847
P 8.585841696136338 1.4398859453455035 3.6030458954916127 0.47941895119696143 2.2772139857660583 -0.9885559982836458
P 1.8697964305174535 3.328252495173173 1.3632957472679577 -0.1112061252628859 -0.24099644128586237 0.9773578155749812
P 4.6857092029759135 1.2909628237392476 8.261072854304166 0.482619203301814 -0.5628535627735339 -0.105555868955644
P 8.688316884021772 1.2678112903037424 12.557395357089474 -0.11404770847673906 1.2886728998807484 -0.3427013119265324
P 6.143522420985596 7.75871536295928 1.3771830456580156 1.315958989290211 -0.19604995848215914 -0.6025719644090783
P 1.7696934372976842 3.1773284002038955 5.873460734149125 -0.3743317943476199 -0.2514407765476379 -0.2938832619825648
P 6.8635649896175925 3.931007240526508 6.14364917947918 0.3336147762442319 1.265450439017698 -0.6960156234822207
P 2.2551060343036777 8.57819996980878 10.085329485165552 0.2950022060783564 0.2095963297080261 0.4502032488649537
