# total energy = -381164.5591468793 ev
CRYSTAL
PRIMVEC
9.32340219725698 0.00000000000000 0.00000000000000

0.00000000000000 9.32340219725698 0.00000000000000

0.00000000000000 0.00000000000000 13.64574153962632

PRIMCOORD
 96 1
Ni 3.3027500044101994 2.373057619691892 6.380790163371673 1.8778954395661143 1.2086529704126798 1.1107034530493838
Ni 4.612930437389109 2.143972301539203 8.969919496272315 0.04926233657023774 0.5605853355646474 -0.28285168675875155
Ni 4.690529114813097 2.2842895063008313 1.7737418604997806 1.6502815902347452 -0.41895868902837524 -0.7078157014409422
Ni 2.496872402365276 8.529598513688939 6.5995582045284005 -0.13687936165927395 0.9195715006941325 0.12675924250613654
Ni 0.10968982817412341 5.332902210552064 5.576414561438849 2.2683979301363255 0.5839450933365103 -0.691683314655454
Ni 7.874881233291875 7.048436205751659 8.40767358466374 -0.04057406476762044 1.4538063712897091 -0.5701125583287923
Ni 4.70640686894659 1.561930942146583 13.177078683017262 1.3503364383288163 -1.320615771335932 -0.3585915007942276
Ni 2.755568846253708 0.7783567831070254 12.384424462468246 -0.6163659328693771 -0.45033257535396637 -0.9350701105503638
Ni 5.090876009993451 4.960245820231646 5.837102484060642 -0.8760933749058395 1.570434953119747 -1.1121640967553104
Ni 0.006785572201030771 4.291179823679887 7.966520022254105 1.27813446224327 0.029124171059465975 0.8912209745758974
Ni 3.552514628885898 7.317546890020072 3.103342008149653 1.5707033762897853 1.5043987395252802 0.09716044580309718
Ni 4.060891786629241 9.150583724529355 8.209810476165918 1.6826548643591277 0.05906183915916279 0.4830768596645229
Ni 7.86196832109288 6.8815379810049535 0.9968982655876264 -1.7354799785799595 -3.956225596945645 2.318679451999697
Ni 7.0907737756402 8.717390483011778 6.568787247545326 -0.9092531494872599 0.2941030913028548 0.42184192411344124
Ni 1.1171766817649247 7.900194270562826 8.742199124217773 -0.5596512537861523 -0.6347981714326357 0.7448419009563043
Ni 6.288215304817545 8.962931606241163 12.611967689878904 0.03347216361551655 -0.37994117011459727 0.21926136360161594
Ni 0.5524805800293499 8.388302351684787 11.156171562605739 0.056318472086070756 0.4590542714976804 -1.483808574078754
Ni 5.140504480488213 5.266985756222183 1.6323170355437546 -0.4188627868804593 -0.007079532554600711 1.1301821305992856
Ni 1.2754041423635687 8.620091456507302 2.1776288515371434 0.21124594949630718 -0.4795562481057742 -0.6957891092937114
Ni 3.4402701884789053 9.473322618883412 0.923481134099557 0.8763574272005036 -1.1067059018542167 0.6595846343486963
Ni 5.833559591182939 3.1817975062459074 6.840473987871922 -0.073966267074821 -1.6888689635896397 1.4942305407430265
Ni 3.12625799868677 4.1248876200833156 2.082804256005674 -1.316668870873042 0.6663872590928266 0.9412780391332886
Ni 0.1877919693228384 8.28712478981946 6.470182944717486 -0.2774050618218835 -0.6993097208524601 -0.41620503754263805
Ni 5.169239206406839 6.567115561511189 7.777144939219072 1.700436356712265 0.6859248149051219 -0.8832973488534465
P 2.816721042003311 8.414902018474486 10.725184238074648 -0.31642798005230016 -0.3380334741372178 -0.5060681783533736
Ni 5.139945076349627 7.16253600321829 10.930198396144043 0.07800804124436243 0.21264720071920798 -2.2041661167404487
P 8.468828577434035 4.196985490144556 11.670302191914425 -0.06619279377698924 -1.1854194538060359 1.3322908936810152
Ni 6.635595951476249 1.051493312492787 8.05287057742625 -0.756885976605032 0.01835921923347806 0.6573326050897259
P 2.093047878123388 3.473181798632297 4.191452983213955 0.9166990642423438 -0.41586822302850956 0.18170525972471285
P 5.837083837256022 4.232917882646305 3.8025766698952777 1.3237113795421203 1.569867253541735 0.02336772819166298
P 2.4257161959373192 1.0228704674018767 7.702994055969226 -1.136915078447745 0.9114283027617078 0.33242152726707913
Ni 6.817812526217861 4.754133365370163 0.09898656232253875 1.0993350633114423 -2.927833183391351 0.788121794690862
Ni 3.2011435660386236 7.085021236415089 8.694452116309117 -0.27114468273446857 -0.8637268829206867 1.4289898264666614
Ni 1.2915336283594239 3.7500309068177984 11.035052175540104 -0.9130990055959114 -1.5631319917004305 2.08737555541125
Ni -0.41846040118772176 1.3465137317799767 2.175063051221502 1.4308333074333035 0.03354106918023901 -0.8937925919578156
Ni 0.498944671626576 3.842770789592809 2.951273587116825 0.026655140693683126 -0.055100026297937366 -2.0173682729841773
Ni 2.699059704854357 1.5633201290907346 2.6077015503016496 -1.936795556336432 0.21207127361107994 0.6284688867804983
Ni 3.511286543872216 4.700962001997699 7.742812442553676 1.7444212469336473 0.7764752115908693 -0.8015159566095809
Ni 7.386614654330647 4.545755323747413 5.491701195712295 -0.7693841090720427 -2.555930053089882 -1.564684938009847
Ni 5.6680319065757665 5.054496094180835 9.708781414855041 1.4633906725440347 0.23755579103542956 -0.633795184089418
Ni 4.773926948473746 0.2377989699513746 10.737028688368945 -0.25348326089896345 0.4172262797183008 -0.21687075188225233
Ni 4.80389236349726 7.595673304322008 5.275757213115188 0.7212710556148998 0.5641434852295509 -0.14550027055906553
Ni 3.3815980177436944 2.425865370374275 11.040182843831154 0.8984144070005431 1.4814398167362615 -0.036471355453156544
Ni 5.934429480772046 8.203214169031774 1.3567032781642947 -1.2636725211816688 -0.7493737273883868 -0.26318326179554674
Ni 7.725949204796044 4.805673133338421 2.590835515523325 -0.7220110191047179 -0.3414270731997991 -0.06057596181084406
Ni 1.8449894362703727 5.164922471137428 9.570317702472588 0.23455017143988638 3.209310101289763 -1.0050732792123789
Ni 1.5258120815986393 6.244544488398709 11.974493109713478 -0.0982613921767598 -0.2604620062096417 -2.0036362681100655
Ni 2.124999177838877 3.151216746669951 8.587947162364003 -0.9509397305927687 -2.6002255325731474 0.1241418594879475
Ni 4.931072894404461 0.8236517362082176 6.043221465303741 0.94269651674737 -0.926806584989991 0.4287538207419261
Ni 3.824916474169652 7.59087175213249 12.606140563435316 -0.2837312611502275 1.0845501916927838 0.09356013004634856
Ni 1.6560693352680553 3.055875634650522 0.42083786877670615 0.014143895600549836 -0.6989618505947381 -0.02234391491283894
Ni 1.7923028898180162 1.0695527427667586 9.751110593681501 -0.27946271568186065 -1.204656704769093 0.8146699774930356
Ni 1.5564674283930737 8.325807586002583 13.253358099014422 -0.5198873436246529 -0.34072079116139387 0.5825669820420613
Ni 6.323411148536823 2.2073900840500733 4.771697722981488 1.4882164733384629 -0.505099129571885 -0.6125774123612224
Ni 7.360070927954809 7.990202396461083 10.636828219065677 -0.05331233826989529 0.7254953781088924 -1.3103120754170787
Ni 8.611737688037772 5.690976799660043 10.245441113504986 1.0447340881371106 0.6630016304500452 -0.9275689170773121
P 2.4398225036319596 5.064005964536773 13.584881503024718 -1.2133025533695492 0.7451774299188522 0.5843646973724322
Ni 2.8220819983314125 0.7944004938016308 4.979562977477202 -0.9949968688129831 -0.6847374794652401 -1.5066332852827535
P 3.8669836653912113 4.154806418095279 9.698752230990449 -1.8120060359621566 -1.0426250122139076 1.9744668456349608
Ni 0.31401871617375254 1.377719159310686 11.777162367487541 0.0666296242040917 0.2229717225736676 0.6877191878013834
P 7.467206143896063 2.6814944149028017 1.345341780109642 -0.4521845409610406 0.939633304441014 -0.18476435826601084
P 5.56138150755462 6.334655171722373 13.457375585376907 -1.1845892445952566 2.700387741317046 -0.20392910411991977
P 5.948880754352148 8.304578198943299 8.899902609606608 1.1896975123560993 0.05484985796034425 0.5836396462809497
Ni 8.43280295090919 7.088321720832737 12.382978402770005 0.9292846142168383 -0.6655498507931957 0.5938533535891579
Ni 9.43229964872054 2.673560199537211 4.896078436175072 -0.32087701696258936 0.4028777243061127 0.47910553372160064
Ni 1.8685776441140218 3.94893637169385 6.288735550666428 -1.5868136515880864 1.5664147762167602 -0.5939070896452288
Ni 7.7006454909274025 6.710984982552829 5.703224020934122 -1.0852443895463308 0.8922501871713601 -0.21767242184794128
Ni 6.6906599655175905 0.7641861439364475 2.352934920486774 -0.4759155660293932 0.7448095050564721 0.149678056085839
Ni 7.243230050209113 1.2170955843184377 10.411073220218029 -1.1173428127427725 -0.8513359654555015 1.1559399562896802
Ni 4.656825015463378 0.2038552591622942 3.716622359321297 0.7462742625274567 -0.08505286390628579 -1.0913319905013075
Ni 1.7882099162040392 7.636864095726453 4.516453734968353 -1.092582575078957 0.026948503564385846 -0.03705448165013618
Ni 0.6250763197739307 0.4889117584010618 4.047450237519285 1.0201453430541527 -0.4482538384480667 0.49553925379759184
Ni 3.9311752902937904 3.6436881800728727 13.608529380643148 1.9841660752005956 -0.7255843382782731 -0.1958095603365789
Ni 3.096012881593964 6.473974772436859 6.288503397948915 -0.6462598922153322 -1.2600475228345718 0.9000414010810048
Ni 6.698081393756146 5.700738401878344 11.6869770969454 0.06591331486335746 -0.5196130069173438 -0.286679545145274
Ni 7.619671741867286 1.5520015186867069 13.095190308190562 -0.30564374495260266 0.320156593856797 0.3265334439174183
Ni 3.246716356528646 6.91752631392056 0.9913415178110198 -0.5212114617527153 -1.1000326035990993 -0.0269202214296117
Ni 8.886032183990405 2.506587387572028 9.764742340198579 0.7935987586450333 1.5568808685843962 -0.9061359440145169
Ni 7.724000613713308 8.702239954258445 4.223629909265339 -1.0648827951708435 -0.48124109200736476 -1.3993802311303447
Ni 6.006275618970923 2.9596860930209057 12.02450477204317 0.4736460532689263 1.0883911627054288 -1.1740191823888944
Ni 8.47266981918565 -0.6062989875221089 0.4730936740423523 1.3271265758712563 4.0108970203465955 -0.7324563828077579
Ni 3.108151951401249 5.509450156689352 4.288570203373389 0.14385553586679095 -2.0020200726628814 -0.010694760709684807
Ni 6.1639157052240545 6.547750854913853 3.3772393271638896 0.12140697705528768 0.5601122525829708 0.7526397997341683
Ni 7.256991392018294 4.980486926646098 7.742580289836163 -1.6776095886257367 -0.5169231187900064 0.25316418699664783
Ni 4.251825742530463 2.924779274773229 3.9164098180558504 -1.3899414543149482 -0.5639735353105899 1.3485227821588452
Ni 3.697605415630115 5.09021404842946 11.821278842536781 1.0492399464272641 0.38172165905378774 -1.8854138594303467
Ni 9.000467623940187 0.2593043297190272 8.415997518245879 -0.9807879243024528 1.2809063685614521 0.23691378657605652
Ni 9.064258342543447 4.307533071331176 0.47873246775928474 -0.6654557484174927 -0.6586736924986528 -0.2751219222146617
P 1.426527170402189 0.9610842802952115 0.4832599119208958 -1.2886826700727612 -0.5778027278841984 0.9836331070607318
Ni 1.4029482859608495 6.088862316630625 2.5873420366778643 -0.5978347068344091 0.12131416023116529 1.1575003587982646
P 8.843396265227952 6.932443757616149 3.5457365154067153 0.1477942087995648 -0.7025608807999061 0.05789558676520352
Ni 8.40818916881147 2.3983426867559143 7.033574702469927 -0.950790349499098 -0.017543151090085918 -0.07790416867664648
P 1.0908660404468307 6.070243482218069 7.572759178465354 0.7843512719048363 0.44386933622712593 -0.5876523669847686
P 6.718387763986764 3.128178619562577 9.001017704676462 0.645175915122534 -0.5491171870240479 -0.20308141140764382
P 8.554193648982041 0.7462786851201246 5.586839989901603 -0.34122215627784463 1.0381955156876443 1.414524800081267
Ni 0.7651240782088075 6.325247858791842 0.4545559532298908 -0.20189793262250388 0.9169286637546468 0.6811921853161429
