# total energy = -340885.91496393667 ev
CRYSTAL
PRIMVEC
9.09670971415212 0.00000000000000 0.00000000000000

0.00000000000000 9.09670971415212 0.00000000000000

0.00000000000000 0.00000000000000 13.31395417617438

PRIMCOORD
 96 1
Ni 6.696451858673237 2.178307195003331 10.990269842465331 0.14142532915874353 0.8687991552372716 1.4861027694295696
Ni 4.8530491269906255 0.6302346008800714 5.916640970311195 -0.3664207670306593 -1.2236278465549573 0.8390080400177681
Ni 2.6423667422611303 1.6249088620471184 4.6081193093744615 -0.04064142767044614 0.5422330583097048 2.5662111233009157
Ni 3.4587327584440746 4.769923393998862 4.93311290750646 1.3051197325828618 -0.4404258577632157 -0.7661028672176097
Ni 3.5608797113620545 2.730013539960368 2.9475495260672964 -0.022030754547794316 0.07510012356894807 -1.4425261703901995
Ni 5.1780927570258255 4.200141886921599 2.516403693748301 0.9675801673629271 2.145997478819517 -0.1651463269247672
Ni 5.642343335186757 2.85667612544705 0.32858679845282873 -0.5133762819790126 1.2218902950385602 -0.22518518528521864
Ni 5.778866753958958 8.000055838360755 12.263016873271104 -0.2947178420687182 0.5462110691208464 0.28577374550155293
Ni 1.5784155789084777 6.979432303180542 0.4288998547007344 1.2725633959133953 0.6706491196929739 -0.6278623635447509
Ni 0.785204327527157 0.5062091515275885 13.45082155816342 0.9462284411600284 -1.276257556935531 0.46692441827437653
Ni 7.905186253181164 0.1594462174771628 6.7243723896725385 2.3076129097728906 0.13450134834540062 1.7790624911566006
Ni 8.570656049308585 2.3643803913642962 1.1470159483896063 0.9151733716264367 2.3401227094751373 -0.11758631775761685
Ni 7.127899701753376 0.9437381450241191 4.774610018822386 -0.7058778609882811 -0.2421544661497055 -1.615397119652734
Ni 1.0247352479524023 7.834613979538124 2.644378024769828 -1.7441595086318284 -0.9791213352333072 1.0536182780006176
Ni 7.834659463086489 4.16677515584108 3.3561682665521047 -0.6363038094438849 -0.3473508948834018 -0.4296724759014535
Ni 7.706132052116845 4.0701499056946036 12.539095644149512 1.0212172359620928 -0.6670428903989544 -2.1313162226582585
Ni 8.39125074113792 7.792105055236253 8.989727818878626 1.111321289139041 -0.41329737697753977 -0.13615122524399778
Ni 7.092586274802837 0.9509245456657794 13.117160615054999 -0.5451101227471837 -0.5436281388850185 -0.36376507457536705
Ni 2.0977376374296783 6.891412540384712 9.181621999759335 -0.32516947369035615 0.10340411271996386 -1.27839080122845
Ni 0.4225603577296292 5.1722981529641325 1.1620237000081015 -1.9080516514345203 -2.1403739619851527 -0.16955216930194672
Ni 6.674510594941991 2.1721578192643913 6.971079704358804 -0.046640582676674515 1.1116246793120725 -0.5884980028145155
Ni 3.4357544698101075 4.434363967581689 0.5784843292214111 0.8178710009288366 -0.12296789378450435 -1.2625605190644127
Ni 6.356225820193821 5.830827159611065 4.5160396850515765 -0.34465766432195477 -0.7593475507716471 0.5758060091691439
Ni 5.703509611027927 3.172823173422068 9.122654398646125 -0.3907251481039787 0.502293798912606 0.08969010556798102
P 0.3420199096269298 5.960109597483568 12.334273219481553 -1.2101002443821678 -0.46673724196423483 -0.2512343169637866
P 3.967247925873765 6.063138931239827 12.317297849560791 -0.7325849379658221 0.4724461194235541 0.39026543485874077
P 2.6132754647269154 8.558803036604683 1.5496645183160325 0.3536794082045909 0.8109207948632486 -1.2883337713737748
P 6.813080773390614 7.853480555399901 5.7531194269005335 -2.292493794743265 -1.0114071918502066 -0.9898253519143726
P 4.874089816464245 1.1213423046795328 12.648522693818784 0.428065793535966 -0.3601313344775217 -1.2624862141830515
P 4.65601439547371 6.334320943301266 8.119101748838244 -1.0832163033727087 -0.5787051850938097 0.46746486415887883
P 5.018836660780828 0.9346323386414583 3.692812020762298 -0.2979543467281449 -0.041222239874580624 -1.0876689398274237
P 0.34055806838248065 5.680767836845457 3.35547600694599 1.174868674873383 0.5475585842876763 0.36426772524339845
Ni 0.715820993838377 0.11477409561505433 4.760031631900456 -0.38010726337881634 0.020348738859681085 0.21674631048924606
Ni 2.141974936569418 6.799590352945573 4.91163739531047 -0.03843927781280477 1.102871615709791 -0.4709337965440858
Ni 6.802028271137934 5.967068580383402 9.054753828634043 -1.3156581702203407 0.00953879272837067 0.6476215484495492
Ni 9.115448894914152 2.4963463585903303 10.104439531877517 -0.318398987735742 0.7046992672991477 0.3015448922928806
Ni 2.762552470460645 5.652031330988489 7.029914493510788 -0.43289278261096414 0.2215784417705668 0.3356775723105315
Ni 1.0933608257254224 0.4729443035954067 9.178732884767193 -0.002754422816685579 -0.2907940815342798 0.4593221804470863
Ni 2.184274636548811 1.4237533210483393 11.47421843575215 -0.9897171084712826 -0.6969322217592191 -1.4829377414380267
Ni 4.23853909845128 6.73439423471927 1.2916854706739678 -1.1060656971670564 0.7935432228167495 0.5667744950944948
Ni 5.887945399647755 8.111945367338503 7.826235000258335 0.2280005432468267 -0.06595136719014447 -0.39082130736221077
Ni 5.261036555824128 2.693653991397436 4.752375841039669 0.38973373072498685 2.0890827679103436 0.355831164440271
Ni 1.0007017409963685 8.203130785100534 7.161642126943389 0.49664688503947363 -0.8963081592908176 -0.5877187014463298
Ni 5.719074081278409 4.6366202104509 7.286234301308499 0.269771970756658 0.202539937081877 -1.6619801096185958
Ni 0.77369608011986 7.7878841819479865 11.183002739977889 0.46877047034417973 0.3352829079752742 0.1423295861405678
Ni 4.893438517938692 0.7012489746132179 10.432108472324341 -0.9123035062778094 -0.8617162802485612 -0.14173206176588493
Ni 8.38531058972146 7.111816719051533 4.563783765770253 1.277623326934806 1.0511479620832542 0.5912326281368593
Ni 7.764005319056394 6.222895346516839 6.962506055492013 0.04752144261973106 0.5487988844526807 -1.4302113575785886
Ni 2.3146759697110912 5.479148363653357 2.4562644364292114 1.0822716800712522 0.15970972929022814 1.4289366046312229
Ni 2.158303530432431 5.675391681428722 11.135551573310682 1.9877288528511894 -0.2902947733003581 1.8960224881841279
Ni 0.9874296415834795 3.3573135422999334 3.737360427372854 1.2606872133010998 0.10197200825912761 -1.7655019788633464
Ni 1.4985555646893178 1.2154022826982267 2.473519985007902 -0.2596922179231528 0.5279279545409424 -0.6207465784355761
Ni 1.6384447660405241 3.803106896534373 8.007012092247688 -1.6814402752257367 0.2527296705623906 -0.20564865791418777
Ni 4.050082564155992 2.926620726122653 6.952093961600312 -0.08576685925417488 0.667199984802109 -0.798438860346154
Ni 4.6241213313602145 6.775402201925099 6.051537897393866 0.37480924820467065 1.3642769596693085 -1.3261431289120644
Ni 8.243929527983884 7.78951249297945 -0.0915483764779819 -0.2749350030148362 -0.14005955915946847 0.6509981782312659
P 0.6617956350905025 6.000135120044714 7.730587646401705 -0.11493139663327304 -0.38999701168870254 0.28706006841314435
P 8.834633467309018 1.9736494207804514 7.935262704372963 0.285893816019185 -0.6311364063103325 -0.0837004636434494
P 1.9723394945875414 3.592117812379094 10.449736076328657 1.0395057498586358 -0.548215758255701 -0.6865858455278886
P 4.366802704840409 6.129317494110813 3.5453061444018994 -0.5993295462123808 -0.23011064761129404 -0.5913344438220461
P 7.256236081819887 4.219390524589641 10.257829160054404 1.3499286613674364 -0.03925380329430014 -0.40982175972411355
P 6.428535565384401 8.005686701648333 9.988954073566035 0.6531751312779267 -0.030490969500005558 1.35375112043732
P 2.831241725201376 8.737080352775898 5.9595255887225616 -1.0538944144801399 -0.3635951246564061 -0.14997296161843848
P 7.142026891875526 4.470850870080042 1.0978273101748595 -0.10360208766338286 -0.44722411163197173 4.066884848566126
Ni 3.1082729215825466 1.9536548529192244 0.21319230723807664 -0.563225601400972 -0.45662123657615555 2.072888931759301
Ni 1.883055289147166 1.514793191455601 6.996868876281725 0.6917272805195119 -1.6326993583766074 0.7712589574972524
Ni 7.086818960870163 0.7648222398338604 8.976680408194659 -0.7072875968516142 1.5640203078426549 -0.933588898019147
Ni 3.049117018579107 2.230240310526418 9.008274190559911 0.288167185434394 -1.3313496128136686 1.9407110893407544
Ni 6.542863012554512 2.2684555878626402 2.4426976036229178 0.30006882196798645 -0.05961899721421345 1.2961807782220192
Ni 4.378310042576738 7.003711421297746 10.243530042119435 0.5691016005657747 -0.051076249850524946 0.32859906819719537
Ni 7.498554234088936 6.4916121502568975 11.361489280471584 0.2395085438864262 -0.8890296233515333 -0.4397583993825458
Ni 8.125754172622099 4.107564672579602 8.043186067933291 0.3949880371453907 -0.7090084361974628 0.08752960758155248
Ni 3.3031699263263103 8.471811202001902 12.77781422840096 0.3543206413330156 0.3185311424382321 -0.6609182655584553
Ni 0.3403952372793342 5.130935414081056 9.971698524987344 -1.9928294073025483 -0.07690041000248046 -0.6667430997703485
Ni 9.335680236097188 2.50636183594029 5.785818459491056 -2.8150504576699644 -0.156994130131278 -0.08124017502841492
Ni 3.9326258488583736 3.0576406355426964 11.61516012641252 -0.733204316717376 -0.6775561312254524 -0.485174622733816
Ni 1.044529688200824 3.6749797407903406 12.499366674323706 0.9079151474021266 -0.11351960388741096 0.10582480634631454
Ni 3.55459388497802 8.732441030842674 8.159576648857234 -0.41908493019359444 0.30528944693697746 -0.0029449415609368638
Ni 5.701626592125619 7.86912689603744 3.375167654375107 -0.1168440402749536 0.9057407654586273 0.6405453583290581
Ni 3.0964744891366816 8.805687737129572 3.6295971659027715 1.6266557232856889 -1.8809748498223866 -0.45711231727996116
Ni 3.6756074137577763 4.573543625578402 9.111751082432082 0.3777433911323301 0.7096398991338746 0.7985579024225214
Ni 5.398251324531476 4.595175601180767 11.242382422039286 0.6258203934140577 0.9441250216637805 -1.5249968753916059
Ni 7.936297000262782 0.28087364654704045 1.8787716485621562 0.07516388692734798 -1.89380285482499 1.2507311305296525
Ni 5.386125410537383 0.523297320648296 1.471391879934809 -1.2424452363717764 -0.8807162183898316 0.0713915643691093
Ni 5.800307698658191 5.575828194057871 13.224643697867153 0.9420136317477324 1.0844244647481969 1.2053897262803757
Ni 8.087930053801816 0.2551044873854006 10.922568490395085 1.0377643416874966 -0.7582980264612103 1.4348722533893676
Ni 0.5528288789306836 4.94796419571858 5.427140655110951 -0.4228469683391879 0.6956754665339825 1.438695998010832
Ni 7.61666591248301 6.519402598307876 2.37381185995325 0.44251642174365724 -0.7345315201692317 -0.8191210712858539
P 8.58101720162612 1.7513167396629568 3.428809131974781 0.6207998002710147 -0.06257653718064062 0.22896650670452176
P 1.9256824706747868 3.314277008837028 1.597621462041057 -0.8932488036392036 0.0850243246611955 -0.2617460151283879
P 4.938994839981014 1.4241899631126427 8.208665223265578 0.4683539516320515 -1.5786074616282104 -0.42633569821873674
P 8.85049812897871 1.8792801546328761 12.300468936665762 -0.11641569448828337 0.5381951407949054 -1.279082685089152
P 6.230181810964902 7.626999774671525 1.2552586064594555 1.3377303195290318 0.3519827372284583 -1.7635366276068596
P 2.24266641593972 3.3714225390027375 5.8363179335696795 -1.1017030493229865 -0.006325942218027815 0.4109908403315502
P 7.060565856753921 3.880228801141964 5.450000686519169 0.11340981778242405 0.21714611703082604 1.0895946960952267
P 2.7966924218633684 8.512855556046421 10.435689846922596 -1.0942170253585866 1.5192895405941833 -0.03186702391192576
