# total energy = -340854.46271501185 ev
CRYSTAL
PRIMVEC
9.42334811733763 0.00000000000000 0.00000000000000

0.00000000000000 9.42334811733763 0.00000000000000

0.00000000000000 0.00000000000000 13.79202249634905

PRIMCOORD
 96 1
Ni 1.5486424351609525 7.0969683926897575 1.7513933062548122 -0.43147147678340525 1.7338259879163043 0.4782352153015055
Ni 7.267172904429842 1.6738221901136308 6.616516167442183 -0.758281828511294 -1.4305132050897233 1.6071976145610773
Ni 5.404365469994022 9.26936107926803 5.924018822959388 1.6278895956927901 0.4088704515544378 1.0554252493023695
Ni 6.7137490992043185 6.691632501426998 2.312949460812175 0.16657766005465505 1.2540887341479758 -1.1140839394858426
Ni 6.482528409105414 6.300469325569901 13.26435365899696 -1.4762405319235092 1.5136053457252125 -0.34783554782930415
Ni 1.2172138623334423 3.403619067401223 11.747616795525166 0.1995579716354176 -0.3604344675402373 0.3140453387527366
Ni 3.470166751041378 7.848112885841891 13.288820439767747 1.2462820936193633 -1.361394753025507 -2.7379204481551818
Ni 5.882590958107049 1.8354985719054933 11.565603886394898 -0.17506152915595014 -0.03024440070683824 -0.0890290749452144
Ni 4.139318693166467 1.991662295112041 9.569511675383787 1.3868872408696569 0.5242373930632326 1.061750934410081
Ni 8.538552171119502 3.5429809611075735 13.021021139701977 -0.06493629566206881 0.5702801942549083 -0.5601392491661643
Ni 7.834298257660572 0.11052362179414914 12.543264934319803 -1.7077979392836589 1.928202158240466 0.39854438703808137
Ni 4.971890336465099 1.7272148799331035 2.416499805079601 0.7815731949390669 -0.41101320892905346 -0.0023502453997314363
Ni 9.3400738827282 5.213966723470469 7.751709208704554 0.4604879186204134 1.4748071419110924 -1.705776537978256
Ni 4.175787049961624 5.499013577397266 12.793121237441474 0.13719252202431856 -0.5814755487500953 2.2413625232850882
Ni 1.820666222139194 1.9991821268232906 9.896809994778916 -0.14931553054009766 0.40200843432728184 -0.6989243124885833
Ni 6.846580612740373 0.10369923316597016 10.15538289480899 0.24630036999727906 0.10931430755681175 0.11099992278935077
Ni 0.09986958453507822 5.500851130259038 11.144243591842692 -0.5485502587769843 0.7242417082074495 0.5220956641298815
Ni 7.2515395700827705 4.8136440533485425 1.0646837821191972 -0.10286649504893898 -1.3288705551455566 0.5682233117258795
Ni 5.467341704738733 5.248484447227746 9.578807808194748 -0.31994396362535865 0.47970151543438677 -0.2771152984956066
Ni 6.923192432054231 5.606590518268975 6.976528581785649 0.2507704899534907 1.5879649915837104 -0.0022139769321832836
Ni 8.788355703492321 3.874004329970693 9.302167523026856 2.02507926847519 -0.08927050153205916 2.2994463148016977
Ni 2.391165133957178 0.7416174883149486 5.064403113209485 -1.253936010620195 -0.36736847565590924 1.217151494801994
Ni 5.457758159813494 3.45491035061467 7.90346280504285 0.21173394487631922 -0.5538325902218462 -1.6136055749699503
Ni 3.7405037587259935 6.874191022406992 3.6995583692917204 -0.9801034966409184 -0.5379897096523186 -2.138895577667413
P 1.0095326955612294 3.8165124837672684 3.536646586575867 -1.464956731479574 -0.0948161139406367 -0.6848822325732205
P 8.69759001546882 1.6553806980598522 10.43854696380357 -0.8391977874310708 1.4399445257059524 1.356833616017386
P 1.6700245808659695 4.268936845031424 9.566395374197183 -3.3326235513391445 -1.0173410408361383 0.5147289393521651
P 3.838544271412508 8.450613487498725 1.3326998191891752 -0.214244884223631 0.20240855371033525 3.1569079335389634
P 3.3468622423425076 4.900301161640083 6.603137840273686 -0.7911104450055407 -0.31830385691877444 -1.3876991952479907
P 1.360637219031708 7.3812331087318 11.173455028336052 0.7593825177746406 -2.0250908384394157 0.9421959229618677
P 2.328829686877084 1.4957303360899432 13.642089506275914 -0.6212746830249042 0.9559199574161796 0.167637211667421
P 1.8279222001061892 2.1057224994139996 6.486525793330867 -1.556998625109183 1.4617999310181469 1.094280274496354
Ni 1.6601771821964764 8.859426594176837 0.17777617186538325 -1.2791729308101132 0.8667602704303718 0.7777419941184348
Ni 8.511017148236956 8.110515434502856 0.37425297785479467 -0.12328131125986509 -1.834676738086795 -0.30841565127078496
Ni 8.259583376658565 9.063574005445643 7.917738234941813 0.670526992292813 0.11911046771162712 -1.879568199282847
Ni 6.45684036243265 7.841111338271141 8.398238519264234 -1.4496964628863938 -1.1874323704710066 0.12465813700273369
Ni 5.679329341551098 8.577979459189512 3.1340444085705426 -1.4143412233155512 0.5076339801785967 0.813409108502741
Ni 4.402324336100015 7.095875284320703 11.171358333404031 1.112397295812039 0.8807637837983153 -0.257967264812246
Ni 6.883586100372049 4.53339368355837 11.280550436124496 2.0433243307283067 0.7687770716156631 -1.4301979878421498
Ni 9.26782507354255 1.1024280602347842 0.5754584198751647 0.5321065113986643 -0.7467871976081332 -1.004468041528212
Ni 7.0234097381308445 2.7529086173299127 9.505807015837975 -2.3800632544238174 -2.0190520884445036 0.2358879164147034
Ni 4.172564264942517 3.9289801422556923 2.8921319878205294 2.021532431664196 0.40699894556333777 -2.172871677502542
Ni 0.985493734790055 0.7257758979768767 11.940540056980351 -0.06561275290380314 0.982419803478921 0.23563543408426516
Ni 0.2987107085399689 1.4724358198114864 2.923149880127232 -1.1131316028749023 0.523116649195228 0.9500688979520412
Ni 3.629817113011287 3.489484614460001 0.7183531267501208 -1.4784704496952925 2.4030784843720676 0.07038369192988524
Ni 3.4231819378680823 4.218936560495222 8.591174973406632 0.9462325549250866 0.336204391348279 0.06052813929204415
Ni 7.003950524492085 1.4017324396993254 4.464864269831906 -0.40496725984528964 0.489035391240803 -2.3084721724493917
Ni 9.116231674120407 6.226797590834879 3.9492629565104456 0.9876162600781959 0.6311662311070033 0.15907106726496473
Ni 0.4738549393064149 7.368737749271754 9.181914294413328 -0.18819035322842428 -1.483735554748974 -1.6708437306568127
Ni 2.7487340741618884 5.33788374978993 11.020294526139999 -0.409268715434121 -0.16783852904494964 0.9781162910075607
Ni 7.465996124073515 0.2044301117090787 2.117957774468995 0.5879940665949035 1.6261731272223157 -0.23207445620588416
Ni 2.6699548848059416 8.80722124620651 10.508859274973354 -0.13418741664940761 1.725915731930292 0.39695570239472283
Ni 9.04560368079232 2.9873332457519073 5.40390749528078 0.5164186683497622 -0.2845247035858003 0.10195915274332118
Ni 6.829505506147913 7.0264723262337965 10.94727959876121 0.42599528416018245 0.5486060517155842 -0.2237155427182276
Ni 5.8531618422746785 9.06741873143335 0.6792547135256284 -0.9098995248220071 -0.6504258506675636 -1.6617140004414024
Ni 1.1094107611095159 7.08007232970947 6.690647761560049 0.08733806039603667 -0.694056699983637 -0.7570453850010317
P 7.875732718856517 5.905225840024871 9.43950810858526 -0.057412733591514026 0.2090458565211948 -0.6557086963330578
P 6.227862429159905 3.459197973958804 3.507311704223587 0.9291786847665933 -1.515929108762383 -0.347931192866904
P 5.752360288621502 8.571147531882925 12.224752002273544 0.2211768354567739 0.4390994256423083 -0.42503189180564865
P 3.917738088080854 8.937451915692057 8.828894004292604 -1.3735491289998538 -0.963787018869082 -1.0553841116517888
P 8.511827556165738 5.923394054986386 13.293771466811721 1.9992137135623376 -0.8095437120100638 0.09643230938782102
P 0.009197187656866453 8.743330946704917 2.1550725729375753 1.1085928344642841 0.38887575360006577 0.7363055813505189
P 6.486900842581629 1.8261788807245085 0.6139348921310575 0.6414254469411663 -0.5321689892054835 0.06908142817869392
P -0.06630361892671931 0.3627367042528925 5.921273801684341 -0.43743875011043376 0.3342511242766501 0.19730002883917633
Ni 2.609598340807756 9.133928721681468 3.1160590065604037 -0.14462121038822187 -2.3107360287829044 -1.7153333284287553
Ni 4.718911135813217 6.422388602111437 7.132116538428842 -1.6986985480855519 -0.3756551411447337 3.529848761076327
Ni 4.7538340635348835 2.2494379799005473 5.273903928482252 1.1030960730157713 -1.6241355279669965 1.746679961060837
Ni 3.0843089201133957 6.861186802154455 9.310442164913635 -0.03037886940217349 -0.19954048813392086 -2.393654877065323
Ni 2.4000890445217804 5.1879300129213695 2.4756953926030683 -0.4118297912930779 -0.893341620463326 -0.15869080110741057
Ni 1.2546999407135802 4.922596803029578 5.4293816319537385 0.683885672987906 0.6226952175215147 0.5226224831676289
Ni 3.5020930540961563 7.998443556630816 5.719082677462222 -1.9220361386390705 0.34590542068612684 0.8360636126774632
Ni 5.926692226789565 3.7323714093941533 13.030592434274807 -0.01737063006796363 -0.5429527100845488 3.3012900313331857
Ni 5.372571093811371 6.738344037508029 5.217494824965071 2.4451795273071757 0.8223529479595902 -2.4908382056865555
Ni 4.593231943416057 1.8330673481191493 13.61822864678211 -0.18990836436079553 -2.026431925848342 0.2376828035315971
Ni 6.937864584904375 5.418264908307422 4.0571989269413 0.6035240439097025 -0.835432921072 0.996774015318064
Ni 0.08507210115641287 5.181098085614784 1.7845088358283372 -0.3166478093725901 -0.1697015503956174 0.1957527389567145
Ni 9.01203771518396 8.427008000735968 11.087793025594271 -1.670350078849846 -2.1235535479937035 1.0407686757314594
Ni 8.06509489709907 8.642529393051738 4.083265792204029 0.5154318789564607 -1.0154445951443738 1.414004665911739
Ni 1.7417174125190844 9.063658815577725 7.579543698243779 0.43033993428212336 1.1599092253500733 0.44225648321405125
Ni 1.6654259870375365 5.5245885438939215 -0.11547936051212666 -0.1990856599846894 -0.03556118493406133 -0.6997830609444529
Ni 3.5130618311787307 1.174450709068217 11.730777272632933 -0.7479511360092473 0.08958134790425863 -0.11349157886295293
Ni 4.984611856277363 4.331215752023462 4.932109672844749 -0.6264765389408178 3.6314345896406293 2.5465529827503564
Ni 1.0612103360430487 3.2617882565164926 0.6750820550272058 0.9802037696642089 -0.5142370873174112 -0.37998410753739076
Ni 2.467155012302435 1.841736828287507 2.291075985413488 0.7591284927823055 1.2092515232286272 -0.6150207316953924
Ni 9.26813604402685 1.9828985814635927 8.002779239049795 0.6552289284831618 0.21469945526254638 -1.3619035743411256
Ni 0.2862700044983756 0.22517278534667545 9.490304666028228 2.2953672596363175 0.04917723305559918 -0.9718062896291326
Ni 2.8492717740708104 3.220768422632948 4.436287024659555 -1.6571184106509202 -0.5010234168406146 1.6805948965063058
Ni 3.674295315614166 1.3888318762748888 7.386855078154021 -0.2239232878536595 -0.34707450129356354 -0.7231276492076643
P 7.0956773940125135 7.826062251500633 6.131437078322148 0.45981660358500165 -0.07721562725005413 0.17494788639622127
P 5.6233169609850995 0.7901882509581728 8.338877080815807 2.1567302918559887 0.4955364255841143 -0.3278768453191902
P 4.69376964332498 3.9079378061514065 11.348282634609394 -0.27291385881974933 -0.288922832653496 -1.7905486374193291
P 7.4910716531256885 3.6613947521897288 7.037296926091832 1.67564886535494 -0.43079450532103875 0.5611939156829239
P 8.327864956332391 2.850138722087646 1.3291801987077823 0.6762883202566223 0.9630275149952383 0.7709090303570014
P 4.316816876265582 0.5523580245656949 4.244922384965073 0.49959028393851374 -1.0270893784721535 -1.7097406648323263
P 1.6388332989559002 7.563810476407812 4.571407469427018 0.09559464397787408 -0.9851832251566712 -0.0736839599477118
P 4.959894414449534 5.909230762928732 1.182909106241171 -0.22893308236342508 -0.8398799010997601 0.16882583265888343
