# total energy = -340857.6107666773 ev
CRYSTAL
PRIMVEC
9.32883223795452 0.00000000000000 0.00000000000000
0.00000000000000 9.32883223795452 0.00000000000000
0.00000000000000 0.00000000000000 13.65368895306253
PRIMCOORD
 96 1
Ni 0.09856191081178463 8.819795139411923 2.6081409124106774 -1.8447624044575712 0.7966228901833377 -0.7713880268759489
Ni 1.9232973475749104 7.930710786869437 9.440543096871227 -0.014367324465265579 -1.434092952021182 -0.46837297779544496
Ni 8.377785741082187 3.798849731965178 4.91019444448626 0.516737999362394 -1.3954528710514806 -0.21557183056517068
Ni 5.795089218489038 1.470139994769666 7.468677050228672 -0.3507673767641185 -0.6371229629110704 1.1777470248624426
Ni 6.223254629838312 4.820179609733437 9.569283779840559 1.275729195235887 0.5705483603146303 0.6095136858342342
Ni 0.3768792234626194 2.936100672715041 8.41748551938007 -0.8789370150022218 -0.035743733258512635 1.9502961619260284
Ni 4.3395022019468135 4.59294791507702 10.824808392617134 -0.781135593181016 0.22426601590505893 0.16011493514844682
Ni 1.3719260493988323 1.0543726014103088 13.07456729004556 0.4332360248829958 0.6517612816495356 -1.2798493880518473
Ni 8.664619344645732 7.544562435735801 11.88276419847434 2.2954307658844013 1.7498177353588704 -1.1346617636371943
Ni 7.637710825223621 3.25877564957976 1.812991369910225 -0.4088087450785669 -0.3228120292017731 1.3534117348200305
Ni 1.3301422099881213 1.22569660470964 6.78902404762736 -1.5032854518564434 -1.3242029744665582 -0.7898338922859623
Ni 0.5949639981498024 6.577069248576877 2.952760101252583 1.46167420407356 -0.9212643150155231 1.3462478700817393
Ni 2.3904292910113774 7.115781321461521 7.363393715818893 0.05781511123625527 1.6426466993973066 -0.4687018218897734
Ni 8.419569580492897 4.770858073907488 7.110049686959636 1.2821050168552435 1.380887828753112 -0.4660903524088553
Ni 8.793441188455178 8.944073841941393 6.8395284793758995 2.073101304880423 -1.6433239279699894 1.8742172193835787
Ni 2.3031207504789273 8.663266663977158 2.4462222377324396 1.3836335098190493 -0.4627013813319644 0.19184491926187605
Ni 0.9712620353665438 1.6549068452649862 1.906287154946759 0.2551750467790896 -1.3943524388984503 -0.744391443682447
Ni 0.7398183729731456 0.3774902619715279 8.991595846036525 1.5895505909032754 2.661589794613242 -1.5084022042577183
Ni 8.036956856761954 1.4570329855327717 11.630744863787069 -0.972256489792674 -0.0311352879522238 -0.5031324927638174
Ni 1.1727648108234212 7.462375424079546 0.5246787106105799 -0.0197733259721853 -0.3167452541824029 -0.1626454148797844
Ni 8.045054283109017 6.521721287151614 1.6911866736794212 -1.5902627864789516 0.6148633801819217 1.0508204035405064
Ni 8.166245142181253 3.515934237924403 10.513354135119062 -0.4652483161235342 2.522032629011489 -0.6603137992052369
Ni 8.614644790565988 0.7910952320276027 0.1062106203301686 -0.4141869786713448 0.28091358919577425 2.0303901391651418
Ni 6.237798279233556 6.13113241189217 7.482235574943905 1.0534498707435533 0.536267070534257 0.7041930170866905
P 7.247644364567213 1.7418235748451587 5.517046173504798 -1.1364736200349523 2.7881304933506694 0.025845243197878072
P 0.8415175700528074 3.2988802991949973 6.479002698754756 0.10702474019168665 1.5710502181062427 -2.545994539143725
P 6.432780200984676 1.8321826435060529 13.04231751714026 1.4132785863789918 -1.6674624728894056 1.3897226534359228
P 2.362657357560677 4.603713387432447 3.7700021841621543 -0.6756162338902623 2.3527632810572836 -0.48175994062531224
P 3.3072762481723674 1.202057343922245 2.884300466174328 0.024559691617235122 1.0450978992344322 -0.26451535034340895
P 1.1237604552921723 8.75595794068732 11.404052375631643 -0.4468374177165143 0.08551026315867853 0.3251476193134852
P 6.350677148818195 5.3189269654858 11.921021739314556 -1.2817895424973536 -2.6355118665792676 -2.7222328622165954
P 8.037656519176736 1.655261340888475 9.38786691298721 -0.20630711743379307 1.2953449125842853 -0.6394027600841827
Ni 2.967529508386996 7.208379309849713 4.620899894989123 0.48518362159488054 0.16725925950271195 0.04900085537873496
Ni 2.305714165829715 4.8584371505736526 1.3852896015211462 0.596558668335463 0.6866730059250561 1.0436226002404867
Ni 5.881427560472993 1.639392997321246 3.2237318914314383 -0.3597024744702192 0.3690723457208934 4.186819869061577
Ni 8.698072536904455 5.436274345692841 12.301044779227592 0.727873648533082 -1.0671489654972008 -1.5930490909748372
Ni 3.0992339613453384 0.1378969317707626 10.718856180938825 0.27939586699966723 0.14060463302966109 1.0070319456006462
Ni 5.840949757569872 7.384190481435839 2.453254311442597 0.24206859130411862 0.6501895662870416 0.4597191587751889
Ni 3.2854561096634027 2.4910034309280715 11.743441821143866 -0.30341536984271616 -0.32702915260691423 0.009760164710557384
Ni 6.96309632489195 6.7134940906269405 13.212688113789051 -0.36366043067670273 0.8983488438699302 2.000464555250303
Ni 5.878740856800234 2.763815799699411 11.443184028048725 -0.7811381642841773 1.927473764714874 -2.9745748104222645
Ni 4.145145311952898 8.803506998395825 6.486116866188248 0.7440191479446928 -0.24209867321110565 1.551330371079812
Ni 1.5402741552272958 5.197577516266214 12.624651706428798 0.37482107527921255 -0.23427557762226103 0.6995388061441307
Ni 4.176368913316517 6.323632864278867 12.446129576206202 1.3599716474257353 0.056247252528503135 0.9049455232508414
Ni 5.187381102674808 3.196011266557822 0.3492229675311629 -0.700660835563716 0.7927153275988154 0.7458567153740638
Ni 5.355729208503272 0.3958298131877629 9.967028802278382 0.9844535460794982 0.3750432185923476 -0.1254999161777387
Ni 3.885775790377547 3.1795178912333886 3.7191833707685737 0.6061905349982721 -0.637469804727528 -2.1569431791977434
Ni 7.0386412080238845 8.963375195757147 12.395556111099404 -2.5250652451902256 -0.1941198313389818 0.45865600761799724
Ni 6.166068888470226 1.1278278261300982 1.2816612019431286 0.565535223370755 -2.5292157770234893 -2.4740908110248876
Ni 1.5943720531381493 2.1518630652355104 4.507629214452206 -0.9510549160143942 1.373581782010002 -0.1418809286389234
Ni 6.3926289072084534 7.07310191415989 10.729533029388381 2.145159042078622 0.6527616978895919 0.5020078922410709
Ni 4.646476754223851 2.0894158625082726 5.543329225336844 1.4960585950907008 -1.209258979427795 -0.5673812754405583
Ni 7.273933013698578 3.15541218883614 7.981372875882107 -0.033175458310704155 -1.129292528905481 0.7588104473212545
Ni 0.04313558719606741 4.982352028647435 1.0384492177331168 0.15903584315165514 -1.42193626205399 -1.6033854399038385
Ni -0.02488652565214408 6.9260235457407635 8.007683914210745 -0.5446964322485328 0.39024203781997313 0.6614844224745704
Ni 5.1776138153644675 8.112352478578735 0.32175235536042834 0.3734241949316859 0.23183560072220072 -0.8710349865463256
P 2.771260207792679 0.21089784236255443 8.201798254567537 0.8830937174830727 -1.2156890513238547 -0.4998029141699522
P 3.2966413794676983 7.154178794784692 1.1215998977553292 -1.5204912742117684 1.8926905955974178 -0.11545872989165276
P 4.9589646463293615 8.828498939851796 3.927974762821028 -0.14343181806581107 0.28705004111081533 0.8725089999886908
P 7.555281263930243 8.469226954277941 1.0170152928771112 -0.8658387870573669 0.29897918844823346 0.1717743737642461
P 5.450799337423691 4.08173723950936 5.634904773716238 -0.256001656445443 1.1879039107907865 -0.43532453198090837
P 4.40569026638508 2.666404133897526 9.631312118002148 1.170085651662443 -0.876450244024626 0.45854262196858453
P 0.13172404350595632 5.367921992184852 9.63012455766346 -0.6464807499768865 -0.6720645119832619 0.5765318315915748
P 0.020863933208764195 3.154749841750147 13.235149143069956 0.32836561203015063 -0.30430162910241143 -0.39184872018546063
Ni 7.841331245589235 7.8528057091916414 4.039744434257435 0.7492953087419677 1.5892849959467146 0.9474520291544842
Ni 6.791427154801327 9.206736441282311 6.1404873648194 -2.395529468380216 -2.587236062292015 -0.6727741364557768
Ni 7.300398910641687 4.129006432251953 13.3868956591205 -0.6275463749662289 -1.1959020985049147 0.08211794964767793
Ni 4.554550441753848 5.619716502016176 3.627716969725886 -0.3426642880410099 -0.848989576710512 0.4389911821992181
Ni 8.95834695520292 0.6046846412991573 4.853995693564624 0.9602568942286366 0.3990076998277451 -0.8354141520189224
Ni 7.1195968138301255 5.876138112617249 4.149288246331619 -0.6489464379085598 -3.2347246847081257 0.07319390768517073
Ni 0.7338936316447815 3.6597101997457644 2.8223812753494446 -1.3066834775255562 1.409271522102128 0.535219345996033
Ni 5.53734291371598 7.195738742222673 5.280509901615015 0.311069029733232 0.8127599049545164 -0.3108178329543744
Ni 2.4074730674354385 2.1001813348637 9.30023746062718 -0.09316777970393632 0.07663404371497125 1.9219260954237674
Ni 5.066348833749923 3.793364378633296 7.844235311052185 -1.428153189497979 0.5489050710132418 -0.7476860552733187
Ni 4.76947740674232 7.3117987435865155 9.309235119281261 -2.629186695692188 -0.10311100695957726 -1.339738608208312
Ni 1.4429557777473818 5.688246103335907 5.653377727232891 -1.636155435246008 0.5491763223967574 -0.9575230402372412
Ni 0.6001918757130447 2.144474630135425 10.834256633866335 2.752976056936723 0.2581945503317037 0.5302242067742868
Ni 3.0296035578263507 2.419180751842771 1.0257349523317196 0.04914586559703149 -0.4403888338776931 -0.08200173578478781
Ni 8.304050651396484 8.973151811899683 9.639708999862739 -4.0575990523888255 -3.5624050977457933 1.6410855255577739
Ni 3.202392187780623 9.27083484730843 0.23971926943542587 -0.40996779838367464 0.19494875499818037 0.17357568863904302
Ni 2.9419778369992 3.965985089608021 5.714028196878972 0.5675149728049451 -0.5347876577752532 1.5037729330158232
Ni 4.161573385451951 5.896139128847784 6.647012167974466 -0.6258864707653028 -1.1636010723793637 -0.48116318758157783
Ni 1.4963913285722423 5.036337980571924 7.933722133902653 0.7340388968035294 -0.9490376284740494 -0.05241476615629038
Ni 1.9916403722507015 4.3587382539371875 10.346983741716377 -0.5669804404577139 -0.3328107922856978 -0.5422937363443112
Ni 4.609422632737059 5.635165048134536 0.9341528737697886 1.4124879721568964 -1.7528374960218005 0.661873430382873
Ni 2.84164624671963 0.37816846807225546 4.931438994048664 0.21605365529759565 -0.9334441449111667 -1.0572821000054502
Ni 3.2527492239804485 2.1493629382066937 7.272514098321403 1.7657935419618362 0.22977434731779783 -0.33591539935295056
Ni 2.5145867187222843 6.558887354624772 11.077265249534452 -0.7323396547242355 0.3128199509860677 -0.7853267484442281
P 1.08443942758149 8.270914639432464 4.9361360610598926 -0.27948225606588645 -0.5931609555078237 -0.42502006473110676
P 3.4698404780386425 5.551597369313114 8.782025496495615 0.013973945681588837 0.043767632004253654 0.32292438640992127
P 4.811718358930688 8.218318683505341 11.627726986571314 -0.42685377550573583 1.7100900777519452 0.42017739192682474
P 7.889234798921229 6.694752466743011 6.158046092780738 -0.04312099955919025 0.4551981309763838 -0.5308867800589502
P 6.219373835644328 5.0818626816936625 2.2770261410572616 1.278289242653579 -0.793514169351027 -0.4687501586292056
P 3.221609582106603 4.097288402781889 13.208332482036235 1.5470281441600324 -0.3462910861603197 -0.1727832746447347
P 6.484919044134143 8.238926073828685 8.352698645537805 0.3844465141841185 1.0121504977741342 -0.10635908158322974
P 8.534053009215434 1.7898110876669262 3.1896247480357025 -0.250273238602098 0.9037484176189469 -0.8787655224213641
