# total energy = -381165.61134864326 ev
CRYSTAL
PRIMVEC
9.30601992902034 0.00000000000000 0.00000000000000
0.00000000000000 9.30601992902034 0.00000000000000
0.00000000000000 0.00000000000000 13.62030083303977
PRIMCOORD
 96 1
Ni 2.540645798046015 0.588465237572332 13.676553056052592 -0.5881735295955612 -1.3168403634538999 0.13621447438176543
Ni 2.5912054041453447 2.5808291919604094 12.463406343275542 -1.7036278670663692 0.37535457918517934 -2.9062775687077624
Ni 8.942731492071363 2.612451047569745 2.6227658400233613 0.17341885134620458 1.0039623055363869 0.1500269547848255
Ni 5.923635293071029 6.315986397940129 9.678408658391218 -0.0004869669387475484 0.41170200746596197 1.3591563506132915
Ni 6.682503991575705 0.6260503907315391 12.603422857438858 0.5536438712498079 -0.15886177946763608 0.17828132164482846
Ni 5.015088570546176 7.143803397860217 0.25638457056487446 0.6668505718824902 -0.025996938284393936 -0.10927368412686342
Ni 1.9653383420057724 -0.12229692167781267 11.379039125636416 -0.42554791221011873 0.9706451794414961 -0.6213235339849686
Ni 7.408531745864565 7.15997726044086 13.473936807247465 0.38446039814118954 0.29788261294994506 -0.21469765549033348
Ni 1.006166871242313 8.036743925018131 8.157770574980029 -0.5658370708818901 1.050827602629358 -0.8758426923476142
Ni 6.731388514093609 2.738054398116892 5.94554724752004 1.290987664056854 -0.8912983647810522 0.8307324302725371
Ni 3.7056850409665447 5.509926872538765 9.153564025843378 -0.1994078192107985 -0.18359913431331606 -0.39961730838728593
Ni 9.20650132002634 2.548500078838917 4.93517963889631 -0.8112372976624029 -2.476683254342412 -0.07891666910156087
Ni 5.079262883754527 4.429032661525126 6.331083554018712 -1.029329580656582 0.3262061424849866 1.570292771114928
Ni 0.881519248938568 4.18836968097391 5.865200932935024 1.5450473662845778 1.2048636785735765 -1.204832311115009
Ni 7.578301466841937 4.289665707550608 4.131541539872094 0.26621922040839313 0.1911635769241353 0.28137947308859923
Ni 4.647919555517823 1.3792079848255483 5.2753193191343986 -0.996018110988646 -0.8566571205580988 1.7122166371766447
Ni 3.4228657902828123 0.1604813825183737 7.450263661489787 -1.044555396467401 2.4483872356111966 -0.41813799289929277
Ni 3.2127730850925937 7.096826609421157 7.335743780639732 -0.7904028774155549 0.17907887784545934 -2.221680471475129
Ni 3.1261154278135663 4.583782466389059 4.53336710359813 1.3123602161953591 1.9496747262919454 1.4120465137441036
Ni 6.039234672229112 3.852924887773758 8.5878994676202 0.07388090644986631 -0.5195009068195117 -0.72173128308077
Ni 7.69087638953356 7.976850380962309 8.81452710896306 -0.22934060221448888 0.41306443503112733 1.0226614246077872
Ni 7.488312254439855 4.494314391101197 10.411276337304226 -0.955342744756471 0.686560905827224 -0.14737074810890105
Ni 3.54488632316969 1.0545581747056876 9.820999217657988 -0.14450705340786082 2.4696739129041148 -0.6852175044254522
Ni 8.429718533220317 5.070422164852564 0.5927190192671606 0.1411021414913699 -0.5261528649183906 -0.6461128251145066
P 1.899172540539505 6.401210928155049 5.336365879055435 3.259186931515548 -0.011451950590683503 1.3134976722339122
Ni 0.3865087855778879 2.5055807150748626 10.291785180625302 3.737429088795589 -0.5087770926441044 0.8891589498405461
P 4.656881252678444 8.69286485784221 6.021971074718553 1.1816957250975455 -2.179339287504756 -0.6358093863059695
Ni 8.267365710100696 1.1139212756273922 7.9971319207254 -0.41822412485519583 -0.3254276124477492 0.10349410133060886
P 7.0466206320779055 8.389795707863035 11.056782823834011 0.9112259569429145 -1.5389613079914979 0.17366413458779126
P 0.5442672266744571 1.53433933650525 -0.5063033185054504 1.2669943864660502 0.08457489582860273 0.7104269138115442
P 4.07802820305752 2.906995883323449 7.75063220449491 0.983291407450597 -0.28358445115971803 -1.4468075713743729
Ni 9.241008041803685 0.09472690713154486 10.117949659555016 -1.2349494422153633 -0.8752117436318346 0.47100733009449847
Ni 5.257119536022222 3.18653010898361 4.398403758238779 -0.21237569222537617 2.165772090343283 -2.5783477586634502
Ni 1.839623319219864 2.139788990991237 6.812643096220553 0.7485612587894204 0.9524317417572629 -0.882790584420357
Ni 1.4285764203780869 8.618807551503453 2.89066381840456 -0.837440695530648 0.8650733696462521 0.09061570270604394
Ni 4.481751264240513 5.112829697522295 12.178891535766612 0.7823041595678204 1.3769738384106867 0.5413249446731386
Ni -0.07786160727256924 4.2639252565160515 11.759686049281306 2.084189958594417 2.7425692597811024 1.204380568289571
Ni 8.304599095707806 2.3695080921438123 11.932377860506277 -2.183067387088621 -2.317362532960486 -1.3437603277731953
Ni 6.836183604151505 6.11704230458628 2.14123421588121 1.04884373943011 -0.6886093037158205 -0.9440985393012192
Ni 2.6902959040065 3.290943652225737 9.197053848627107 -0.6076190399146826 -0.8447937934616095 0.9343527727683649
Ni 2.9642837418081665 5.7712119931812955 0.44592493081300444 -0.45223082081794375 -0.5167966205144713 0.5764449283047234
Ni 3.568393329429014 2.971728557725609 0.6669466257700285 1.3047669772291335 -0.420665644417153 1.5105182221594566
Ni 9.157356228951326 6.022158125718478 8.30345259405652 0.8858077739801261 -1.0481636826439495 1.163221577552758
Ni 5.18424409421036 2.2895786872501738 2.3348468904361814 -0.8370516876223456 -1.9263082836518632 -0.6936507227944699
Ni 3.0967270169794636 8.205731940324172 9.268328655016719 -0.9075994159339207 0.11004115842050727 0.7845801000861907
Ni 1.331375042555982 1.1027726637910225 8.700934107694726 1.2246236348093231 -0.80791620370897 0.20472691743086677
Ni 6.801295335558391 0.26540396504885566 6.109835722778195 0.5675954483338934 -0.6717739773260366 -0.16145756521927032
Ni 5.4604560707673615 6.826514649478727 7.34390236828326 0.11697979452186949 0.789125296254712 -0.9690742354099505
Ni 6.490288150607244 0.9323142973412866 10.183680869892104 0.5950481452282075 1.6505289303588608 -0.10490537985583868
Ni 6.921538418644981 3.592347024643384 1.9444072420538838 -0.4166701501045147 1.6371643361264967 -0.02941393438574289
Ni 4.669500215658509 4.599202541358061 1.877476485752099 0.5101886282796503 0.6323075438002981 0.2470894415574777
Ni 1.3672125251785694 3.8118108918696834 0.6724492753350079 -1.8405769056213142 0.8383706635440852 -2.1158883181389627
Ni 8.154865235568248 4.5298726931268805 6.52013348701828 -1.2815915675539347 -0.13791011691663344 -0.28519499017994754
Ni 5.320735488036766 8.836577723108535 8.817673474290169 0.15635598232664683 -1.5553420633423665 -0.6128774601001445
Ni 5.8675572171728945 1.5805623373326692 7.93379794111373 -0.8686605727768781 0.28533100153717955 -0.29729614431885576
Ni 6.167099385611181 3.350176468868886 12.395345836158285 -0.18122292077165564 -0.467265346553563 0.6744363546495481
P -0.07636426867117367 9.572637366846148 6.329830033138612 0.329012244475214 -0.45248870246502065 -0.4848295806895715
Ni 0.7929975958742113 6.584967597037315 12.914415152758169 0.21438835178003074 -0.33409608675602465 0.6853725419460777
P 1.1408994273082234 4.657635040290085 9.506901503499112 0.3491704645906438 2.6356712749752673 2.090711304652703
Ni 3.2212322571787873 7.84674291678511 4.328027913371198 0.8163453083129296 0.17981678445274837 0.9975520311346692
P 7.319882600327622 6.75709174104858 4.0949977303393394 -0.9807658128152656 -1.6184137949918707 1.007894807821574
P 1.6890239992299052 7.727700310265209 0.8165502016310294 0.7059886755345326 0.20776647558813896 1.1531341114097688
P 7.055238006502345 5.553562799834873 7.957306808577033 0.042549700436752526 0.9869932817822163 0.5771964617587673
Ni 2.2634753014396423 4.997165176224933 11.762668628658233 -0.5876145717682977 -0.27518568557306156 -0.8328947280311785
Ni 7.233690244043435 1.6528701119308264 3.7075546203638123 -1.274725950782353 -0.38044202101041574 0.5426110104744138
Ni 0.03606175770210033 6.103781226233336 4.796252859662911 -2.7559742203330986 0.39959571112073117 -0.369097542531874
Ni 8.522769426168448 6.647457520644346 11.333929124788654 -1.4285643088934685 0.49688856873663456 -1.4335105971551505
Ni 6.538242071135469 8.710946454501697 1.6095924664007453 -0.6166868065439057 -0.12946584280402218 0.23472114980011188
Ni 3.162297233172336 7.694226556696409 12.593289532373229 -0.5716835023603379 -0.6816971499770195 0.7283842696209133
Ni 9.099407643053933 7.165151407503482 1.9916557662739307 -0.18560485188943518 -0.15193599888208026 -0.44811654153925407
Ni 2.2965302841130857 5.013013328109189 7.234477533326705 0.8987108551950393 -0.27249245501161456 1.2281151929023495
Ni 3.1463281030294223 1.211076123350013 3.3972295666711005 0.10935904475181811 0.2877560660389044 -0.3708644046243097
Ni 8.66014489188505 0.3304530441275069 1.8692909106508713 0.5986829137673173 0.7114702674743941 -0.8143886988071909
Ni 2.3841836855210703 3.8316327142498734 2.594163787870538 0.7311803443088117 -0.6003309908937016 0.5004060949715897
Ni 4.774909503029593 3.706373686438908 10.440764322551226 -0.740748447613221 -1.5326245671401928 0.5016721061682069
Ni 1.794712467197894 0.3245390684830887 5.158021591345148 -0.5931599270665592 0.25926747168090836 0.6339936732534693
Ni 3.564382434853492 8.636796087963972 1.9659134540353949 0.2264637948873261 0.4393092276602692 -1.1689556518230577
Ni 5.501216437915357 5.530567624669874 4.325113267939519 0.206990773764379 0.6640717235857724 -0.31826966124672923
Ni 2.265224833180241 6.31883404002855 2.748590673844052 0.09002332053768367 -0.024651737110409157 -0.028407861718731723
Ni 4.844527837877576 6.915824522428344 2.5543507735480366 -1.3318833738299511 0.4374408069929628 1.020887877647132
Ni 7.951538006843005 8.638499089605087 3.8529379162016135 1.4543887261557404 1.1508820821507986 0.5635351622215908
Ni 0.17961176762023115 3.347133400362632 8.267263343881833 -0.5726139845944074 0.21627862682420815 -3.2301177820637332
Ni 1.4689831587700042 1.7738483705892623 1.7780072308811434 0.4961221228842553 -1.1791009677871758 -0.40567868409001745
Ni 4.653344965117659 8.952875053758879 11.21006599996221 1.5333100232429915 -2.002105433287836 0.6296143132388511
Ni 0.2653779081931446 4.901089826810342 2.8557960230552193 -0.35557662522730377 -0.6101479769841234 -1.1528489760691822
Ni 4.863205019810458 0.5344633347131754 0.2538812512126345 -0.5998352822042057 0.39794172045707593 0.4649297564418509
Ni 8.03666017083906 2.420588835357363 0.4260072564278775 0.3214035788900207 -0.5667513551660432 1.5173825533794576
Ni 7.812692189982709 7.119012160855134 6.663786793757265 0.2761997286598727 0.712903914597127 -2.2607807799107
P 7.805712675060106 2.6026238905587213 9.525480041621089 -2.125128605790308 -0.37179462974806293 -0.46889234063402474
Ni 8.969523523354258 8.96180883285981 12.44792019556527 0.06180032113624839 -0.4362087343580745 0.36076742539962386
P 6.191955764755542 5.205480431614863 13.631469112060541 0.014134639629169206 -0.14791145110371945 0.5894541960801978
Ni 5.5827837023108335 8.906568298752388 3.9513583826301995 -0.6491323286671208 -0.33349033485122564 -0.31974598868193965
P 2.235492099609956 2.7213780104618217 4.698840235189148 -0.683935552389235 -1.4832658142014068 -0.169108911116941
P 4.427553004361534 1.6236119853752788 11.81570642785608 0.7384781635218056 1.72784251663936 0.7585124564648614
P 3.824159980272741 6.9310957010789975 10.696879949141083 0.4576900441603021 -1.5711327505177202 1.669754354247376
Ni 1.4722309597139884 6.923250726305992 10.391595035824478 -0.6287247115450463 -0.7842219454158236 -0.07363665164954415
