# total energy = -340887.7906005441 ev
CRYSTAL
PRIMVEC
9.09509181697833 0.00000000000000 0.00000000000000
0.00000000000000 9.09509181697833 0.00000000000000
0.00000000000000 0.00000000000000 13.31158622012195
PRIMCOORD
 96 1
Ni 6.550739997343105 2.087041661159771 10.975043852131797 -0.2775858103741219 0.34447203067370996 0.7601764744308457
Ni 5.278172917928662 0.6422963050140504 6.213022861024681 0.05242093680387746 -0.5170550163821804 0.007407348207664663
Ni 3.589941944923696 1.714643120109839 5.019972351757786 -0.8413569998659187 0.460657097208426 -0.10329304106339629
Ni 3.756564029965453 4.793713748614566 4.77452037601284 -0.38589430237423866 -1.8979605857471054 0.21982186409077628
Ni 3.95651962710754 2.3966022117318917 2.7378609768666506 -0.5344179331406602 1.31195372478556 -0.19320966081988664
Ni 5.056743808625899 4.515403934079753 2.5084354626965997 0.488979598302203 0.6072804256283413 -0.6166839783304283
Ni 5.888080690898925 3.265001593816334 0.0013478926311784078 -0.919754563239216 -1.6695052143510474 1.1743444269387968
Ni 5.852109602124899 7.990665864249546 12.325610440351813 -0.3243282087359834 -0.5839553777491555 -0.9577194725187634
Ni 1.8442754660760055 7.040447034728659 0.2946973512612452 0.8178080089013852 -0.4913432134383731 -0.001583285326719854
Ni 0.6840118538815463 0.20292969221897864 -0.13448730606416248 1.1191055610701501 1.3958912441404798 0.9916631764540599
Ni 7.8744669691352716 -0.3050703036624528 6.816836922369508 -0.5544807653288064 1.174410247179726 -0.5374333229282163
Ni 8.4935516899116 2.174145357035585 0.9978871160881544 1.0056510060927195 0.813574944656644 0.3971891585617676
Ni 7.296155545697491 0.6491967512979577 4.6029069044934126 -0.7604197007899033 0.6953247680627832 -0.12123059937842347
Ni 1.25766931875405 7.8520839477767685 2.4747836223770303 -2.862832353039934 -0.8596802236551387 1.8624868183205279
Ni 7.989265220084892 4.122905239757863 3.513193920774331 -0.32231992005670296 0.294923273211305 0.6209808059335693
Ni 7.847509116511703 4.033536865979461 12.334462693374256 1.4216390425285452 0.014683570154103742 -0.4649554674734637
Ni 8.32930342387617 7.453491541829442 8.94305660173484 0.9318839995128985 0.44589845084201274 0.7062313876729579
Ni 6.983911942991783 0.5777620798822934 0.20922258635873803 0.04230878807054004 1.3254268195713301 -0.5559689198385587
Ni 1.8477952666715929 6.79821745007161 9.457615977950994 0.22044792771054936 0.7935861602395429 -2.771308279587008
Ni 0.3301227345165751 5.369396690470629 1.5066056242358685 -1.2507954081086847 -0.9749782595992111 -0.3516451513833815
Ni 6.517160917759362 2.558976888819801 7.057895968688953 1.0023731066723962 -1.6179682228140198 -2.1328228891107717
Ni 3.6565543985724855 4.492484302294533 0.28493831756857013 0.6519417730914578 1.5885195785355997 -0.5231685854790862
Ni 6.152238542315562 5.668561550911596 4.583258777292773 0.55639186630859 0.2426514603907821 0.5723458185346852
Ni 5.67508273186001 3.341082038214495 8.86390565428482 0.05707283375359203 1.953986723403738 3.095825978625978
P 0.40503355008633113 5.776984142384455 12.670952901784812 -0.49127482209428297 -0.3341680776445406 -1.7098851608299908
P 4.324770806215384 6.228973833336157 12.376620263711894 -0.3505994837276865 0.5340230116950868 -0.07963812064861768
P 2.5300454012369498 8.86475877391238 1.38073137027512 2.43149097407649 1.7066946789171509 -2.4566872708364595
P 6.336041256104256 7.711746678552188 5.62807202044277 1.1536035948470196 1.320749468700319 0.7113805359740651
P 4.981145404102587 1.2970510670199238 12.5418835420121 0.8060714371907473 -0.029130341707053056 -0.4717948589928004
P 4.106506788921056 6.545783172214953 7.909492168343557 0.31974084647561707 -0.3790680234810246 0.2149730206389072
P 5.28739534119462 1.0632344424427682 3.613017102781744 -0.26532910449395597 -0.5185143745365264 2.157539932241478
P 0.5004992735269589 6.086235459829316 3.6349017130998376 -2.108671488675549 -1.032458356093551 0.2314424790488401
Ni 0.9406053172998634 0.03642857190053223 4.686942825844959 -0.8803128123038259 0.6948856236428355 -0.05966784817427789
Ni 2.084886124360923 6.834770624732245 4.807984857437657 0.5215621602239147 0.46287930167072544 0.5654935714995422
Ni 6.1861086648426085 5.854337899659573 8.993720811599747 -0.06548856862111302 0.37194066840762396 0.4275685421845733
Ni 8.717518329876297 2.5820693273526074 9.827625238338237 0.3973668217902124 -0.13268589240321665 0.6624547568076397
Ni 2.49859457317612 5.38916942043137 6.7454067984998325 -0.12876521719257178 0.59247781339787 0.9150229620915016
Ni 0.8445111230035377 0.3226001839413547 9.026972467872273 0.23914113324467845 0.16421095959469137 0.9169122086944145
Ni 1.5366339799112978 1.622528028554003 11.220016516529489 0.6483815665440253 -0.09655777922209179 -0.11374534674497185
Ni 4.175483966484194 7.13441752504806 1.2379911777498827 0.2723662138463954 -0.24967057202109255 0.4006570625057099
Ni 5.75383713329978 8.225610280232006 8.000503115733233 -0.10515811929659308 -0.9563943259494366 0.3291703673196331
Ni 5.644941597044051 3.1849193089477383 4.623832892116997 0.41112556613720164 -0.5562918503956161 0.5883483646105286
Ni 0.8889315522253687 7.987764529908479 7.072073398064669 1.373639631831131 -0.6302792005163598 -0.2827660690234808
Ni 5.216380863028351 4.797351785405871 6.896852813066662 0.8055464179252126 1.2419338439529966 -0.5603567644936092
Ni 1.0556400406409194 7.710509746043145 11.410398619855256 -0.9269022300275908 0.5946920474403693 0.1165625044787928
Ni 4.677987798283162 0.4123087141597428 10.327142241931544 1.4642180535413365 -0.6163466495956675 1.1569961654683363
Ni 8.117333210230797 7.470590314748575 4.5484491317643725 1.2821034741933468 -0.7911181583150247 -0.09604047326604105
Ni 7.522332293012907 6.494168525238317 7.0050098278537565 0.12492321773866227 -2.462817037883281 -1.0942522494718963
Ni 2.3154376109178827 5.557919756996041 2.646622652177519 2.323439849502818 -0.05337378763545001 -0.11366230011286231
Ni 2.372509313081476 5.658011244216812 11.35011089316815 1.6525135648890572 -0.8550828340924435 2.4224782290549185
Ni 1.1374322028014283 3.3641471914713668 3.7088211636439627 0.8480655222343458 0.7931783832781629 -0.18029475253043142
Ni 1.7587725063883655 1.6266299150361991 2.2195344135531005 -1.4769043907597532 -1.4554151105377258 0.449484111310742
Ni 1.6539424762469195 3.4634474056900295 8.116620155019703 -0.3181444485227747 0.4273227447223544 0.593209806467888
Ni 3.7939812383640223 3.0751961193219874 7.129965477524701 0.49350036899069205 -0.9397505467451688 -0.5647196694479951
Ni 4.411683505159655 7.03175212679744 5.658223159859906 -1.5928444311631988 0.9209488406576333 0.8683414988745627
Ni 8.329430755163864 7.647708135933247 13.504604484966304 -0.6128736034454025 -2.0134959345129646 0.09180020993244835
P 0.6098541119275904 5.906953006753818 7.838554088949906 -0.5522778441402165 -0.465813701708701 0.03220769508079614
P 8.929788681556952 1.4930502991514671 7.480605830035037 -0.5711448562480487 1.0000848248588516 0.4198580609141931
P 2.180157212833216 3.744276560702821 10.299414035017417 0.10021851590313062 -1.7736163804403646 0.1993080604081406
P 4.2172668190323295 6.361462038183498 3.512341710655968 -0.307459972225735 0.670115101566375 -1.28404182886664
P 7.367342830611346 4.400296450002871 10.158270940643561 -0.4971305095441116 -0.6766446751547767 -0.37976427821710085
P 6.51209495152747 7.803607107532634 10.064744290812698 -0.5261292107693069 0.9526479715331271 0.6086649646806938
P 2.764853390839736 8.759646795919608 6.004350527730628 0.19243421610644276 -0.3154141940758052 -1.0962921627200604
P 7.390417078960197 4.162823598450454 1.3849505834438358 -0.785800088536221 0.5257412313022688 0.09461325390121125
Ni 3.1786891709426293 2.2354008015091784 0.42647795795267696 1.0246018361636096 -2.41329990498976 -1.5255067251484888
Ni 1.9339075975217759 1.4891394096008144 6.8009960006709695 -0.7198253243073087 -0.1921616791713465 0.2945196100149831
Ni 7.288961327942686 0.8370704282561217 8.892205942484377 -0.630215951378592 -0.038079323370224745 0.32601948039547723
Ni 3.1741234347695415 1.895871922868685 9.252498006602046 -1.5412647593136939 0.2737633513042382 0.11282720580607665
Ni 6.629767251542223 2.248688730889419 2.498611853850879 0.6080268168760625 0.3105995462959812 -0.48357951033255425
Ni 4.161050055514693 7.033934948872223 10.160268222841987 1.138501706208575 0.18259074765345973 0.7868827800774384
Ni 7.836049300619093 6.486210319757337 11.19778629271622 -0.34393672699553024 -0.8613149310450844 0.8854740447897912
Ni 8.482219205306684 3.8156912229161333 7.859666525959046 -1.1477790177454428 1.3015073326412552 -0.17375463741906852
Ni 3.5119970066699913 8.676262992662902 12.543827163167855 -0.9077351701808367 0.17923648646924617 -0.022297120835303535
Ni 0.4851212920101137 5.023946906952286 10.232869794558463 -2.1056136756858317 -0.5051171272940139 -0.8223377784509386
Ni -0.4608828718880459 2.599613759778675 5.503569306352344 0.24284686423103985 -1.065763140893268 0.09597336747353148
Ni 3.8903710231496413 2.845699663434506 11.439511099768474 -0.8315837225292387 -0.3727675351842935 -0.08194697128745242
Ni 1.232412248330417 3.4177263783153076 12.982963670135875 -0.4213392734454099 0.9530966290347714 -0.3305487357243984
Ni 3.371423265053976 8.594598161790088 8.22863712684237 -0.636520039219749 0.5729644259552906 -0.7120531365610576
Ni 5.730499127283559 7.98687321089461 3.3758853171785117 -0.9735854930167427 0.3830390923136307 0.5554351588222757
Ni 3.1111217326361214 8.81058840608985 3.656479818818264 1.6060745567002275 -0.08982457426331628 -0.4707512482196344
Ni 3.677973340181292 4.766937797830563 9.008163817661227 0.15450607360210167 -0.3226004274115993 0.6455842063045463
Ni 5.365049236505019 4.515531265367448 11.375801799479145 0.9958988118019623 1.4932072416848348 -1.4088814857525607
Ni 8.024745173892091 -0.382648709709433 2.459794910796855 0.2390192629548335 0.746150849575715 -0.44800752676521555
Ni 4.876861079479836 0.6962929565797933 1.3952535036368108 -0.6627347499419037 -1.408578352689845 -0.017789205662620974
Ni 6.260151808637639 5.6952192654998814 0.07390671741535587 0.06463187704777255 1.0547199957052287 0.8009071193809884
Ni 8.086100664377447 9.17631114962774 11.190851285082795 -0.18154533710808088 -1.740309538758119 -0.8614020914422519
Ni 0.26477813668955497 4.91875307313171 5.694403435749432 0.07902799786844454 0.8161128805871493 -0.22283982498149366
Ni 7.1682785524831285 6.219069278171831 2.4966009290144853 0.6497015709070295 -0.08287796774215404 -1.165232951555832
P 8.919711319645037 1.5581620626238437 3.357887949171927 -0.4861493279422595 0.21741993951750296 0.0047825089903078925
P 2.2834046969704445 3.66207511940329 1.6821854653670159 -1.2743222875860312 0.4362092485787068 0.34673331590406087
P 5.037207551056593 1.4324497013003084 8.446188088925602 0.8784945281481644 -1.4918407003546112 -1.7534219077703608
P 8.636781198385268 1.8137796226728933 12.105117216013612 0.1683157257916843 1.9133645790070015 0.8877877805246325
P 6.267909922095097 7.927391309356778 1.2678831070456382 1.3206602514206225 -0.9519447748185152 -0.5933427325013266
P 2.108124084365382 3.483856792089249 5.65811674728376 0.2543605212975942 -0.566298583899341 0.3848578906899243
P 7.209588460248394 4.281359932203141 5.98982748485974 -0.13067760372393625 0.49498826639012816 -0.8647116154314591
P 2.635894081679961 8.822548452041266 10.348000925874487 -1.0619213985496743 0.2825938051116746 0.12229092232213777
