# total energy = -340889.1849340306 ev
CRYSTAL
PRIMVEC
9.08251552250059 0.00000000000000 0.00000000000000
0.00000000000000 9.08251552250059 0.00000000000000
0.00000000000000 0.00000000000000 13.29317954191609
PRIMCOORD
 96 1
Ni 6.450248142783122 1.8895901131984294 11.284726759503018 -0.006862788558104311 0.5989996736767876 1.342034089110708
Ni 4.590158040099954 0.08835107829071816 5.819474703658596 0.04952021821731472 0.7057225663573393 -0.38963191503979994
Ni 2.5756470079893012 1.4533478086853444 4.8499098106439815 1.2220892984232437 -0.5514085541613859 0.2777040811195411
Ni 3.3502220993570617 4.404647659935481 5.366110949077063 -0.15455646722406283 0.31382062433644015 -1.6321218886065827
Ni 5.49059863199742 4.407653972583435 2.8474258456282513 -0.616173614352913 0.17377109247930073 -0.45100774704412006
Ni 7.5613213528639065 6.042624844776683 2.6237943311858682 -0.7684245733722508 -0.23295403059736008 -0.6562594266302053
Ni 5.114546158052264 4.560521791851402 11.863724410467663 -0.2636794847056749 -0.57040360720665 -1.8226367762031253
Ni 5.445948985540209 8.004875082396937 12.616344336989814 0.5407713861625139 -0.2573558564804923 0.06118942702512687
Ni 1.9337674688468989 6.5297655664472565 0.31969455668892216 0.29275326214317965 0.14907693216673037 -0.40834954605396123
Ni 2.7094869571743034 1.1472307044961958 0.10832534649427787 0.6663864877618781 1.1599709318259441 1.4367663850882868
Ni 0.9636821476911129 8.666599918022051 4.157547833556405 0.07688292650098372 0.5241124374495941 1.1348026600904326
Ni 8.859966674139633 2.3451236807455085 1.6673100770702929 0.6080095904848819 -0.1373622148329634 -0.29141834538184
Ni 6.620318246507956 1.0683399744051991 4.772265201686818 1.188222727582786 -1.6075933073375994 1.12223690761028
Ni 0.6922520786493879 7.1446791169136095 2.298404128993831 -0.22063227580721356 1.2627723779649027 0.16605212656848822
Ni 7.7748694585396505 3.847825878944378 3.841011267525166 -0.08924736160360758 -0.030668375618134285 0.8867657670180211
Ni 7.857138884416262 3.655131228977698 12.69914690652937 -0.07871175217960638 0.21564793521874476 -0.28866726499926415
Ni 7.933849810774604 8.998311551038787 6.9983543418498275 -0.2509769495373419 -0.4121208401709354 -0.7260455941854077
Ni 7.13206350281087 0.8405922639143201 0.6192867817049912 -0.7870481020107091 -0.7453445516243358 -1.1280144335240057
Ni 1.7647872669883922 6.603688160530911 8.989512409971304 0.27568833624109296 1.495788886369082 2.0108502693600014
Ni 0.27468615086737797 5.125281691435589 1.0725787844136572 -1.1822487693875383 -2.289748885008276 -0.13625561203234599
Ni 6.286118004229771 2.2861963198394086 7.109896715352882 -0.1774040612461977 -1.064797948766521 -0.06239655995935061
Ni 3.630953572576336 4.5049186316376 0.8922063832973636 -0.6078812924371337 0.46249286486558416 -0.919874633756848
Ni 6.103759256962097 5.850057350027742 4.656640237442813 0.3000284556483543 0.37419835409354907 0.8084715619918077
Ni 5.447738241104097 3.149017132317476 9.51274523194531 -0.8603433111604344 -0.45595480663675025 -0.678808772685631
P 0.26549827813423815 5.562087111912944 12.232848741549196 0.7414596147476328 -0.4956593243152237 1.565728548783013
P 3.9385329617694738 6.128018656003434 12.78390494166743 0.09976420197453141 0.5236516957630917 -0.7377741954762456
P 2.4717157825194334 8.520026282032125 1.5694196326945442 -0.13916404392839257 -1.169178052246509 -0.9886845534417101
P 6.36737927088003 7.878228485529697 5.733654014200868 0.0654623433688679 0.1985400718938645 -0.13096659571926475
P 4.750092056467944 1.0657514574726716 12.52727937297665 1.0311134120298824 -1.4700506010627132 1.9435441879141753
P 3.8484434900019635 6.305645412668138 8.314963970637296 0.14493977006990522 0.5648469390544788 -1.066225425241667
P 4.5878238336029025 1.1186571105673129 3.7167860693042822 0.3265761242298956 -0.15539876061970012 -0.11414566750718406
P 0.22501568981261835 5.522896057302921 3.8333410831408874 0.4138357659795131 -0.31131842673987675 -0.12319980728965234
Ni 1.8762024852737083 1.1298376872127212 2.6541299331319803 -0.7600790296210329 0.8608102234945239 -1.2759284557308863
Ni 1.86542153931262 6.3731920808337765 4.961240561534656 0.12465736567178533 -0.06398704437492206 -0.6836141644940742
Ni 5.8402754807774535 5.9032627261356225 9.225506136332505 0.9150221907605532 -0.4805381524030692 0.2993409426630264
Ni 8.709923517208564 2.3424261736263485 10.236665317572395 -0.20997993829968997 0.8934547490024225 -0.323483601347501
Ni 2.056445006417598 5.255061756168522 7.176814873442272 0.5891217524414435 -0.7814793496736799 -0.7396364454959649
Ni 0.3380739351614228 0.1293913330672755 9.346793140772082 0.8706169251723006 0.20045862907281606 -0.5113402253855904
Ni 1.314221835448655 1.1502006870819377 11.490212316122605 1.2776978889264834 -1.0417264116590381 -1.175260253884847
Ni 4.193942381627742 6.849633599183236 1.766251368495492 -0.07312011702444182 -0.17215618258369705 -0.8633602436098872
Ni 5.770158460710392 8.09223979949863 7.878654455509119 -0.09592708761662834 0.017332834851492732 0.447104555334972
Ni 5.349347350121393 3.009100980227699 4.869278275060173 -1.0595251304033557 0.33943061159506055 -0.46011279466918187
Ni 0.592922055558532 7.432031743970822 6.743072077209297 0.28475687420126444 -0.09429675110205694 0.6313104699943515
Ni 5.231347308060349 4.948172638157391 7.061084552017855 -2.2982980601298677 -1.5853272968505472 1.055076607713699
Ni 8.293372106413795 7.250653908382842 9.473370710521122 -1.4991650019301666 -0.5339772460588159 -1.1793747902738527
Ni 4.677114044001773 0.4535735606908007 10.22318595624059 -0.3996288783515118 -0.7065018677255253 0.44891075530577523
Ni 8.258776804673452 7.328036940892085 4.7061844515313895 -0.6993500871720925 -0.20722345860047536 0.3301563853819862
Ni 7.138085210622329 6.187845185949254 6.971089538412093 0.9694683855245756 1.78399566679216 0.7283950682541906
Ni 2.1862977312749523 5.484549676639304 2.5062030023246975 0.7928747359948152 -1.8005103766177313 1.8756770917585568
Ni 2.379464672050374 5.048261959548455 11.241270555589434 -0.3565143065502247 0.8540106840741872 0.8925520346824951
Ni 1.0465056070164407 3.237126615694491 3.7935678392839356 0.2981253250883704 0.26954237124435515 0.29933631467733607
Ni 3.5676484391738206 2.904270585718111 2.7169128218902134 0.1503246885309024 -0.3336520572400706 1.6152603369645537
Ni 0.96217445010936 3.3816385206539485 8.309912275486868 -0.12438688561921805 -0.11410761518039701 -0.48749710021940557
Ni 3.7049579092999645 2.6703594801731505 6.812873933986679 0.03052259406888937 -0.410956387549189 0.9720466877747131
Ni 3.9841181073286163 6.686983910664981 6.151166355141116 -0.058444517290138054 1.0803670068493716 -0.6452985567433275
Ni 0.5555720268510481 7.493920004947111 11.439897904715156 1.3951394535761197 0.14068819388240286 0.2341454798023
P 0.045985684495017796 5.611886544688552 8.207315271551694 -0.5222476163267135 0.4272348129942384 -1.547123017866684
P 8.528881734696034 1.7600189463232099 7.947952232673325 -0.7022212380723003 0.10036506878332392 1.8688464419899684
P 2.0662177931523336 3.0538596168715433 10.255170034759523 -1.026980106587799 -0.31374323413128546 0.6647777485138615
P 4.106468674339417 5.818295793139851 3.850582422414631 -1.37600530384983 0.7845965551464229 -0.27393355833351535
P 6.907825276329565 4.312096826453182 10.553508872629315 0.28579842809190137 -0.9104875361149932 0.2174345948055223
P 6.100653036643063 7.772190116451596 10.396316867706695 0.9848235278244072 0.5897897250427455 -0.6431388300878472
P 2.4568204570129595 8.43933721386169 5.802619371295842 -0.47224583048728985 -0.2587553079311802 0.5669806975680299
P 7.194696530062483 3.722923125063261 1.7093167115016603 -0.0595331223686265 1.5518841867007531 -1.88795590912591
Ni 5.118660537597651 2.789285938820573 0.971859136443234 0.872193525630801 -0.837580563542622 -2.3125460854084494
Ni 1.2941767236237842 0.9536550505209009 7.020327671726543 -0.5032646474663074 -0.34408327987572357 -1.6644185438567594
Ni 7.015298682864997 0.700245600587344 9.150506355904298 -0.8693789390001414 0.03125047337384941 0.33401998210245054
Ni 2.500298458963869 1.3651111700905907 8.81336519509014 0.7486720733356719 1.213058041458911 2.7085453374271737
Ni 6.510583293599895 1.955946971826661 2.6313182870697482 0.06830418369303719 -0.9749232379915596 0.8393649091365544
Ni 4.042981890625847 6.840133287915082 10.438389804501597 -0.7982707101994058 0.7226057152659232 0.7978415930817873
Ni 8.210076356279725 7.216667135184533 13.563828726444191 -0.9203855119549955 -0.189801406469286 0.554634003077219
Ni 7.354748619132658 4.03513459718829 8.306096710703166 1.6425695663024678 0.3563358719908315 0.27566442498169297
Ni 2.9390838678317177 8.16305617326325 12.30096306693688 0.7173802052009258 0.3640679505277666 -0.36515449872372596
Ni -0.020479256068291388 4.910035155351485 10.202116336661371 -0.018540482006348714 -1.1728344180521737 0.4477301047341128
Ni 8.481380178355266 2.415168040688148 5.924477665963685 0.4965221865361513 0.5354723425471036 -0.8982735105473046
Ni 3.8774167146151663 2.562195802455711 11.519763188724962 -1.4122704568294515 1.5432630206906455 -1.1071910690207512
Ni 1.562610470784664 3.2281985029061597 12.605124705527528 -0.8647087872179817 0.6413567984867601 0.7566036694779228
Ni 3.4279502674573092 8.562232731805652 7.902768534301614 -0.8452465647283119 -1.203306618499102 0.1710727197115312
Ni 5.723120112662814 8.062149425472441 3.4063774765164694 0.7109532186286595 0.42932100609930574 1.2104668836929668
Ni 3.317425135696161 8.11184895057697 3.668200060606518 -0.2027605377331153 0.3409305931793548 0.2574777267703372
Ni 3.429594202772353 4.442376429541515 9.218460829018255 0.2460185770908021 -0.8529840425818858 -0.4677913942603621
Ni 7.321215971711986 6.206945716156641 11.515456259849858 -0.7145627903567886 0.004018377130773725 0.19250697832590719
Ni 0.5014129866101303 9.124113473959627 0.33838819019954725 0.4949278454658379 -0.23915013210574293 0.5011987660762143
Ni 4.713780159288136 0.3085439523448379 1.5193840545145652 -0.112144063696123 -0.05356764881381097 -0.11081454625142205
Ni 6.0623883986194205 5.285233872834685 0.44786156665968996 0.8456993359950146 1.1481199460246292 1.8313988386664717
Ni 7.843878411709278 8.924534277203977 11.445879649458183 -1.3087593862179783 -1.3741620799935044 -0.45583602167069887
Ni -0.18544861905871352 4.949062724681559 6.118358492461551 0.8690480380232839 -0.9567046581010041 -1.270928431413134
Ni 8.198487066434444 -0.2556310332377543 2.607722819915316 -1.1311835752806065 0.38849882987662127 -0.5981982608214149
P 8.702048976224349 1.4015956350658998 3.89567257087615 -0.06030368198606389 0.36257259692916266 -0.34963146338746237
P 1.8419886491865811 3.27131320423496 1.5486025070476914 -0.35234500566388355 0.20017863593855204 -0.41163695855598137
P 4.65449858027548 1.3955375971922301 8.266576869030136 0.5936677199409129 -0.8354753442741611 -0.2871040342772024
P 8.509581389146486 1.5310668942700392 12.36409290778923 0.08365084135243658 2.0318217294053458 1.1975072382085055
P 6.308206682054007 7.490632134317024 1.4418847658062464 0.9345543472562099 0.5933830988209587 -1.0522818185773812
P 1.691291551135716 3.0342232182465447 6.0033456897658 -0.6484756689197283 1.1632550018938548 0.6281693532622085
P 6.765774733084897 4.1742696529405325 5.979936414180198 2.1135830670445532 -0.8202248458729938 -0.7081275762544061
P 2.2285132635640323 8.373434481011094 10.28202158373961 0.3094106681942026 0.9346589911548743 -1.098224860966399
