# total energy = -340858.92862637906 ev
CRYSTAL
PRIMVEC
9.43721243262451 0.00000000000000 0.00000000000000
0.00000000000000 9.43721243262451 0.00000000000000
0.00000000000000 0.00000000000000 13.81231432319348
PRIMCOORD
 96 1
Ni 1.6557777991183633 8.14758905874793 8.043615514279889 -0.4996692168055653 -0.445739042446013 1.3283200819587253
Ni 7.226668118837489 4.3218469400670685 7.670503051616121 -1.9859231671010185 -0.10539003280174107 0.9401223282622905
Ni 6.725070839804249 3.4049085038113502 3.7627779809227384 0.3862555423683993 -1.4725360864887282 -0.5336180629471842
Ni 2.6417777560974036 9.188466406135019 13.731318706007924 0.3253787614876848 -0.3810284896415051 1.1088430028018774
Ni 5.7317570431749525 2.8734707590050648 13.17698911495696 1.423570198112987 -0.938911338673325 1.7362654505957325
Ni 6.459724737292958 9.122679598132521 7.9669287258953965 0.4534901471463416 -1.544533916983269 0.790646875105561
Ni 0.28596546799754197 3.5162109874695697 12.021768614059631 0.8183543683231582 -0.72693802409269 0.6434039108237758
Ni 5.723320175242915 6.44594640711312 7.588457814001415 0.15997481002615674 1.0899399952497875 -0.547163919952419
Ni 8.310182792082461 3.0185679004536934 9.238214671575438 1.5037852743109974 -1.0644305381247734 -1.639580658877473
Ni 9.254819446884634 3.420442155507249 3.0332673025688406 -0.8934745464967644 1.1117581195661435 0.5019531277437356
Ni 4.543998921185815 6.989293914033759 2.517349997361021 0.3988254086136099 -0.17770847986049396 0.1519308566757577
Ni 5.196034803915485 2.937558868766212 6.064268730427969 0.6035842077236766 -0.0862985633879288 0.8280654249633351
Ni 0.7740562085695613 7.846796786267139 4.827942938276151 -1.9350274086924157 0.5731323189917226 0.6882794311802276
Ni 8.256513364868258 0.8542149474151228 1.8672732799363752 0.721113446991113 -0.17933753082348466 -0.17535592046791734
Ni 8.418069004833077 5.525761569773933 6.244215610019135 1.517015399848026 -0.091641572867397 -1.8017023400433034
Ni 1.0564204362954417 1.041858817482093 1.6682509628160969 0.8581000236522124 -0.6273586844354551 0.6831462237187202
Ni 6.350092640238731 4.907435409922606 5.277119333302582 -0.5790381429531963 1.4355211998272763 1.104701469829678
Ni 5.4858044122524054 6.282994059705415 0.34905228951753803 1.3569773406841017 -0.09398230518543169 0.7568738924201739
Ni 6.209195058331217 1.3220213435429349 2.4816584598677713 -2.4290707946707712 0.24768336638773472 0.9605440864517522
Ni 4.52620033850145 6.395193078546569 5.327658437146474 0.012635943596455658 0.3010414702939009 -0.8928631381650106
Ni 1.7378909846627224 3.2202694421890787 9.897117070085141 0.8259398939799001 -0.629162056192781 -0.038165969546760076
Ni 4.855625113561436 -0.16194634056032853 10.319870213967377 1.152632489183002 1.4820244855951379 -0.14389975884116507
Ni 5.525837067473549 4.685075810129916 12.199698761349817 -2.075510171432232 2.4630656635589774 -1.7085361030012638
Ni 7.529621512969775 1.0829578777103062 6.450862251079338 -0.4031919131124218 2.193942896350544 0.2064719251464315
P 2.453448744406422 8.590496313542532 6.155817240981782 3.031302859241928 -1.5849562866643734 -1.64168613525625
P 4.8771513951643195 4.541167757450232 7.730393489278644 -0.9530207814915135 -0.208690272953989 0.26270323683533464
P 5.779197910170872 1.6498606669109948 8.283755766053284 -0.9440818271306709 0.7699140134335837 -0.059883820839825894
P 5.927654699252392 8.412104686563447 5.875398966463491 -0.23690453060467587 -0.3242760153418093 0.2565341319101453
P 3.566662325237659 5.229310415021037 3.576242983318872 0.86488490778453 -1.9251258333079875 0.19313021373220288
P 8.11093492558458 4.043892721719982 10.910567990644395 -1.4397352379086237 1.3825243359152706 2.0286253339552354
P 9.23664337570219 5.618831358974998 3.069676068208438 2.111378088973435 -1.4665814115671905 1.9926311752488135
P 2.124712885855428 6.74362439948477 9.83514100847074 0.05782153899415848 -1.191934114996102 -0.20218075397024537
Ni 9.404871124870533 3.111411196555912 0.827774709288513 0.6049083258517388 -0.5921800796517931 -2.398384421330508
Ni 1.667291198309734 8.541356748305263 10.671752723499251 -0.513195019206142 2.276723933503518 -0.3539671146483388
Ni 7.8311404508093645 5.767089966595028 9.599724081529542 0.30806649546148235 -1.349291799114386 0.7065147232413317
Ni 9.014312087546857 9.203499885570965 8.48208727922208 -0.1331656602531126 1.1184463302195964 0.9363232662311746
Ni 7.942093757606862 7.155747467261135 7.778087273568275 0.8963534107064564 1.1455928087274012 -0.32431175367575116
Ni 1.6822869288958722 5.0370649601625 8.555844756861488 -0.17772287803819714 0.3744834894341357 1.23493504403766
Ni 4.211950601064189 8.813950629979649 7.733114237628539 -0.3753440376622181 -0.47208745053255474 -0.03772631090618019
Ni 2.835589788222964 0.6278662379189973 9.195465042889381 -0.8418228837587437 0.41970533738641264 -0.2663007243786059
Ni 5.3145190062496335 2.6960417276960777 10.45831128947365 -0.38796738285318344 0.32940150949383273 -0.2337086493751975
Ni 6.434848245269635 0.6607256679554189 0.15338678886641594 0.33073436937264333 0.23630829178157367 1.4216074179596614
Ni 9.327259489665751 6.952611469233055 11.317686504657496 -0.2686810516853244 0.3052470237348162 0.21941434423971246
Ni 2.1630468428352216 6.8423187673071935 0.5925625698575224 1.0634774301828847 0.6210147444952983 3.9076569440083215
Ni 7.582941763323254 4.397731565393145 13.253095514775657 1.2045628595037061 0.5970515488114814 0.6050355954582225
Ni 4.855861043872735 8.777655110889475 12.91159960126839 -0.7241730597530431 -1.606351464510698 -0.11824220617406088
Ni 3.4917119839443247 4.822198507056653 0.4905179916146591 0.30002485610392843 -0.5716122828027704 -1.2735630408225036
Ni 7.370387427268135 8.984726426510015 12.12788912436049 -1.2452968468879584 -0.41471868280509866 -1.1784070270439446
Ni 7.84739133065161 1.9347795480476162 12.119118179107655 0.22465656647525828 0.4325621387444228 0.02644199624161253
Ni 3.8095478621133245 2.023564842795499 0.09708249193563155 -0.9753235587537717 -0.23585140674981314 -0.6756931098747847
Ni 2.291902541654056 0.6000113616458413 4.295201914430252 -1.1210300317863726 -0.25645314216056475 -0.8462986601419101
Ni 3.597323828494023 2.6433065845146184 8.256034898196944 1.2636570945627013 1.1877820405009416 0.603592949474425
Ni 2.0931170985663217 7.180737205833881 12.348057403421837 0.4963226689308355 -0.1653597284871539 -1.0485192662111555
Ni 7.5190423978111465 9.262784454194072 4.373255211177786 0.3384988438094106 0.5910102277134079 -0.6498990316298162
Ni 3.083127870837438 1.3039302072725596 11.516942864646582 0.2605141996038159 -4.012186171471664 -0.19653306876616478
Ni 8.74485136040652 7.427463688177488 2.3383968562410455 1.9629606447675743 2.2844567833714016 1.6857180766654838
P 4.794141674437026 9.106711834663834 1.689701746719364 0.7120996735282767 -0.9829077988589329 -1.1267725906971044
P 5.528847538245719 1.1569833721833498 11.990318159842287 0.6070359137177029 -0.710998212933982 -0.739136880151727
P 8.826671992364869 8.888863222423174 6.318401537103861 -1.0326375619838926 -2.0408861536004594 -0.4186193034110855
P 8.271207104655934 6.4975302103754435 0.48017575048857436 -0.08809242206355795 -0.2368420527978566 -2.9509638558715436
P 4.5249168776079856 1.73491826274036 4.306099063648511 2.284800025643433 -1.215339895514552 -0.2645767997089637
P 7.70923054035516 3.2684086629064413 5.891435621583079 -0.4812758019000421 -0.2834193863367635 -1.420586690004631
P 4.160083681428309 6.587372472917943 12.61586378721935 -0.2220954906163014 0.050968006407434804 -1.0676827265134838
P 2.1890274887154217 2.8399025943135023 1.218186526097938 0.36567000490756374 0.34814330887771006 -0.3824528807928575
Ni 0.16877133260557395 8.301038133216528 0.22715087255454067 0.03790885923063149 -0.08377528274544281 0.27866053149553943
Ni 3.3456428096131456 6.6265840906557685 7.367171225264512 -0.6554089057044519 -0.8442194090153784 0.34781189368022036
Ni 7.206472484190331 1.132663675694692 9.891357539325721 -0.418402302304273 -1.2105337323751604 0.281602901953315
Ni 3.0387635351008524 3.0350641478196905 4.452247510564287 -1.408576038697 1.461114217805032 -0.2443699857437856
Ni 0.710959006115868 1.3275326756148698 10.474885865703 -1.717271683102049 -1.2864782062222748 0.5995696872476448
Ni 6.724825472280499 8.009315021902054 1.777714133767433 -1.7821856101666145 1.0388452334565013 -0.6356602623226149
Ni 2.4552135031349356 6.932538518347772 3.804173369621943 0.5028568705049276 1.0266589758029545 -1.030790738583141
Ni 3.4492822767603877 1.1550959296929613 2.3284519217591875 0.29484305479267287 0.9500323882871509 0.17092565261070564
Ni 2.630745654741082 4.206259961955667 6.661237534779304 0.68982800661427 -0.08795538226506143 -0.8391373665067806
Ni 4.328613421395112 9.026287910148373 4.3633933241655045 1.3902720981814896 -1.4682544283942391 0.023089791939927974
Ni 6.865137947015993 7.064102697140314 4.448573603756745 -0.10671929313612588 -0.7907898284413284 -0.40628777842892605
Ni 1.1290397861131456 0.6605907158173561 6.302034579548455 -2.2362758527908 2.1997461332958825 0.879601388059098
Ni 6.870894646611678 6.7414727150457265 11.93307957887876 -0.32753797392253264 -0.9424741163239189 0.10678434204610641
Ni 5.543201538385125 5.410070782325559 9.909811064554251 -0.08034697379018421 -1.2144497796001148 -0.7185428580504593
Ni 7.319917215075142 5.529762947853556 2.0706036845409654 -1.608774472129894 -1.5127501968137689 1.0198866900761274
Ni 5.308743432229043 3.9197933779769265 1.7759323880565059 0.3626515297962142 0.03570105294603529 -0.016902175071977343
Ni 3.416034977292191 1.2967484885966307 6.441317454405443 0.2554169875865665 -0.36237924997143395 -1.0870773289900117
Ni 4.213809731917221 7.200951714905944 10.19539432544749 -0.9250214680651101 -0.8272246742295948 0.43181549038638534
Ni 0.23531594876796202 3.039735567983403 6.738503768008345 0.3204062479737579 0.6351460416903578 0.06084798452530811
Ni 1.1593049264465278 1.363346896869995 12.998244536232173 0.7809250198321067 2.1092386740329285 0.8288156728657985
Ni 1.3392820051175396 4.60588816044566 4.533270698070446 -1.0313499535207205 1.4802902765128507 0.8977837153950796
Ni 1.8033380530169494 5.066301444338619 11.345324325044256 0.8398215370579989 0.38807922584069937 -0.20504522000223396
Ni 0.8185366220193059 5.161843783202094 13.720268673947944 -1.1642988697773369 0.20270191658103798 -0.7779939622282407
Ni 1.869993084565025 4.748342882407744 2.1264606576015277 -0.9670878011075409 0.6147235121699478 0.7902280424005874
P 7.589406253852836 7.821656052295162 10.038099586904723 0.179290222525317 1.2120144306857448 -0.4336759406338918
P -0.1096972138201442 9.466939671166964 12.292545832337016 0.3547615855251761 -0.7092583474247398 -2.134583323445304
P 1.400982500128345 8.404743660850933 2.314570725963624 0.11807174203446763 -0.4966294015379769 -0.08796746644991947
P 7.445064089400362 3.1032385705725294 1.5978776695619552 -1.909980235915801 -0.4217789320859897 0.18379145282978024
P 0.5372359681367594 1.7837935860289746 4.009590341899658 0.5855152660371077 -0.969601311558014 0.8487077838040351
P 3.236992182653922 3.190721530002044 11.686847606467634 0.3690551193297128 4.6014840444796565 0.10345116390781539
P 0.9535359461443553 1.6721041766602254 8.28227789858331 0.3913758943141002 0.19778622444697547 1.0196480917027602
P 0.896002924152328 6.120768377656509 6.973215735179383 0.021345298444995497 0.1185921333143119 -1.4084377133469226
