# total energy = -381177.8415554627 ev
CRYSTAL
PRIMVEC
9.14528130296802 0.00000000000000 0.00000000000000

0.00000000000000 9.14528130296802 0.00000000000000

0.00000000000000 0.00000000000000 13.38504360610159

PRIMCOORD
 96 1
Ni 0.24450275263632618 5.63509368124989 10.017807854302758 0.5779451669993336 -0.6666875639420647 0.9624073649127359
Ni 7.33919795565742 1.272163495149831 1.0439622063619698 -0.9136510214446393 -1.6119747242347464 0.3194562253556627
Ni 8.984223713116236 1.8028367309057238 2.7838748295485556 -0.07529501318857355 0.04984160611247545 0.3048431034281782
Ni 0.3574387454616161 8.531898101926851 13.185954599062034 -0.5436044847359347 0.390363908109818 0.9054440601538147
Ni 4.001353200867653 7.923992965918344 8.442481943449659 2.308384497831592 0.15837609808046918 -1.0590988414992146
Ni 0.24664732109212706 1.871938476116945 0.3680500153092312 1.8382703689753246 -0.6478408635492069 -1.107362561601609
Ni 7.102280299299308 8.283292776116657 4.979476698372474 0.8704210071114107 -0.6510575707142916 -0.2189651725174358
Ni 8.698351366165792 0.8179759046956223 11.423371738156536 -0.6031350360014 -0.0740490565966144 0.0038399425713804836
Ni 2.693577980485889 0.21968703193348757 9.777895118331534 -0.007750847590012457 -0.05224558756827777 2.215017971853288
Ni 2.8667530264519665 3.6403066419484107 3.7969086092125597 -0.09788781088742496 -0.05115132606283449 -0.03318111473765898
Ni 3.2508822752750097 0.695767511199388 0.46716383003602463 0.1763008008796899 -0.6606251597980687 -0.7009269447409089
Ni 6.419813685166516 5.201040342020803 4.527678769911872 1.4027483762716293 0.5421870355631179 1.3898504372630387
Ni 4.610246027252394 0.4600716644178004 4.6277720442617625 1.5649618458203176 -1.4298136079195376 -0.32231554918132876
Ni 2.370813568926912 1.3243373247461803 4.104242187699157 -0.3773096460290212 0.0882726563951641 -0.39271569617144625
Ni 2.44611581483337 6.099207559985233 7.074624968764802 1.4701575589542228 -0.22211040301463683 -0.5043691933843958
Ni 7.955589912676518 4.619235838732361 8.357889006309733 0.04491100158007749 -1.3015695533377585 0.6253015447961101
Ni 4.224196269364454 4.688374165068628 5.5501084115438495 -0.5515664198954888 0.6951923562499769 0.7340427534582713
Ni 6.18176201393199 8.804235432610408 7.017363619202729 -0.4069449523969508 -1.4646741672421484 1.504400539297493
Ni 5.867813653509014 8.521737694445424 10.122840495061936 0.1256940344664158 0.6503929405470993 0.2180912545529147
Ni 6.508888724652659 6.517146913631714 9.19496300186356 -0.14550412721380748 0.29216885039461943 0.39051586030665003
Ni 6.967798938350261 5.909040581435454 1.9017072811509637 -0.2534385237039571 -0.5146772601786233 -0.35747769890475856
Ni 4.81335357878707 4.978398469711753 3.15385084109144 -1.4914010417140315 0.07895574986961242 -2.185408890737604
Ni 2.496195375020856 6.694300156946504 9.346321064852416 -2.990136155195631 0.1243334066734633 1.9770166086400083
Ni 5.06601026419607 4.425264423177835 11.640597774902579 -0.8666934217481783 0.11281357895932184 -2.261713576137615
P 8.282963545991246 5.344465788043511 13.002525863745664 -1.8083877224832792 -0.13127152855419327 0.2765350005121044
Ni 2.306988651003525 4.736633814285093 11.014511819746387 0.662847364260368 -0.4551863039018419 -0.1705047630232031
P 8.286146103870216 2.6855026971320624 10.222773726989752 0.295497143436904 0.7517602253426924 -0.8142891971148493
Ni 4.74180089819779 6.8456637071041175 6.463463198099105 0.3430471253017254 -0.14549949922811714 -0.6403599817911295
P 4.172653464175141 6.375138986204525 10.679698500125502 1.5208391444694904 -0.5056930544021421 0.32000464165996495
P 5.943993846416566 1.5236221487135864 6.2334145624964385 -0.7289851364297059 0.9160773714979449 -0.29811118402098336
P 3.915799094667154 3.903553563058125 1.280675922947952 0.5517553959778433 -0.30864782188624906 -0.24035597948838605
Ni 4.040778508385596 5.214419888506248 8.760966363378294 -0.0515858424970918 -1.1439221058931979 0.6901923319322243
Ni 1.4540357035955103 0.23281508318424302 2.022774343545774 -0.9689806472548795 0.2956483243027876 -0.466897421691183
Ni 4.526822771585803 6.8650974297846155 1.58171023170169 0.08749335502697834 0.06775088229272848 -1.2292009697673605
Ni -0.020902454851080856 4.9331293274677686 6.111571065722535 -0.0232294028415858 -1.206242304088658 0.30778213145184413
Ni 8.050371607669781 3.5679034502018205 1.1891462899712468 1.5061992830691286 1.9273367249163775 -1.2225842357817913
Ni 2.243163733080138 2.531075477751877 1.71291118026227 -0.42470973257953953 0.304946718885578 0.4449353155977951
Ni 4.921560546672084 1.082645831569612 8.593706485332097 -1.4334604606435055 -0.46159992073766953 -0.25968913259935916
Ni 7.277549614674249 4.964616530850807 10.878091659169918 0.37015066638673666 -0.5746122459713588 0.8959908851607149
Ni 4.935168725189064 3.189444275760851 7.569764214179482 -0.4542391094972241 -0.1748023619572925 -0.16128041621145772
Ni 4.212627488568769 1.4802094985656684 2.5375100976474063 1.1045580022732784 0.26586620794434856 -0.252540694480036
Ni 7.155725322990993 2.865234909762572 12.26795492415411 -0.5830598625180797 -0.2459602130490409 0.6418512216246752
Ni 8.318922791911113 6.214310069941351 3.683765018502636 0.023021400595837772 -0.38725878682193304 0.3390444319002355
Ni 0.7599088558544197 8.084382908680968 10.28574996281208 0.10469789183072292 -0.5765333742534715 1.031082815902263
Ni 0.8175387602513269 6.4045685013037446 12.281487196836618 0.8388753710946456 -0.618840876772431 -0.1650511961077996
Ni 0.47528209621177914 3.09525702404958 4.67595761670001 1.7586438182909323 -0.27354377909426436 0.5966681973301337
Ni 3.1843686446607684 2.894435792830257 12.539082334126782 -0.018817904037451462 -0.5595273266137784 -0.6334761101871025
Ni 0.30396811498239856 6.071277871012883 1.3511265971452313 -1.3362385654748536 1.505422038583472 -2.176103554176278
Ni 0.4077387069275024 6.446042351824243 7.933717143483602 -1.5666292062204117 2.029614437341382 -0.5365876870984695
Ni 2.719870664112445 8.172141027665468 5.509457636336878 0.09749597476564499 0.2041165375403775 0.4086668201840639
Ni 1.5580175515377528 4.103579154807705 0.15247470183087397 -0.04763225716598248 1.7754218090802198 1.6617703076006347
Ni 6.01583003072495 7.757923803492382 2.9875420722964297 -0.19864111624810307 1.0308298193511924 0.3500155861997584
Ni 2.3302542465325544 7.592732588067515 0.6764160960502423 0.015759319716785763 -0.8894281443415327 1.2026445594350708
Ni 9.259140013115513 3.6535307186524113 12.010453068732813 -0.4776361482649258 0.9084828469801387 -1.3685958987596365
Ni 3.560084234723314 5.618540722166736 13.181551146134664 -0.6065872562160586 -0.29443013562497033 -0.49220967520372644
Ni 5.447112424921587 2.9914946628576113 4.6357220372623065 -0.5123686666501047 -1.551213900106606 -0.6388692561782159
P 5.871380313200964 5.041436893446659 7.868250647573791 0.8029030667650946 -0.7470929017740101 -1.8105240520999915
Ni 7.451401411453671 7.581255260084446 0.2913137893009842 -0.6399028396490528 -0.1201157690476899 0.7028442163682799
P 8.069274904037117 8.07362805791755 9.169464128650494 -0.045959754559566 0.5212590271611991 -0.4774404873143519
Ni 7.278903116300938 1.6486564341195966 8.054088249974418 0.5517250569605401 -0.15027223802641215 0.036792743348317274
P 3.9606475539731134 2.998371914366192 10.436238309552976 -0.44640855770921184 -1.0587859382444862 -0.729687561813369
P 1.875386247152497 0.3282012812688853 12.090000554200817 0.1887534248207459 1.7270681003671804 -0.8055793280456771
P 1.4012491401546463 4.456202909685188 8.069508108709284 -0.2649624651831566 -0.23419381654173213 0.6243615494803441
Ni 0.47387646648190024 0.6825900754298208 8.727905257090168 -0.029793686322664818 0.5523997144300615 0.6247618702425562
Ni 0.5550783333300942 -0.19240848698695104 4.383494265544467 -1.3673162607162646 0.09286953173722715 0.34460547092778065
Ni 1.3032025797510596 0.9303037363170283 6.2132967727775865 0.46694087333460876 0.728999534607409 0.8928142872049462
Ni 2.234018451818727 3.587071959725738 6.173610824743695 -0.30148961357491305 0.08630139160140621 0.8758069540136724
Ni 1.1195287508968823 7.178789722332272 3.1321399433768504 1.96773132668334 0.1354742537816312 -0.2382703006039509
Ni 7.029813090583888 3.5477655408641935 6.344163004043999 0.42867411654392623 0.9456681977811844 0.2851880482014121
Ni 0.657766123973847 4.471630999173189 2.766273821232844 -0.7082934124083092 -1.9373095198583732 1.2923320938998903
Ni 6.457656859026236 0.5475142711987812 12.245856266514036 1.4019531340638436 -1.6712065133128702 0.3299213865530447
Ni 5.8424720791336435 4.617882337105673 0.2925621201931668 0.5070714228069073 0.09043598259507006 1.3628060315507369
Ni 7.809320284181511 7.368993282007097 11.408460357059807 -0.22018516096746593 0.05693605106541162 -0.8900194980686286
Ni 1.8277484770618073 5.742312958758671 4.869157170516074 0.2486454731906879 -0.3467024626661255 -1.1956938391488503
Ni 3.635880325817888 1.7024581237804772 6.134753439192085 -0.2247961773769161 0.648808883889431 1.2133359777106458
Ni 5.354873118118996 7.214794694658447 12.540192571271918 0.0002900204365930489 0.10651180511101012 -0.6510979370339238
Ni 8.688803692528879 8.690001724374124 6.98125073255767 -0.9477505342315096 -0.8227450411916862 -0.6797557099799325
Ni 3.2774218814956244 8.399913402762168 3.010242489443504 0.6553842231141036 -1.0633977259848848 0.328530419742789
Ni 6.753040298488547 1.0044628220658098 3.6066666393564373 -0.1130030692623086 0.08500478427716972 -1.0090934561153653
Ni 2.44365573417405 2.2547233685945614 8.549214691995333 0.6800297895769256 2.471130185734667 0.13730230812930547
Ni 5.236505742752554 2.1527351919673063 0.057726844378278165 -0.05561347559924615 0.5666839922632175 1.5679458681493061
Ni 0.23116710350093675 2.6589082192238798 7.3679580361683055 -0.3431090888879123 1.2682076900478612 0.03576661607664808
Ni 6.291916926725685 1.969482046051154 10.181453517194445 -0.8293563758606168 0.3159620961594752 1.0845741029521838
Ni 6.272089956950945 3.0077366823778773 2.326266903902579 -1.5752349456115515 0.5387654114760786 0.7590163926844734
Ni 7.087199730499242 6.291423081537569 6.623615363548933 -0.1516439215629582 0.6755946366237074 0.3882491757596604
Ni 8.044564354068784 1.6170320515176377 5.481537092645791 0.09801430916296022 -1.4296236033959184 0.2230311150566933
Ni 4.397654819049635 0.83469622242586 11.592518287726962 -1.9941141875522428 0.3818784963466262 -1.145498192131066
Ni 1.287362952606296 2.1761654025590413 10.686190735292977 1.4923793464669008 -0.3483196865545743 -0.08526549413772412
P 7.7240222458563315 3.5282312200898196 3.956806535843321 -0.7280531115337396 0.17409762258078404 -0.6605241154438302
Ni 8.311688874433338 8.330509863269322 2.42435278901559 -0.11780717551917132 0.8457939525913497 -0.10064249081442668
P 5.601740840489523 8.926169467668801 0.8470789332538105 -0.2884674902836322 -0.1868376958552718 0.21927190512457723
Ni 2.5174124275473293 5.4998349713936205 2.036078898724875 1.351079744252744 0.1144256606414481 0.2619290776734715
P 2.8140121894174093 9.505330984672693 7.711953218175647 -0.2572440134929764 -0.5745047738592169 -2.1264961755617957
P 3.7799185056851106 6.610812884311084 4.341974688617661 0.33931182662900916 0.1405472974291644 -0.2315005859802852
P -0.3044500713048749 6.952782386519024 5.585779581103983 1.4821437847818215 1.7728561052355725 -0.007651088787354564
Ni 2.935086568037229 7.631938408835184 11.828857962309355 -0.10769451256520163 0.33394490589014103 -0.5536181602181949
