# total energy = -340895.7429955036 ev
CRYSTAL
PRIMVEC
9.02183245000847 0.00000000000000 0.00000000000000

0.00000000000000 9.02183245000847 0.00000000000000

0.00000000000000 0.00000000000000 13.20436373139260

PRIMCOORD
 96 1
Ni 6.43014847646691 1.9444033100030604 11.385238221567516 0.024933015796253833 0.22197104922329514 1.026550475249548
Ni 4.484319716983144 0.3378188963620447 6.080398207078079 0.12657746551263363 0.0992846912349516 -1.0822495685840652
Ni 2.373698171331304 1.2609273495015254 4.784297440548552 1.5915930752546008 1.3405047969503752 0.7410970892018914
Ni 3.410198424111213 4.4169446744394465 5.031073419887904 0.12683123339465255 -0.16651543935815194 -1.1340030470072728
Ni 4.892061421289844 4.658513252258147 2.3117669023107537 0.7953414523677529 -0.46535296002219856 0.6375826761563084
Ni 7.524866612151811 6.070231504421077 2.484097429245468 -1.3081302372744117 -0.7186621572371429 0.1557826263216801
Ni 4.929691483214021 4.585932612560229 11.230231416739446 1.356591932320225 1.951102716987724 0.6826371452927855
Ni 5.581798533307892 8.066528392987522 12.2248505202831 -0.12424290384218604 -0.72524649532288 1.3347193006168496
Ni 1.8851569382322433 6.399275766827845 0.280702579163344 0.09873601782033319 -0.22853636114563866 0.11169334931194956
Ni 2.6214196386806417 1.3920596798942206 0.5730361043426676 0.27026767944615393 0.7467853978359204 -0.14660275959462493
Ni 0.6082167388363942 8.794581226173632 4.893933451462288 -1.402899557137513 -0.05532345516265311 -0.21110531015338482
Ni 8.889337529311883 2.3560063584726816 1.4044159812155717 -0.5594818180878235 0.3157378959638111 0.9313152714936219
Ni 6.802118616273641 0.7896548053329538 4.717707297402457 -0.2713010058066747 0.08441574454291914 0.5726790335043879
Ni 0.6121051484957853 7.2155982058317845 2.3199145189311623 0.9894648832511604 0.23437019421859637 0.5358567224697158
Ni 7.683831294746878 3.8362634695274793 3.8507489232377314 0.317215251840286 -0.4870301878853161 0.08945047875334916
Ni 7.726838368636247 3.8978374739946378 12.510962590007397 0.18427199201062458 -0.44896860512690423 -0.13052745129931714
Ni 8.058859835654616 8.526605745633265 6.961881731014545 -1.1337377091610281 1.578958931430358 -0.10839282418380689
Ni 6.750730260311013 0.8022808594357799 0.43619205201178063 0.011122078055090523 -0.30592348097655053 0.4522362201345824
Ni 1.5487057516251028 6.626147780063835 9.20329638617 1.3709356026364066 0.022360112862755042 0.37525559171346984
Ni 0.1972722841141875 4.828637941230632 1.1835110077677986 -0.30201566128171214 0.02822094251890624 0.6151755121057018
Ni 6.320497128438508 1.975366237963689 6.7457926115718365 0.3981857181470819 0.2529757251349256 1.083754949484998
Ni 3.457707392246606 4.424468882457851 0.266445377806648 -0.15069672715834045 -0.5682245972774601 0.01722690540124775
Ni 5.938305252798622 5.5362743682468984 4.676998986346529 0.16477248852511622 0.13351121651798942 -0.1354446860952764
Ni 5.215503125927512 2.864855735755709 9.450019136699632 -0.560560395863983 -0.1357575893500049 -1.3375302877030835
P 0.24992008784584302 5.59040536118506 12.253899917643363 -0.047050416520583484 0.030242600934625333 -0.08759285671932011
P 4.0983296500054305 6.277075050269946 12.571161667253925 -0.0898806243122323 -0.1627973670766164 -1.0737628712692926
P 2.504271148130305 8.206222442096601 1.5003857207788533 -1.7006335603247358 1.483488214624858 -0.545914363816034
P 6.221888502969492 7.945193772316633 5.843551656210018 0.5686339169007368 -0.6609421768178553 0.2117969369037707
P 4.6517649218051895 1.1327361363918036 12.646584184081096 0.018825874457251448 -0.2210757911025354 0.342362697640191
P 3.990798432533773 6.1795580664918495 8.251947794014683 -0.2015965993320012 -0.42643545702139457 -0.3973683644521092
P 4.734874039629579 1.1806420651420761 3.9014010976963998 -0.7693897654989975 -0.7211453286703129 -0.21713171885312282
P 0.2648755790114413 5.465335702001439 3.714981175483098 0.5782714399905008 0.17356566133671397 -1.3314519427194877
Ni 1.3364130191537913 0.7150956778431463 2.7173920847935706 0.30537892132699024 0.26697049675212087 -0.6490734504047274
Ni 1.9162461718430606 6.404941477422039 4.84593550002402 0.18272495923847887 0.5328655010518758 -1.0463276578764755
Ni 5.934010860692194 5.512826626472519 9.17493264805362 0.2678963510004999 0.637146102839522 -0.11046564755243557
Ni 8.77530157085549 2.3547974329637293 10.288325074118973 -0.7042395540539098 -0.5904952357502024 0.07033329830792404
Ni 2.4165518740740146 5.309934643108135 6.971480960428912 -0.5899337068197776 -0.461810751196895 1.0080647577405348
Ni 0.3832726911322186 9.144799728651378 9.142714783240043 -0.15234403295377633 -0.9327309208942258 1.4583006596156367
Ni 1.4798872159363874 0.9439542985199666 11.53131792347687 -0.25645545615341 1.3241402395494228 -0.1090433132836122
Ni 4.152108791489494 6.856393958526303 1.5544310063115288 1.1449430909585443 0.373374315530357 -0.3488884145738507
Ni 5.395696179586494 7.9807397910126925 8.158514091470554 2.341676941336135 -0.5948815377433561 0.21327763521435525
Ni 5.352463559893216 3.1220862141978505 4.758786405760012 0.15950892613333176 -0.5299442136400228 -0.038468845499159555
Ni 0.8613982190067614 7.202498505540749 6.9673083630565955 0.13751776657422124 0.06141928364774584 -0.2794151502733769
Ni 5.0356077927296905 4.593294427599819 6.974624166752188 0.24177394288183524 0.17452931080156395 0.28014740045371106
Ni 8.19755246139434 6.991062847124292 9.017775038439474 -1.1382361112520138 1.034173796122761 1.0858018047116977
Ni 4.588747424193014 0.34559932441368973 10.453974032158687 -0.5970880584763717 0.31821463963907776 -0.723197068993019
Ni 8.028221693651616 7.096500999535673 4.60172081883386 -0.02987724717540661 0.1539892818666832 0.8763795386876907
Ni 7.132146258385452 6.22164491350127 6.900811144781712 -0.25852108043318706 -0.964342634262236 -0.039504485852525514
Ni 2.410976381801384 5.249082385213485 2.449845141280631 -0.7823445258874526 -0.009204806427719632 1.1052205755579416
Ni 2.5092060903198337 5.178856443708377 11.16011644376986 -1.5727905978361172 0.0712691798586321 1.1905436624064785
Ni 1.0833325835035752 3.141925223109687 3.6858523859998584 0.3280668498428092 0.8364415648421724 0.22474552664463873
Ni 3.4981793313000376 2.7489161707143244 2.9822315764763863 0.10375686807369226 -0.06865513927455272 -0.24104297825308163
Ni 1.1601715279792948 3.3352721080526417 8.166766361343976 -1.0186427903666972 0.2298550799570622 -0.4447471108463889
Ni 3.587450360487222 2.7208492508758875 7.041107852278837 0.5012730709575755 -0.48797892495183054 0.09778008166496709
Ni 4.177144375723393 6.749467203809122 5.9311626682804315 0.4044525249924002 1.0770698241553385 0.29066732614842844
Ni 0.8665704353820026 7.593901671812279 11.502135905183906 -0.1938015287676146 -0.7713538312039038 -0.5062137027923024
P 0.017616029468508904 5.387116417205796 7.948973919990148 1.0610737058373985 -0.15754151799431576 0.414537420032228
P 8.394968192639814 1.5327912397012833 7.909611666291949 -0.0654137495191196 0.2679953384722094 0.3569891893041142
P 1.7905991154014322 3.171823574875864 10.418862865772564 0.4033664910170731 0.1892221369270483 0.13117408374438053
P 4.059544793565238 6.235249836393061 3.7011696526349263 -0.22240633698850082 -1.2442871746765216 0.3802003373132549
P 6.875430024376223 3.861686992544102 10.372476213557421 0.6982447699230556 0.7032491651161824 0.5389685286258202
P 6.446640385648736 7.857140690470557 10.216519409803286 -0.7991718818574366 -0.5573159207847563 -1.009622846256274
P 2.451267884211689 8.342001016049823 5.861971530923658 -0.07622909496706871 -0.007600438055077234 -0.13562132088245674
P 6.993552872799447 4.085717128650838 1.7264574975025735 -0.2385816611967827 -0.585945668706307 -1.1575175851894453
Ni 5.467654312865624 3.133534919204272 0.26351328235583094 0.1855896823807836 -0.6163597622217901 0.24412753071567633
Ni 1.4398212593299917 0.927606738652642 7.206070248891452 0.05081399732807378 0.4433867401637525 -1.44375078682592
Ni 6.777037922878959 0.8964678849649647 9.2896659941357 0.3212595971129887 -0.564589314517718 -1.057844143156507
Ni 2.6832913636089604 1.6334387992376376 9.164065851221286 0.8732921580116186 -0.5511517009555733 0.4035061019187308
Ni 6.199045223949587 2.0928034271430294 2.5550703784531223 0.8895518144035907 0.5129854742984973 -0.24121395661330713
Ni 4.011945607108282 6.872714452897159 10.362731732645337 0.29976337491242566 1.0400441388606088 -0.3639653635116312
Ni 8.06863950171211 7.203788627539109 0.29987758122847197 0.7185181754601109 -0.18271930281152401 -0.6642403879531529
Ni 7.56133285772782 3.655853891896745 8.224350911631593 0.16905517506087014 -0.04208047410981785 -0.09302919724354301
Ni 3.022079204744598 8.262509652920134 12.519360111378537 1.2393367726497817 0.5693828792516195 -0.5007907320045182
Ni 0.036665628066663444 4.744004133771816 10.131126866260121 -0.0603785010880573 0.36745280783959944 0.4763138299090764
Ni 8.70386670384143 2.3146322362036136 5.91732407993579 0.264543375367867 0.3592957259501038 -0.8571194049064981
Ni 3.7984168836315484 2.770532480560963 11.447469917598873 -1.8977582399283122 -2.017779135269351 0.4590036207654031
Ni 1.1863438630648957 3.3218746873004465 12.596170185991356 0.034665669702985465 0.004755769517430519 -0.5287962160785087
Ni 3.1828302101066237 8.303983015342922 7.917507573795195 -1.417192062500785 -0.07666695383543572 0.9428376703109247
Ni 5.829195214699601 7.7786687943745365 3.5909264724170673 -1.1434847612454628 0.0834945182802304 0.17670317852443118
Ni 3.176650255079517 8.267453616941818 3.5580870033679166 0.7625480599868159 0.08691691369821805 0.8088176324773168
Ni 3.245757489397236 4.268517491803009 9.094822387238004 0.668667827596887 0.12933188832931922 -0.2616560265177429
Ni 7.206035063746043 6.130614627043595 11.41371924350193 0.43478408609640606 -0.08055394759466772 -1.1959861735782888
Ni 0.517181039279426 0.09477164025291687 0.4738582012645844 0.044358214400401025 -0.8014768758415294 -0.17894775158423373
Ni 4.58746632402681 0.39169366926696525 1.6376447773889327 0.1636118925581118 -0.5374513206503453 0.3786538187617414
Ni 6.080696829722454 5.5976769579030865 0.1869476993944489 -0.5484795534400491 0.529230732512766 1.0961458669501831
Ni 7.812058595185225 8.850543651039535 11.514957733044525 1.1231709893887751 0.050844593455693074 0.0008710897510436611
Ni 0.17741793808768566 4.891853919150248 5.7999635763297785 -0.38976406974229005 -0.9361587156288522 0.40989426483326186
Ni 7.905064662885143 8.845554577857067 2.7534532501057574 0.4672527481480727 -0.33501088526081013 -0.7875844341301532
P 8.578336931217834 1.5760238593945615 3.6630352702932076 -0.3002441712035861 0.9284824300305171 0.5942791282726669
P 1.9466768117064632 3.303118298247374 1.5317988381640837 -0.18548298159959023 -0.3027633380810141 -0.22005712003003391
P 4.784809880615033 1.1503467527610187 8.11579752057662 -0.4159394425860772 -0.12677209802194295 1.0358362714268485
P 8.46896525998628 1.6626154044313066 12.5836000672479 0.11400014306825529 0.47195221050627106 -1.1775246244389914
P 6.476935698029793 7.809180630727346 1.5203104370961744 -1.6169516086240476 0.321044395778389 -1.1331232155054807
P 1.8444053223819643 3.165400030380536 5.977535787747338 -0.8243311547318836 -0.1465881043066056 -0.6784935554380573
P 6.9701141528572235 4.058588479356664 6.082087996240965 -0.247865914712186 -0.020959375860486483 -0.8915619028550837
P 2.3550771097605763 8.64896885516998 10.062200068585529 0.26655654914315385 -1.0469154120591453 0.3866165252522438
