# total energy = -381171.3604147215 ev
CRYSTAL
PRIMVEC
9.23629634181592 0.00000000000000 0.00000000000000
0.00000000000000 9.23629634181592 0.00000000000000
0.00000000000000 0.00000000000000 13.51825331538450
PRIMCOORD
 96 1
Ni 5.192119163131392 4.702780199090746 6.663903540406828 -0.08542567386467224 -0.6547558455014854 0.18993201850987934
Ni 3.8287495051087452 2.908851365006967 8.22026006234512 -0.801898022539348 -0.25602633903579136 0.11162752907102065
Ni 6.151179198430082 2.43948127299833 11.63014538943479 -0.5171491187578836 -1.3519973709710071 -0.43279250958767396
Ni 2.5136025486953137 3.031731047483312 0.45052250631551966 1.7419882120121226 -2.0385454212824246 1.053069090365367
Ni 1.6653595932486376 7.36183593777685 12.637349617826382 -0.1706708562874222 0.42750272194364436 0.897214730265487
Ni 3.429288937804217 7.346882374492936 7.6950223864974365 -1.2747863717066432 1.016608790655804 1.8060680732111671
Ni 0.1555955666690286 5.660260827767107 8.842829825830785 -1.063188438187556 -1.6898338986060706 0.973922307530871
Ni 2.4742189823935146 8.303356246901263 10.726895672939717 0.9851991659962711 -0.8459641596206269 -0.5159700108481178
Ni 5.573291864282647 0.6455949258763212 13.109312338132606 -0.5348856168056982 -0.6339990725701081 0.5667161310527337
Ni 8.141905792174375 6.250220000834911 12.568041375994282 0.19762013118275643 0.23943783854949088 1.3541378143527776
Ni 6.535446058753733 7.667400319569163 1.1555363718571163 0.19057942228589114 0.06784318489621864 -0.9624083933540005
Ni 3.212854812769025 6.016283094809591 11.705563441095372 0.9014477945102282 -0.39292446974814266 -1.1530909168766594
Ni 0.7606717854606024 3.4145293367370795 2.0563421644207973 -0.3651892086164033 -0.6643537736025655 0.5706100667905012
Ni 1.0397667900700593 7.77144719442605 8.968441604674878 0.20007527759146834 0.5353170479161619 -0.10174960783567637
Ni 8.592757110628812 0.21174947568522187 8.655858561524042 0.8758010404764014 0.5397421735670511 -0.18672585286775584
Ni 2.8752312474322603 5.149632201361159 7.351266844221703 -0.3354117202436546 -1.4471531276392497 -0.5859533820157908
Ni 2.0416370575002776 5.09391886366593 0.02979629101538554 -0.24374777877875442 1.340158212244234 -0.022874076384696088
Ni 0.6942692823617459 0.6698522101583134 10.758095880952729 -0.07567373668423097 -0.5924050511784056 -0.28931184056179854
Ni 7.60451037985318 7.069303969692756 3.1706523289167317 0.2111248505374106 -0.5556524170394043 -1.9140672615009808
Ni 5.6965687074885825 6.055417281118391 11.388357631778014 0.2635684130491074 -0.6609843429097003 0.42152902085871274
Ni 5.363978923491987 7.502578616788768 9.718434384657492 -1.4455078787263427 -0.38899222457327204 -0.25128573902701234
Ni 4.598871868674414 0.29442171425326674 10.562513617850685 -0.6094067279427247 1.353954237587062 1.103479424497119
Ni 0.5634648578856486 7.6229922082232315 4.051528965521362 0.21980309503769888 0.6814184423943361 0.004951944688636633
Ni 0.2286158758784009 3.117767145068035 4.7211142467242055 -0.6111807891240119 1.3551253750770276 -0.20936467331319425
P 8.41499535710057 5.223042282263292 5.658699893736853 1.6548710093776402 -1.067981231590509 0.8410831773792419
Ni 4.570183933183469 0.8261432699189287 3.6857106829020285 -0.2200920870330274 0.12662503092111743 -0.23296431501000525
P 6.985022768355064 2.0512428053787652 9.634107001839615 1.7139698724223256 -1.0283546183378225 0.8168129919779675
Ni 2.2731263450757915 0.08415928223000307 4.6785182966607355 1.3914182959707908 -0.6209165283545371 -0.6985358188009131
P 4.509067362306592 9.239990555422098 7.197726353420909 0.9201170887849572 1.191856210570315 1.7676478215617557
P 6.622174878541232 5.894751911554649 8.982324681248102 0.06567497360030625 -0.9046382764230678 -1.4372716068594797
P 8.775552645497223 6.153626816879888 1.3766579171310895 -0.670245199386336 -0.10992057368224294 -0.09551468266955809
Ni 7.216096422608912 3.942272819699602 7.478810856196737 1.0050244282523144 1.4422376926155032 0.385921041847116
Ni 6.735864446460755 9.324502664160715 6.472769477476206 0.1616300862413926 -0.989329900335193 -0.6850478116168073
Ni 2.9070779961678612 0.3720019828161096 8.626497300052 -0.39087067254290747 0.8237732253458846 0.2718183117627254
Ni 0.39980508114670893 3.7183665311704712 7.056771239600141 1.6243890387386992 2.1269414906293305 -2.177943435598494
Ni 5.305688659202435 5.534453239447031 0.40453683560646775 -0.19776411295978844 0.6541868603718927 -2.26504315473148
Ni 7.774458226934114 4.585109787579273 10.403066515734224 -0.12183018063563535 0.38170648954513614 0.0956910603464223
Ni 7.062413692849148 6.72976849107633 5.202891455199354 -1.387507905172791 1.8090783207924008 1.9230231851426882
Ni 1.9324640383428515 0.4716634643146257 1.762807134587083 -1.682550734681096 1.04739260880588 1.2509311623556005
Ni 8.276275426920758 1.8333862907538743 6.795017380800164 1.3061373752140988 -0.8334647416020355 -0.5366074845928114
Ni 8.000765952432866 7.105556431638009 7.356822476287963 -0.06075851013529536 0.4254543240550479 1.032414647339809
Ni 6.929124704739096 4.739466766949739 4.108886363911177 0.82449210578978 -0.623705403953584 -0.004454179116611684
Ni 1.1943731494335246 8.846219546476368 6.779674045823488 -0.48790693406331453 0.47581426456483855 0.6191236981201724
Ni 2.585128425205898 2.1644982673845488 3.5217350248386228 -0.05833293141293825 1.2802918749059047 -0.4739838962243192
Ni 3.7148013209001864 6.768136064814058 1.4785721312330316 0.42058979687389497 0.1377144559660596 0.2621985292847742
Ni 6.128042276857379 1.0000507171109279 1.9522925186750988 1.019874091670637 -0.5056364901325937 -1.572726320257085
Ni 0.9189883649421334 6.265838577433491 6.875261397140081 -1.1505223848185346 0.09999868658284068 -1.2509974968171618
Ni 2.0336846066124146 3.991317551656111 9.494693425827423 0.15313027630049758 -0.9591616042819286 -0.9323920494975685
Ni 0.4960214242234213 5.358658816974671 3.3252873207979112 -1.550662141368194 0.07754498556501484 -0.4521968822562148
Ni 7.319312030822469 4.371354188394813 1.6471991879806738 0.6335786972032379 0.9807953805016205 -0.6424536310953646
Ni 5.396084288516625 5.261520691553465 2.523222151017857 -0.8406147223832556 0.451907376040254 0.16118451406354173
Ni 0.3989017713942896 1.034354320592373 3.7532076870812703 -0.29657777809559244 -0.060693204114998706 0.1677554824128401
Ni 7.530259796011678 2.6270981543980594 3.2251039885733044 0.7078982338524196 -0.6526778799265339 -1.5151570064830486
Ni 4.810863335315806 3.360016717526662 3.8431045564094624 -0.09696684173505235 0.07817387739826537 0.10648583696908114
Ni 0.6836272220679062 1.73673768902263 13.224609021562568 1.0648426859615274 -0.08497470237018268 0.5202007611000139
Ni 2.6932669792071797 0.8844510831709521 12.167468758646898 0.11530549214324012 1.74706562653503 -1.1159688152133815
P 4.079284035112568 1.363305003950388 1.6438057728166773 -1.1253286591617264 1.0039098550318968 -0.46876455680690887
Ni 2.4894403982625026 7.178246081449257 5.638057695723746 1.011414133828742 0.1309722521462196 -1.3394185058647319
P 2.2346664083776933 6.042671192587321 9.59240327797332 0.7303128541021939 1.6030586526920392 0.19510327829817367
Ni 2.035559574707927 2.0401038323581346 5.9708636090476075 -0.4909076685628513 0.5943773444134279 1.1257608616031387
P 9.021034921568804 1.592198892339503 1.7469641159948044 -0.7416277648943808 0.47293257214166945 -0.7746337875067563
P 9.1352417220664 8.079320650227613 11.839975562803524 -0.6348853318298034 0.7023721618278678 -1.3946254900541788
P 1.110138129576018 1.690168284404039 8.132675961544594 0.4413547973353883 -0.9070366014519153 -0.7885997627685452
Ni 2.035513393227742 4.972886440396987 5.011486768794849 -0.8162542912610201 -0.20678945638685034 -0.4342336129095748
Ni 1.769591194026265 3.4273585519324823 11.691774574741723 0.6908631327470037 -1.650789640219415 1.0151638306791613
Ni 5.670337626743482 3.7153832075505178 9.643786640086399 -0.21723559142083876 -0.21544096141426125 0.14867584007356976
Ni 3.3540408339907186 8.954117956780687 0.3729062161981326 1.990523384877191 -2.3386425253851852 -0.9119317247606875
Ni 5.573541244275646 7.00543498259685 7.105247939350373 1.4938950117804788 -0.461580894574276 1.3095656841693577
Ni 7.531155716727268 2.2048978262504186 13.690070313088343 -0.41315288097987557 0.5671922993582038 0.37210161946552045
Ni 4.401021171265681 5.408664123719029 9.079724193847156 -1.0684458299317534 0.8361767412165598 -0.04156136838155423
Ni 0.7071252828156563 5.349533356490108 11.224313625123935 0.0652589691088102 0.8772742825878181 0.15621637142498904
Ni 8.818362877628752 8.80463774171776 1.965013669206869 -0.4987117379883023 -1.9671584848990056 0.5852108474228115
Ni 5.969778344263259 1.9866533871919734 7.735184572555156 -0.5821712892655393 0.06094928598986277 -0.6193162737469528
Ni 6.380414829772566 -0.001971025574297357 8.99163856217182 -0.024821429919054026 1.0102720498044988 -0.9307465434743455
Ni 6.704590348079448 4.401898619389196 12.53248810165903 1.076764377099778 -1.3883681962905574 1.28756835396266
Ni 6.959401283148406 9.609811848743872 3.906315919227533 1.0426846618072494 -0.7904339877638065 1.593762572102094
Ni 4.281078630929104 3.897532201696339 12.36918761683593 -0.47292691571471457 -0.2989617049467367 -0.8671870735551452
Ni 4.676068830951721 8.2529999609075 5.43737884446848 -0.20565739966493612 0.16900555276985732 -1.943867118471233
Ni 6.7066130969115525 2.7172166948311394 5.290868098581452 -0.5562288583681646 -0.58212475229832 1.330908668621508
Ni 1.4848823686855148 7.119835745311223 1.3329000410261636 -1.1624271066759206 0.3551976446213302 1.9295203628312576
Ni 6.951809047805986 9.23106829345035 11.378569928867599 0.6103626640980907 -0.15530568668526157 -1.1400615944965269
Ni 4.765245269189026 5.912384000689296 4.575672140288659 -1.0833317459046505 0.04668223454788734 0.9094927763018916
Ni 4.4335514059080205 1.752005286371803 5.735348220029562 0.17536954731467216 -0.11713637470439182 1.0241236109756104
Ni 5.473170415241487 3.056225704573455 0.8165190494483672 -1.4963481013066617 -0.08283425898841218 0.26187405606582
Ni -0.20150180523216227 3.109583786779247 8.997195117867685 -1.3222715617718002 -1.3435554108512409 2.837504930018739
Ni 2.621778047880743 4.610010841695044 2.424065894912565 1.6113581736966698 0.9709341714368246 0.5120195108408021
Ni -0.18560429249326532 3.9774353987124886 13.5347453698932 0.4782506419204731 1.4543185350394372 -1.2141412472207607
Ni 8.334454855657867 9.368836885138352 13.303772391266154 -0.8046617013274142 -1.4691502007356312 -0.12915011133581628
P 4.704054807943853 7.567823811994187 12.503775228168786 -0.2855060936624631 1.0243856063877455 0.7393636514505525
Ni 5.17558619322515 7.967700012620381 3.1368160820147586 0.5856847017354365 -0.9791115650412944 -0.6981406402450234
P 8.802827427694508 9.162156288718238 5.405070280931029 -1.3307793421324952 -0.10934464657411491 0.36656217770453
Ni 7.854102807661229 7.105002253875789 10.300260075435107 0.49626713310255177 0.8763790244670584 -0.43980185102597164
P 3.5465437159940247 3.774569392555661 5.631663407977325 0.8066769319852299 -1.1612397712360387 0.2392519477909299
P 3.115688978459708 7.231678054023344 3.5636687324762395 -0.2542103688729751 -0.005095155134720257 -0.07269588500282964
P 3.513948827279426 2.412788377451379 10.549333423405875 0.5658740947674126 0.22151673529469593 0.24591470452308614
Ni 8.70356495418479 2.493633676663304 11.453339592546378 -1.507849674188358 0.9515678510950708 -0.5374852592120742
