# total energy = -340864.39252613415 ev
CRYSTAL
PRIMVEC
9.31956019439566 0.00000000000000 0.00000000000000

0.00000000000000 9.31956019439566 0.00000000000000

0.00000000000000 0.00000000000000 13.64011838007895

PRIMCOORD
 96 1
Ni 3.5891116512573307 7.007889705234802 11.747170188439124 -0.30175315164894484 0.467631214533414 1.172093683231407
Ni 8.024942602578365 5.185412477983855 1.556910774624808 2.5775507166834513 -2.135935723708141 0.3469911975511379
Ni 2.6616663228717936 7.7082266771005115 5.420624191883713 0.6238270171331128 -0.10111943045084522 -1.1122350592025618
Ni 1.0873410185168793 4.187846780504174 1.0384030772422572 0.57632228668393 -1.22231401283954 0.29966798698514197
Ni 6.58453005520295 2.0655593095319875 10.638978518437087 -1.5852301091510506 0.04455773200571681 1.1064241089477398
Ni 3.2562262892592297 7.117552967213907 2.515210370150162 1.4301938740770916 0.7100116806509966 0.9608744732079774
Ni 6.5708023433906595 6.731452917878278 1.3846219336665928 -1.3068642260777945 2.8380970550767834 -0.14457158809720907
Ni 8.483129448158438 0.1417700779767437 7.405642932336953 0.4182860884413829 1.937429333265689 -1.7759424574703802
Ni 1.6685646946100947 3.3143617042524864 10.11367033815608 -0.8618841732849931 0.09482459858106895 1.2197974170652734
Ni 8.836499202935503 1.889177317841961 11.575413494354283 0.33719400895505797 -1.7371134004183246 -0.5860125173885006
Ni 8.640611372261686 8.017123491776932 1.0618669333385258 -0.5877300143002394 1.363342620780497 -0.7134232774357068
Ni 1.9362690542896894 8.600742294778334 1.5217322316663202 -1.0290745272229826 1.1596323175396028 -0.18357496594359998
Ni 6.864750583900811 4.844139512027123 8.76268456027558 -0.8129838480398645 0.21313493898890387 1.1648100050858003
Ni 1.335483621852959 0.3915874062365632 13.14316757698561 -1.0539404372267267 -0.1385994296741742 -0.43815120279642605
Ni 4.4082170951772355 2.797797135120352 2.4155963896694903 -0.4802527599521664 -0.28694591143278325 -1.761960027148359
Ni 6.8018155955312265 1.5502062831938768 6.73973241494144 -0.2783987931937205 0.24143275749233256 -1.0228578568893094
Ni 8.540370185396108 4.004614912247933 7.4244255734683104 0.13035724427004003 0.5706512044410817 -0.5632461702262622
Ni 8.949508186938106 0.3589232805536733 2.75653105559989 0.9285487644920782 0.20877280536546627 -2.296644326576528
Ni 0.9763077812245315 6.226696231207902 2.101069628824839 -0.47509795522410436 1.3897851312427418 0.7481539960486727
Ni 4.324396972950663 0.9309513468402443 4.31831130030068 0.8460348649575623 -0.5213384742488828 1.6280924557322154
Ni 1.38332092309701 0.926356803782906 10.760484145249782 0.301457474785397 -0.8640421001682603 -0.7229872669750581
Ni 8.133711186801882 3.6426525231932496 5.0477029322790825 -0.6009999919362682 -0.2593358630249985 -0.3951497595342356
Ni 9.039935877172088 5.9064575120674245 9.041093366518378 0.8247584720772894 -0.6628789888292519 -0.26257133924316073
Ni 6.615135490091994 0.8548152017957726 13.09336757641524 1.0208912200812417 -0.8617525328031351 -0.40661148031693195
P 8.177252170907124 7.5601109107510664 3.038814002915578 -1.1875719813726644 -1.5118022310782029 1.1154707925310403
P 1.3308890787956207 7.949798990668998 7.871698282386216 0.15074634944935328 -0.8337218519181642 0.13806978242294932
P 6.3145610424545255 9.090009872805107 1.3643528227225667 -0.008058865748734509 -0.5944647619209116 -0.604494892463404
P 7.107664914102678 5.686264269033489 13.04426281501744 0.006486636165608184 0.6159396439652359 0.9747291197028827
P 7.180665027222617 7.000667046270426 9.409771430475937 -0.7435550638240808 0.4058049252552366 0.9801186661495701
P 8.687199852471895 1.5577737658765516 5.561376573913477 0.13741029446207947 0.02128616307228592 -0.545558523138512
P 2.889706635387024 6.0290097254629575 0.5354143110951619 -0.6700464531119686 1.8150422516853193 0.11473882100649273
P 2.4975675112011824 0.20935179893940864 3.704028349182524 0.4932391449095054 -3.251218311487775 -2.7339352382551882
Ni 6.777053524733361 7.897488300647011 12.532417671046028 0.25059642626947165 -0.19554036583559226 0.05966553418143273
Ni 1.9156635072313228 1.88201057623731 2.1880658570837452 1.4580425208582437 -0.39504331586335834 0.005778811465306176
Ni 4.36365095947705 9.085909266425332 7.505297918881422 1.4654141307319664 1.1236325024062261 -0.6175370703593429
Ni 8.750488984119734 6.525658394973324 11.384520015859835 -0.5860107176162875 1.2049629231556023 -0.41331434625840424
Ni 8.229851767287686 2.2534136795254285 9.15984413140866 0.9797553692728804 0.15218488166809277 -0.787455878972089
Ni 3.5800530389820104 4.576248761148448 12.813213216593052 1.4394855837916627 -1.443585207782333 0.30224886033844073
Ni 0.7459515580607236 6.8767355380016975 13.440331065679903 2.054918206213493 0.024713186475963888 -0.7986622892108697
Ni 0.6121487718886826 2.1278046504649732 7.479804262627165 0.6025675935337041 -0.4013864844725668 -0.6892358815562258
Ni 0.7882409252641386 8.090132924456825 3.8566072527939546 1.6174833127578017 -0.500320477236319 -0.21762177111566391
Ni 5.481364423884123 6.5062271124691655 6.374654496994125 -1.1562718857078023 -0.6634191776034382 -1.2747809723900045
Ni 2.1524921647832063 0.23819770090913123 6.66536605433224 -0.2736671920460061 0.4454827034608328 1.2382499673435061
Ni 9.288945199583893 1.7985632364088993 0.7917171211269929 -1.183862136621245 0.5264572835326868 -0.6763351143341578
Ni 3.832314887817773 5.344674438038322 10.138535856069433 -0.07124861103334182 0.7870889825509735 0.4351941770506312
Ni 1.4166849477324477 1.4409158036129333 4.794446686396225 -1.1941786880559047 2.250193748423473 1.2038082407258686
Ni 5.299101789863101 2.524118937510222 0.07687984592880351 -1.552323845341333 0.9176585999421357 0.6759599903829262
Ni 8.985230060241914 5.976838828840281 4.535802802903941 -0.23788720623291934 0.0648002843048368 -0.41380645540347444
Ni 7.5662897790005905 3.0896577942007997 12.824643656876672 -2.550824870652833 1.0013693479982304 0.6306155008098558
Ni 3.89733745761706 2.0133045368697253 6.385961919086352 0.2732157063308843 0.7479925307701442 0.8455322142895308
Ni 5.1979006883222585 7.884748462189848 4.107216743649867 0.2676248425066681 0.536946870210101 -0.463264452924286
Ni 4.5819150536005 7.638376575245035 0.22511769851364608 0.3637954135926702 -1.4079489466359623 0.863713513184248
Ni 5.775051716715561 4.526165445955476 1.5483712618389276 -0.8874334825090071 -0.18375365761330936 -0.10231627897242378
Ni 3.4987119197032115 7.086956851884817 7.541566850354532 -1.4370340369273769 -1.8700144941561407 1.7609369852004833
Ni 1.69616923119394 5.1409395378832095 11.790013137503808 -0.2558041957226562 2.151351286932263 -1.7132872445330043
Ni 1.3296775360015967 3.0400031787657125 12.551773465114557 1.2617488217963948 -1.7926083481618356 0.6436476514034657
P 1.8818987415178614 5.464896761445346 9.474384871593243 -1.5993567783604197 0.42216948265618903 -0.6596391417357155
P 2.278809480400168 1.6172418779432354 8.853404884692118 0.2671659005923786 -0.4101752864087904 -0.4040390916040654
P 5.069551708635317 3.2906807024092894 11.693277969092938 0.6980295685884559 1.0147969342580458 -0.17585600003278745
P 5.216455932190738 2.885093453209778 4.422085532344831 1.7665476465190415 0.43798176709809733 1.3620832944520995
P 0.6774071265548071 4.4044240342759435 3.345730411101766 0.014158293778253034 0.6385105872872165 -0.6215387353195683
P 8.531330212240697 3.916246844763793 10.745139489785466 0.39461291319415914 0.15860724025466877 -0.43055127896198103
P 9.009572750841848 8.969247014920748 11.850684404760559 -0.061725244923938855 -1.2205687480136593 -0.1017300674516506
P 6.036884753624116 8.847142140403008 5.868933235868506 -0.6124951370600613 -0.9477595330925743 0.8298621118524417
Ni 6.355352756373327 1.5033475357449997 2.990800561988396 0.8789624689235185 0.20929962440321373 -0.9409278548827215
Ni 3.1924432209338285 3.378107494338072 4.256507706509515 -1.7496570414112902 -0.6439988640952974 1.0416708758307545
Ni 6.595489857708892 5.726972106912705 3.772187882862339 -0.4977102933069815 0.1929083275293839 0.1571908195231164
Ni 3.38274863519518 4.831334436650282 6.2490016660018854 4.330749966920044 0.5610980135350079 -0.3158160574999142
Ni 7.555907789211798 9.319932736431051 4.362382567367305 -1.0397296929439834 -0.958110280199279 2.4508989462894566
Ni 4.870560464496807 7.599001434439247 9.789976858140639 1.7246427787551393 -0.777858465091641 -0.45109567877223605
Ni 1.4036841615965718 5.590925170703733 6.9955254450437865 -1.9566251894678495 1.5280696007796586 0.7787820053471749
Ni 3.575616928443891 0.18336420600758793 13.338016276724552 0.4055714690881918 1.3699169315639053 -0.017244388902744497
Ni 2.5211646370047935 3.7127169749276687 7.992713700345329 0.346253548054165 -0.9434665621441751 1.4950538079752702
Ni 3.640592900443408 0.11879177095408022 9.955471739892365 -0.4349992874310057 1.1901603109251309 -1.0436182293651122
Ni 5.8401954407942505 3.8430696600047267 6.707255612413627 0.46753274128233674 -0.3577180970503388 -1.3737193360291309
Ni 8.893246003495609 8.459765311353678 9.22421153614318 0.9111778773137985 -1.2280118345552657 2.9228413866037144
Ni 9.220082971083544 2.516150713749524 3.0954881109080428 -1.6784418547190452 0.9523345540577662 0.3680896700926499
Ni 7.416123709461258 7.346534555284495 7.182844872295866 0.31034577841396227 0.38388781346717116 1.0370068946961817
Ni 6.677632459143738 9.488337184800427 9.162039819733831 0.2663783716940767 -1.7492976011893422 0.6695106352131567
Ni 0.0869897045669384 7.866435526880173 6.0506339004243 1.1871588050946458 -0.6193219301739077 0.155302601361468
Ni 5.90087509565496 5.910623355366877 11.294535936679665 0.06751382658125792 -0.3754180854332631 -0.43493321007976066
Ni 3.5015450659292373 1.7383681986658008 11.580214931642603 0.1270927145861553 1.263732684995643 0.7693733104387653
Ni 2.0734995746128235 5.495073496576505 4.611001400217036 -1.4618886340772115 0.8665612670456881 -1.5139537302035668
Ni 1.9525037277296147 7.859902515352397 10.202685183101028 -1.004948066488424 -1.3805813532562867 -0.5673020854631908
Ni 3.0202084334233468 4.889367336484045 2.397933027688612 0.8433722305237347 -1.5868452761569705 0.024509555105590046
Ni 9.055974839852977 4.762994103507359 12.914340693610258 -0.47997070993537333 0.34341427883315695 -0.17200320194560054
Ni 4.531393719089688 3.325116476439441 9.569770567722768 0.9327437764100323 -2.6359870064434734 -0.9295401818710702
Ni 4.284238989108736 0.15304767747711895 2.177740716610672 -0.2673137390241525 -0.5994071935278515 -1.2299941550926172
P 3.014626017010881 2.5104005452578857 0.39168246574809434 0.04356554329577658 -0.2133102882245036 -0.24760006264530907
P 5.406845222491675 1.483627346882266 8.282074853446105 -1.9448703629247668 2.4866095123171887 0.7855771738921373
P 4.709546427170981 4.990801427023739 8.106718013351022 -1.1100413939853528 1.0781332324228463 -0.4086102559145156
P 7.323897344156149 2.9623805639085727 1.3612960070576439 0.14932041563610413 -0.3167449970720867 0.6857386670362448
P 5.423844099847831 9.414992247962187 11.29116691575628 0.20083786678910573 -0.35417588822503515 0.2718008282612287
P 4.25822809727703 5.93463986136842 4.253070652798468 -0.1274675814270708 -0.2698403621007482 0.18864158183322996
P 7.437092719357832 5.471150186174503 6.01369582454649 -0.06621336260227952 -0.10105669553370983 0.03881285910213961
P 1.6549767761971146 3.481042034030365 6.010572840005893 0.2917567025578653 0.39545392103821575 -0.19087278515659384
