# total energy = -340860.74378772674 ev
CRYSTAL
PRIMVEC
9.31014971069036 0.00000000000000 0.00000000000000

0.00000000000000 9.31014971069036 0.00000000000000

0.00000000000000 0.00000000000000 13.62634518595324

PRIMCOORD
 96 1
Ni 1.875650668005911 0.9978339032222766 7.098767485188887 1.4541748103727214 -0.31408004864541395 0.07837133812105211
Ni 4.378572665024585 3.9882353330737264 -0.017315947233110765 -0.790295148193097 0.35426073462935764 0.2451287182866811
Ni 2.371481305026063 5.125302523500245 9.81441615930559 0.2332281101943532 -0.7378587847702518 -0.17715569268081746
Ni 7.726865555485751 1.8577844909316923 4.480300945597362 1.4476146406567003 -2.1077173522923953 3.4289419608569203
Ni 0.41112317193830045 6.102877541202199 10.891619087831522 1.1937716824254732 -0.6117693146376303 2.463426389332506
Ni 6.803978356509155 4.038975648370492 5.044977345833107 -0.025115821231021265 1.5984391516421566 0.7371702433436594
Ni 8.253075210636792 7.588293288902805 9.941359118028501 0.09036656280971533 0.9843594437037949 1.2082379943624482
Ni 1.3741687701811474 4.803841678258648 7.82708186776418 -0.06579427278698992 0.0629658021992593 -0.4561394118437306
Ni 3.9404928859467883 9.390216882260077 1.9587465461927402 0.7949303329722631 -0.11860704571264734 -0.04215246499833386
Ni 4.437738665705492 6.418249548608187 10.222688563437675 0.3459673842723138 0.41605051424264483 -0.44241794849258004
Ni 6.170450606968056 4.042401783421723 9.516707367712636 -2.3207736155245646 1.4902540725937818 0.09664391117799485
Ni 9.349997036006494 6.4206329469046945 3.9000374929084334 -1.0538031403179142 0.3401183816907046 0.02246912763679356
Ni 0.887498389348241 1.7985346989044235 10.198583655119354 0.5427375087499492 -0.32742073161837804 0.5389962965399621
Ni 8.457470234861596 7.114313572983847 1.3608552562592435 -1.4488089180751178 0.8325311740441727 0.17618073036205786
Ni 0.11221709510733409 2.479749034674885 6.7469620693699035 -0.9316158334531761 1.5280176644958006 1.2549559672442774
Ni 1.6424034901839186 9.459298192260443 2.5367485635448643 -0.6290219310704909 -3.708638389816142 2.6752243546775407
Ni 6.594881706738503 6.409656280531321 9.022003258793568 -1.8942525407678987 0.9370953685105087 -2.3534621068965214
Ni 4.376719945255034 4.284204988722197 7.590092009804701 0.4968872831850539 -0.27808151906361783 -0.48700293419180646
Ni 0.09047044768161219 1.276849776456911 13.062541150266224 0.10953902197310812 -0.39086141657152684 0.8152155655838605
Ni 8.861037289387996 1.8485488225327213 2.4885657463420476 -0.23346927967088177 -0.2569020567725253 -1.1195025393982527
Ni 1.3042495467171642 6.98664349157751 2.1127922814038005 1.8262034105084615 0.5980694485530345 0.5916627736957423
Ni 5.365048185740063 2.4622925041828787 4.207706282538908 -3.1355500366884774 0.8739796709969464 -0.6005734459218107
Ni 7.730189278891428 0.8193471632924885 11.341384035666927 0.2024358074038449 -2.178540188642229 -0.2535174565710085
Ni 7.291057452909314 5.778502619137136 13.197374460771522 0.39597842608311806 -0.251408894868438 0.32471953063713105
P 0.37438345960360414 3.565861776363938 9.155882278965302 0.09343388888112941 -0.4345094922787807 -0.23372818975922327
P 6.70270254920673 5.656251044795516 1.90373659629137 1.6916298141642285 0.17075621691237688 -3.1618609066688643
P 6.975359590267477 2.543802863893554 6.69292037502649 0.9971951620158828 -0.5051968314920138 0.45966285161595677
P 6.93755107275919 3.122270388725465 3.1143828299879566 1.5902265339243773 1.1831010900855043 -3.5360669740718973
P 0.9297646064829667 0.7581189644761257 4.58715911859739 -0.754314873443746 0.5555711701795076 -0.34756686754894983
P 7.700015084051646 8.573958826603453 8.12726995219448 -1.5014368286834787 -0.11448942399984799 -0.8425908722730198
P 6.5952541127223325 2.2421260865428962 10.287699476034787 -1.3254059936357239 -1.4504441396856955 1.18098944305914
P 4.118326053374956 2.963374065575026 1.8163506011708255 -1.5618037598073102 -2.4901581489003957 -0.1919189670329211
Ni 7.58033311099845 3.2097764847757944 0.2672003623826849 -0.4721383583751481 0.5568232974190539 0.2901451350963713
Ni 6.573002855188522 7.8992615955500085 6.169204908952147 1.0886081638122413 0.2631333823942178 1.161810041917212
Ni 3.9345716308039 1.6381953025666456 13.570885559358006 -0.5114078453987322 0.44342839203496537 -0.006050319959137967
Ni 5.026838381375734 6.936936602885871 2.11565329037457 -2.469357152994644 0.9062868677700844 0.03257536283286003
Ni 0.9150769144807324 6.181082797806389 5.972645306627115 0.9807015352362335 0.23661579571966346 -0.9472298858413493
Ni 2.3900085027215785 7.343175670346248 8.675825828405207 0.41485238016948556 -0.17276759091545085 -1.6758416980920365
Ni 9.006126660687958 0.33654701164653 6.343921969310622 -1.0576777927819718 -2.1784741112909836 -0.8835704000091751
Ni 8.626272557181897 4.694326388563996 2.483415371585686 -0.2644901535324284 -0.5652462313754266 0.1091081050832766
Ni 5.982180761843068 8.973243212315817 10.163740420257309 0.0027752487522919944 0.5665811481367662 -1.300259062056451
Ni 6.235295798902363 1.325802543031295 13.278886682512116 0.33317280361080687 -0.22976920511147525 -0.5152770985461513
Ni 1.83260984642482 2.825965567691547 12.378962036498447 2.096573162750118 0.4857369229951893 -0.017558320598737503
Ni 3.9775659016370124 8.673968453560859 5.946768676840724 -2.68313615332545 -2.122585013432848 2.703574109464828
Ni 4.970511976321528 4.6489300991351845 2.555961919265586 0.16974063116366897 -0.028033251988132366 1.8993099006861487
Ni 3.0322505522842866 5.593826491756102 11.956681581284613 -1.1524075176563895 -0.7106986794156922 2.682972374054076
Ni 0.5123226360140396 3.376605055381801 0.9028517570465705 -0.16517589461112198 -0.26455468822177663 -1.1258945589675255
Ni 2.952304297705695 5.677804041109647 3.8451364717573338 -1.036297784444299 0.3049904276393199 -0.26366097276291367
Ni 2.247972860489019 0.6415391332682294 11.86654350594357 -0.4482348122846732 -1.3638969506220704 1.1892755943273323
Ni 6.6983267788967344 6.554019460162814 3.7370251526217193 1.123865701462955 0.8440952247326882 2.4541717035034574
Ni 8.168203886922056 2.917084001785023 11.550166933396204 1.647874523455149 3.0810236235058226 0.6883367667807243
Ni 5.38612636442481 1.9493591223553588 8.561950595654872 0.012334867416269078 -0.6535407421474616 -1.4408418407092412
Ni 0.38585728796539004 9.186194264019102 8.594040819281458 1.2373729640551916 -0.6161121649873582 0.7303375366925422
Ni 5.991062644557402 8.405389258023044 0.7168619675575779 1.4621331459878495 0.6312029978822097 1.5559737833890945
Ni 1.2753042916240187 7.803255332918771 13.276666211833533 1.897175885062281 0.6461984428497773 0.656354814557489
Ni 5.6487749946701395 3.6647169447714703 11.925041037883501 2.176945333351283 -0.4841001587227147 -1.4491524174574655
P 7.883034004804639 0.3259623025711369 0.7766079905582993 -0.008480526667185396 -0.34121315741678004 0.21645937537644655
P 1.6288199819237386 8.126820271969006 6.6555978473271 0.1461337903780064 0.11926833344573008 1.123144249915898
P 3.67115956829172 3.7272252891572464 11.113292818691054 -0.7907363494955737 -0.031198279979675305 -0.4789160434186139
P 3.105921766035351 7.826856562143963 4.1250079477398165 0.18155330752788088 0.6235624506178165 -1.5310803625815244
P 4.402546300233607 0.5093554913378784 11.305001833076709 -0.22859215408423858 -0.2769597467543488 0.6878341161126929
P 6.814256761662849 8.92383424841124 4.4408938754034875 0.22135527001616717 0.01828028636642658 -0.296654911190431
P 2.1093819736068817 0.36870333733524513 0.554375650723023 0.4131839913281271 0.6156223698351333 -1.903127731770342
P 9.782825890712296 4.323884846299227 12.483163092803851 -1.9520967054698768 -0.06291489435666583 -2.1518624222407263
Ni 5.677915762904797 0.9169584957140308 5.95715228668485 1.539343116810949 1.200577392493397 3.110216700130011
Ni 4.947376254576121 6.225361869283712 13.097520313312366 -0.6672015274640057 -0.2615066454240722 1.0565994721161287
Ni 4.613002231845236 0.3385086601663517 4.236730673903617 -0.4808127462206946 -0.966164517962323 -4.914070539298679
Ni 1.9231510512433598 2.1729702953457637 2.1881598044112085 2.359752825001239 2.741824154084962 -0.32980825801394814
Ni 2.9099803576434757 0.3785302002335453 9.694027545898077 0.7637855319383426 -0.2699378069105609 -1.4458961153036969
Ni 8.773093616306667 8.786816776810783 3.3196502152298817 -0.4102135958458935 -0.26756673557522304 0.3324762917644145
Ni 1.986162143707306 3.780609686939201 5.807725316688234 0.9974864680040564 1.7896806329920791 -0.4256818666848217
Ni 3.092031022838512 2.802466750111908 8.758918913547157 -1.6829752238130242 -0.5963581222888826 1.6851326364756591
Ni 8.227044032367111 5.017360649087274 9.827619813462263 0.4274253317384897 -1.078984010458916 0.11831393995226078
Ni 0.6792126536073783 5.630033663533922 0.3307114098799222 -0.42254306394552393 1.346122914468101 0.3932998508096904
Ni 4.05297811336248 8.621114734305861 13.129296784897575 -1.7636924364584334 -0.663742879491444 0.27357514655283205
Ni 2.578492481287269 4.598459778176696 1.3038343140451945 0.11764416757874577 0.5329292644102757 1.4804761672714115
Ni 9.159166899742678 4.081132005739987 5.124622882579757 -1.1411756534963122 0.8800107076823749 -0.515064468314713
Ni 2.162217072562688 7.454636781306408 10.96604628572976 1.1831165167044722 1.8170657098732512 -0.10712424188402841
Ni 8.165531873988078 1.7868318408625825 8.947562095670936 -0.3726024703613389 0.33772494175786355 -1.4374474703157116
Ni 5.182839248001899 8.653635086843769 7.990393063852918 -0.01800569254880125 -0.4639568510056203 0.2886762638603287
Ni 8.640489155614588 8.214922217593461 12.39474180904826 -2.8576785767531367 -1.3249956455711827 1.5292155414586437
Ni 8.871343624990477 6.471447743398226 7.694374995426549 -0.92286971182943 1.0653607632485265 1.818564920126597
Ni 6.035118272444428 7.943680319271268 12.22062432232375 1.963117739170729 0.1520612116060349 -2.428197648037199
Ni 3.1770326886475884 6.239289853078934 6.345121116578552 -0.2995610290936324 0.4895221010692344 0.0771598343114542
Ni 6.562929273325936 0.6018211040778569 2.669251543606349 -0.5362426450542248 0.8275758869214264 -2.015675972883419
Ni 2.8898704345166846 1.9450671433917242 4.842884721603329 -0.5742134678710433 -2.190057702363525 -2.47320866553025
Ni 7.431389337765854 4.422227956478995 7.695396318837201 0.9704472044980771 -0.6897459884234249 -1.8682597162485632
Ni 5.940098885670339 5.772823427883736 6.340433456257099 -0.7289128884308737 -0.5567687900320347 -0.12302908603974294
P 4.333390509036474 4.844750475582315 5.215619353713528 1.1515371992362942 -1.8503059599836198 -1.1411766819375766
P 4.608915076172708 6.3479486090107775 7.872034994072235 -0.04226945019217236 2.7052769510885475 3.2755296345396294
P 6.581847497304472 5.9982035292973315 11.104299214181573 -0.5797289983726338 -0.004275487446902314 0.8514241542939336
P 0.48483907440742485 8.876892474149535 10.864012632250244 1.2545862426096845 0.9955820518924918 -1.0342326743851542
P 2.9739783259645702 6.757585881073599 0.6215437249814656 0.9091017115110602 -0.9817623724005802 -0.3786041964707286
P 1.262633178024221 3.7325134541276253 3.5665460723592246 0.7086338264668635 0.6329266654415356 -0.6247107052896467
P 8.04904328224622 6.057062295041579 5.7587799982335275 -0.6298711664446637 -0.5961465204987088 -0.9942101112456296
P 3.529617363987734 2.4504127532987185 6.680043507120626 1.5836097999388081 -0.641636791621024 1.7189925224478975
