# total energy = -381169.0701057401 ev
CRYSTAL
PRIMVEC
9.26080316044882 0.00000000000000 0.00000000000000

0.00000000000000 9.26080316044882 0.00000000000000

0.00000000000000 0.00000000000000 13.55412152164455

PRIMCOORD
 96 1
Ni 7.469523154345274 4.539201255121841 2.315938908992504 0.25138884026377994 -0.4017371829437662 0.7234618926186315
Ni 2.453029358363199 9.30127300226608 -0.07247967696390323 0.48051346981272086 -0.14375937660855886 0.6067237817939228
Ni 2.792558189453416 3.3947141410980746 0.8837880927146962 3.1213439203914244 1.6870434803451266 0.5996205950902382
Ni 0.6614010146241347 7.177002160764642 7.375325967581581 -1.7948840315698897 0.7749538898503363 -0.828019145106432
Ni 7.463207286500212 4.044905879417717 4.818476521754096 0.5796444090786276 -0.2249908098862254 1.1717964637059624
Ni 3.7191849060356934 1.169509804518429 6.251147795176908 -0.7017512404144172 0.9706487789859218 2.082906721006619
Ni 8.53599726143824 8.437156707903998 0.5945352366157695 0.4465114018356633 -1.4518032248167514 0.2384726464227441
Ni 8.769156505917916 2.5983498836193895 1.750284413522793 -0.5826968227517062 -0.10563685870522453 0.35092344272600856
Ni 5.220425945272576 7.894195810901041 7.942552947450253 -0.456606067067504 0.3877172145155904 -1.7083517549046
Ni 1.80644933332739 3.829166205930067 12.337218993435057 -1.0439169915524535 0.892871622805443 -0.7677056929283552
Ni 6.573318176576824 7.917023691015526 12.582481181736894 0.9162426934312156 2.460717475041775 0.9397569745030718
Ni 6.172760651793114 0.7348836365845486 7.127231825633089 -0.38734106212309416 -0.5743571925377593 0.9287372263538006
Ni 0.22957716576637752 4.804514008630928 10.319200126342352 0.31798581145772337 0.2859650355767527 0.7206668463719975
Ni 4.532894648080071 5.75101440907758 8.900151494561896 1.0570329601091215 -1.5222442523471331 -1.0472576258899124
Ni 1.396232790710249 1.198810986133939 6.086749089059115 -0.1716188220229883 1.550110125519466 0.5435767168217929
Ni 2.668518990161968 4.1586192830387185 9.522434876081128 2.160388971654499 -1.7956484205397396 1.6931243964318843
Ni 2.582023087415804 3.1919210706124734 5.411903240215827 0.2310627271119182 -1.2338706073288879 -0.19996857681027497
Ni 7.762849837812299 8.177548609222711 8.37583722498714 -0.4458665691628128 0.8796828920293107 0.7330989014877632
Ni 7.197653752105536 4.0053992925745545 13.469570750825143 -0.12057548229292783 -1.373133895839306 1.1225618950498666
Ni 7.0279217493719495 4.925969443803942 9.300485833986272 -0.05670773710468943 0.36288961394894925 1.2101195276558774
Ni 6.01165971772756 7.46497609992896 10.035309275349421 1.266361895088374 -0.5180824292054304 0.7395374580242554
Ni 7.048304777417378 1.8650424357551185 3.1973627186267826 -0.1502267295004574 0.6213065647041042 0.7021271356965972
Ni 7.102545302297923 8.007075742225773 6.154465934890004 -0.4097153160532363 1.0213429629066797 -1.0731548053716486
Ni 2.6197608608302168 1.0828749897228862 4.13204170367135 0.4304769740806199 -1.0842321462317328 -0.32811750057508654
P 1.4774778179899168 9.220963316118892 2.1087904827187316 -0.8579845811202707 -0.33676926271281354 0.13561566445550194
Ni 5.123317161953916 4.967809753076658 5.861994949647149 0.3149076867530319 0.258047226120562 -0.4324153287539134
P 9.124734309112963 4.960067721524646 12.633092397807347 0.14355445968660435 -0.4033297242418667 0.059646250907723075
Ni 4.792975047729245 9.089737733472946 11.65819837446779 -1.7719567333497548 -0.8301469900827124 -0.27044971354997294
P 9.071975512759119 2.9083367522085073 7.082137270083606 -1.9251106637993363 -1.1343529741475238 -1.0143544474039885
P 2.9605769435780056 2.0674928565189195 12.52465950422338 1.01263360805814 0.2034601349033012 1.537285720061288
P 0.6304856749948499 5.24305008771464 3.540119865744549 -0.5390153227033555 -1.8177496233141532 -2.0592888244773633
Ni 7.209007496941381 5.6403292881330245 11.941398369535143 0.8214810868775981 0.5186329023922617 -2.476534901690006
Ni 4.232464928488174 2.0118261679314253 10.79169649717772 0.36167553903619 0.49110204396184454 -0.7490752223113616
Ni 8.694468127368898 6.520188948091305 2.1213286842956087 0.612386636506655 -0.5540462488945491 0.0294131630547945
Ni 6.674955492705213 3.822081691411779 7.309141784695498 0.530876238535989 -1.2660384503106843 -1.138246652774975
Ni 8.980793643547262 0.5653924147365506 3.604027743181488 0.7704727141505311 -0.7716312532350066 -1.0845113680350484
Ni 3.310922392913139 5.858680508148984 0.024777279207426447 0.07295788041496468 -0.2699935998491608 0.9057700760346659
Ni 2.214619238417026 8.269962165272386 5.508869407163792 1.0338387813808452 -1.0806598554994422 -0.12520912441019727
Ni 0.8551027545180963 2.5581579973326276 9.73965257377416 -1.4192260622116786 -0.6446403543340382 1.3217082330691623
Ni 1.6437648018989242 7.132494740143864 1.160389765436585 -0.4769650903398302 0.6343243171200107 -1.8796635872101306
Ni 1.7516346386427493 2.8953345843867067 3.042154433695852 -1.7746350515128662 1.4239252674595606 -0.894565208457782
Ni 6.733567116739525 7.6461914987444795 2.2926794754446167 -0.4878634824198889 1.3086722258208108 -0.45053029318706933
Ni 4.827990144975845 8.911124620382445 0.5817673671172537 0.7718423408045482 0.511477522294403 -0.08364981291117207
Ni 6.655674500251518 0.6896899904398422 10.44498220881333 0.1265988056688723 0.05528026062954351 -1.6450681643546057
Ni 5.311542988861389 2.309699905814764 8.515132671621632 -0.380416567089119 -0.5663433210943473 1.3749454951267481
Ni 5.483543888401487 2.276370274767286 1.3227668381957602 0.19939393525372756 -0.25286208237519675 -0.2961825995397028
Ni 2.1450057800719597 0.7257561888600711 11.161276634950086 0.7331865761055631 -0.503763441479597 -2.2247765939019493
Ni 7.830944524417497 2.375960953368169 8.87443887422199 0.009371413912570957 -0.4042064704198651 0.011005607081884273
Ni 3.826378704139211 3.540275447239853 7.310686486684585 0.5307024319622861 1.1632112931401126 -0.2610651870112794
Ni 1.8285085667686498 5.241253491876016 5.2412025574579095 1.055460216305363 1.466602751723429 0.9990625542419246
Ni 2.127882554785273 6.096247894995597 8.525122300132583 1.0505290975523327 -0.17344661926034644 -0.022718524643438293
Ni 1.2512641759791505 8.03359868285372 9.709210461193091 -1.5516296474877858 0.022865077523631587 0.9484953828173343
Ni 3.5488046470716754 8.398696591832818 2.5699970082609678 -2.123935356813155 -1.545955222810828 0.24787877022799246
Ni 6.851179318546408 6.274212751855666 4.281923174548791 0.285407877521702 0.04512363181151584 0.17049782104466765
Ni 0.8541998261971379 7.185235014891124 12.094329422936601 -1.1004591496135563 -2.985484772466549 0.7599111365846009
Ni 0.3894667867613538 0.06824656377918463 12.364733766095563 -1.2487863480984558 2.1283527691545605 0.5780125299021593
P 2.7813896606834083 7.789539472899499 12.005454419824751 2.2704553268859864 -0.5304273239240285 -0.9298744252820373
Ni 5.576022270074207 2.2114705652977866 5.431448165563341 -0.041053318396884135 1.1018295475985218 -0.9606770124851906
P 4.686864763610878 4.349438134867917 10.608891944517312 0.38895520068774947 0.14793356259090648 0.11840829943827993
Ni 1.3706081480016152 7.280399029518488 3.3549704776906397 1.1123900967231874 1.8079454927395378 1.1233288551228784
P 3.63574506837585 6.357152506137748 6.558419396240847 -0.6069464393276901 0.8796908624491109 0.4279351814953727
P 8.914013991009512 0.7399715219131079 10.401690731664775 0.2743621612305017 0.9373421944139921 -0.7715525774782711
P 4.785279320193692 6.947834322503766 1.5475820989094529 -1.734135034516291 -0.722425223824001 0.5617294764714197
Ni 0.8317377478126814 4.620807453729894 1.0712406425472967 -0.4923958230726036 0.5041377940998801 0.2768910982999425
Ni 4.733668863448042 8.774509250220623 5.3407987925407685 1.0943548364880313 -1.5645093316639314 -0.5881766149193548
Ni 4.808542458062896 3.700311388926841 12.824788247708288 -0.5937697927364162 0.1778655742636485 -0.400783046560613
Ni 1.4574930044860386 3.8731550215665003 7.810318863325819 -0.46939216308857873 0.6267573034060303 -2.247726517829903
Ni 6.3739886465223865 6.226139921967514 0.4248069382034993 1.2171738633994973 -0.7536870100517601 0.6248785983260787
Ni 0.05746050618513133 2.726139708244049 4.624801638189681 0.9093426238772725 0.8756110359527823 0.34240614928361673
Ni 0.35086405431947887 0.3894121480219317 7.958966795204783 -0.32328099841839164 0.7146412090032079 1.3462404138825719
Ni 8.977848708100446 5.10398060468047 6.535594294367349 -0.17144912921434344 -1.4003809044807172 0.44119050384338215
Ni 5.260904916461386 4.733566994611832 1.7194487168018182 -1.7324473624012227 -0.9781407164875928 0.5231649859346603
Ni 9.145747071782239 6.702867553826941 4.929660799996085 -1.4598006411999311 -0.01596912173474669 0.5348930730048659
Ni 2.8354727519079908 5.550879189136751 11.203660553376038 0.23989318091935458 1.930411250076643 0.35831510720438936
Ni 6.9658465849064735 6.124947124397134 7.241520325138516 -0.3873377196889845 -0.6548661458271045 0.5685840374994079
Ni 8.62232646972515 2.56102884635311 12.195930621932153 0.32830981909155066 -0.1630894443957385 -0.7573672871168247
Ni 2.6405513642204888 8.613963964352582 7.93423026353184 -1.2385590139434928 -0.456070249168692 -2.4280649791140765
Ni 2.6073884276322645 1.976190596864269 8.557422129854006 1.2455501005493452 -2.0931965329684012 -0.5039755574904029
Ni 3.018531050578594 5.661703222130685 2.6652415918769714 -0.5277718885790523 -1.1602193003913246 -0.7694918382945005
Ni 5.13264279086884 0.49651519025318885 3.0939176936958184 1.0334652000915103 0.9601993015178236 0.7637173977045686
Ni 7.849049394853123 1.3074216871411142 5.730126667252744 -0.29306308007411463 1.0784944724170071 0.17200603015907798
Ni 5.015651062882513 6.537478867837246 12.027968358707644 -2.430639938930104 -1.0047405784633083 -1.1148994934086027
Ni 4.560149192168076 6.739160641927821 3.981441594458459 -0.05787733193275839 -0.026418599202844825 0.5020755122542128
Ni 6.477774469014491 3.0880333792841577 10.986239118010582 0.1456077426712073 0.6695749127921888 -0.29915582323541384
Ni 1.1070919903311538 2.0975071199879043 0.2734918949764752 -0.6534574384050359 -1.685762299639858 -0.28870814553952856
Ni 6.342103700788442 1.29937404908047 12.593080171104448 0.5626432465349407 0.5614857358917298 2.347459866566499
Ni 3.6696951732438836 7.608750071035406 9.808941904004012 -0.867130509285597 0.7432429319003007 2.095227447355501
Ni 9.214212190519111 8.826971700869127 5.709782534581141 0.1826894780148531 -1.0196627469907793 0.17517645746725957
P 4.038349230687065 0.33028747548524945 8.961537655262456 2.5422677251114414 2.0241169045619203 1.4250519248648361
Ni 3.1013781968277576 1.33409280062173 1.8221213907382396 0.8988288688301423 0.2954243812174396 -0.09948960815690606
P 5.645005993795424 3.9789689599795275 3.9319018533288737 2.1224703422318547 1.5034687715118429 -0.5301311328398483
Ni 8.12780883474202 8.101239590097615 11.11930019186898 1.0155505245946188 -1.1010774999238457 -2.319171818255083
P 6.788974502834847 8.631957705148706 4.157726541601381 -0.06012550453698677 0.9781155196766124 0.40052182247942636
P 7.5470916427180645 0.8679632320495306 1.075290391826836 -1.6919177777182928 2.156197302170654 0.1215249906903907
P 8.684929499978262 6.520818682715152 9.29624345999826 -0.03173486920943567 -0.0515912418137305 -0.10460404656533598
Ni 3.939434590726489 3.2639886418298882 3.395524461386114 -1.4363650358848101 -1.4476611776239197 -1.2624579320482774
