# total energy = -340894.222712222 ev
CRYSTAL
PRIMVEC
9.04073922715718 0.00000000000000 0.00000000000000
0.00000000000000 9.04073922715718 0.00000000000000
0.00000000000000 0.00000000000000 13.23203571087306
PRIMCOORD
 96 1
Ni 6.196332743383483 2.057952488636398 11.440920660530775 1.0700589400551443 -0.006260893308047282 -0.22284522429813233
Ni 4.525839211591672 0.5065743111626716 6.190766360301858 -0.0017851169248807967 -0.5626144501795344 -0.3719182998101208
Ni 2.702909777348533 1.5493295459871317 4.700005434613074 0.31516094041441844 -0.20716046657302387 1.3924716769359697
Ni 3.4016052194424775 4.282616206808559 4.661910472145891 -0.5258584736064235 0.008761805353030071 0.45689094529777446
Ni 5.0774870317550755 4.615568547445385 2.615390902211822 0.3797113134919783 -0.27735749641339974 0.5905872812433764
Ni 7.124048189089138 6.109776706963993 2.5605841334649835 0.16216204748546267 -0.21474162135439145 -1.5186699047323136
Ni 5.054849020976468 4.3744610756184175 11.636384152717978 0.6328315346245682 0.8601862167572798 -0.8960060546693664
Ni 5.737153603029829 7.4757148597226575 12.247612251888247 -1.2437477572332838 1.1571900266466972 0.8824062044977448
Ni 1.744528144517861 6.504133747763883 0.5649467474219235 0.8523903748619449 -0.2762969163593693 -0.8207205545624897
Ni 2.889564877402511 1.6001656221085847 0.5120059872312771 -0.5990312982456716 -1.066519302333002 0.5314637356083427
Ni 0.4839652307492749 9.067590124050097 4.784862716150255 0.45971247390696957 0.3333486670670388 0.08910337982657558
Ni 8.657800541557284 2.2692255213382 1.2805420431694041 0.36132046968961645 -0.046717715771513096 0.35624536915955424
Ni 6.97106984229008 0.782650457866068 4.85751952023307 -0.838704135624104 -0.5596941912089457 -0.7255347159872602
Ni 0.9104295524913179 7.631956913347226 2.4952042203069698 0.1101936248379715 0.3698444480002276 0.4518976058482411
Ni 7.571022331618862 3.915182487134347 3.642171150995626 0.34084754654724525 -0.48490774222567457 0.40649038135803545
Ni 7.495550241371327 3.7240250989942076 12.620662982783205 1.0269327982896312 -0.10563171649890193 -0.5150336150767775
Ni 8.175115479468651 -0.08957564328852147 6.897687970929132 -1.6730980739086283 -0.04335214173338985 0.2109505297430754
Ni 6.839924880487164 0.7265174126890291 0.33190813526744495 -0.7115581992025101 -0.6351568403236352 -0.44830706028350537
Ni 1.8472309410214547 6.48510299189768 9.094734943284433 0.33226828951866644 0.5868005605074346 -0.3246897058404602
Ni -0.2469523096737594 4.725820361121556 1.2943327866365328 1.2457722438624803 0.8456144895906922 0.4677505137200976
Ni 6.3392849104886615 1.9993052139076293 6.9782707910061985 0.5082813839546084 0.3486642143781867 0.2630120263250051
Ni 3.5664450159785708 4.366794528837164 0.7651304095082938 -0.7514239250491962 0.7148157869078592 -1.2358467572186522
Ni 6.120173556962157 5.619271405528918 4.746490202991818 -1.0176878826525957 0.0003285869840123373 0.36925617959692536
Ni 5.2144632702960925 3.0192090765100397 9.374261940113307 0.9441093379344966 -0.5805527798255099 -0.42243070673737576
P 0.18421229234136613 5.538835949499651 12.473324249052716 0.7674915200350201 -0.14277695809063154 -0.2712321002419522
P 3.9507306733889354 6.051048065583066 12.512874770519641 0.16089937872295515 0.6363678299126008 0.6967962104019871
P 2.71280938669461 8.54700628353338 1.5200963160140357 -1.6945811834830689 -0.04854628433981962 -0.519405518892228
P 6.324250161317405 7.832905421963896 6.010824009051042 0.06687387900441387 1.2634488352066369 -1.4599425660944338
P 4.764415276462564 0.991787163911726 12.593549806135822 0.042886772061197106 -0.9014079424112281 0.287403310685176
P 3.885158192487477 6.111033369702902 8.082232733806801 0.6239730557926738 0.3775148200612917 1.1397036969364758
P 4.859957807576118 0.6871694037785898 3.741596679565016 -0.15114358488777196 2.1159009165444527 2.1220126858691453
P 0.11380844044945737 5.800285084366502 3.3111444877932428 0.7845088805286231 -1.1638561258129634 0.8593110132411781
Ni 1.3994883356657797 1.0513204310751207 2.8045828336653518 0.9352256622916217 0.41410187515670616 -1.729394177397196
Ni 1.9415439316134868 6.519548207978552 4.579580981269134 -1.1470395684762569 -0.6005551910893657 1.0572453332302438
Ni 5.988034113855068 5.51457964641698 8.967985588845957 -0.2192222828335644 0.10546768011721191 0.7280204585235913
Ni 8.496115962977154 2.4065453079661125 10.162533929569685 0.2698300776881031 1.027633938121714 1.3404508037839882
Ni 2.382415575231245 5.313377997104703 6.752969243398179 -0.8304447238287891 -0.7440718555594992 0.11869497744076334
Ni 0.271607309352012 9.27218205053569 9.56120453567158 0.8205876285290512 -0.3714215626793604 -0.6525089584488375
Ni 1.5876803613716601 1.2270271960440766 11.5449379805037 -1.0398299659672736 0.2616897079691558 -0.2349201531847954
Ni 4.210525352995209 6.831119200575676 1.4821469094468278 -0.5792962817105894 -0.011164244146935611 -0.10615879264696557
Ni 5.612364280834486 7.756059139368778 8.131747053867619 -0.45925944552995096 0.6717253834762884 0.003935330498664191
Ni 5.271664026764246 2.9400935683935834 4.715540136658156 1.0203579732855912 -0.8142881686735847 0.8535548274836912
Ni 0.6300355487799887 7.1430879856944705 6.597889828825579 -0.0666656196483497 0.01469334034611663 0.2620594326037487
Ni 4.8096641758023955 4.451840761822138 6.912865563778624 0.8694630140735156 0.19295332183470637 -0.30300270778532984
Ni 8.25546052810663 7.2552021916311835 8.71672265475557 -0.3420749911964431 0.00045791347302501787 1.070702230066098
Ni 4.521219393896836 0.38190342264991606 10.403595293627095 -0.11094747228486053 -0.5536091613571305 -0.1355722128120762
Ni 8.052188549533849 7.3172759064897805 4.41746244721082 -0.17553846879236865 -0.049964761953901045 1.1276177123062192
Ni 7.190922536425149 6.154853832260377 6.853427224376083 0.7352966804700305 -1.715360325011949 0.4177042477959839
Ni 2.2531239649497405 5.174448958911857 2.660155217934348 -0.06953779898982218 0.5220437278460235 -0.8188274513048349
Ni 2.3686465295380255 5.393994267916547 11.251133848442567 -0.5734290242965351 -0.8140773382143592 0.9509469296816203
Ni 1.0274167168184745 3.475558465516368 3.8381635264218676 0.11354634336028832 -0.288913062461483 -0.744135361807583
Ni 3.9260313740889514 2.5472192088108234 2.8361151235989106 -1.2450099117751592 -0.43537029761717927 -0.7363528896486866
Ni 1.2095604880471624 3.5694646228476024 8.238821047740005 -0.36462922234787526 -1.0184607562628782 -0.22904261135809587
Ni 3.376634697968629 2.6301770310570354 7.295324087811052 0.14645157872874134 -0.3221605116607032 -1.0768859902793069
Ni 4.154861522178956 6.9771090560281435 6.036189610824821 0.24246017031558242 0.10797193459630437 -0.4484533560533825
Ni 1.0701974943761332 7.473102086114423 11.616747667330143 -0.7241992850052882 -0.287427221944576 -0.6421283865454618
P 0.16906634207882473 5.414733723478099 7.9403193476275264 0.14262989098980597 1.4809543924594106 -0.6047743713770359
P 8.469915900981784 1.778973360598732 8.035457757702023 -0.1563264146402921 -1.1736083201037208 0.2793223334492544
P 1.8226943750257898 3.3241351258474694 10.52231285542351 -0.90168742132486 -0.5482707798633526 0.36962333312835693
P 4.083014768322085 6.173559121517942 3.733497985453403 -0.3583019945782668 -0.2748355013224944 0.5845780989348192
P 6.9350877005573075 4.118336936098453 10.398514398236687 0.1021679263200176 -0.6216886306338713 -0.24102215231747526
P 6.536002353193036 7.675343420426517 10.18101952886642 -0.5760507781900983 -0.012389889023920598 -0.793928116959994
P 2.29877969755037 8.464003257591523 5.970665045840747 0.6406075790255613 -0.29463942342229904 -0.9727295727743505
P 6.90707044999704 3.744411965729736 1.5350487944592202 -0.9273251764976224 0.39758870799303137 0.2183941305053142
Ni 5.1421192757871355 2.7263885768661233 0.7457669544421498 0.4621357386364815 -0.3369268713366004 -1.778705364927498
Ni 1.2451177150408803 0.9136299741429262 7.1424144506293725 0.8866480104932344 1.3437184187916664 0.03978602164868632
Ni 6.802044183537335 0.7531749360843192 9.378059954621332 0.07255987364559761 -0.44697908550070115 -0.6145013688568126
Ni 2.62493340236231 1.6543829346642227 9.306209584468808 0.07621135435525585 -0.36901321034818385 0.3029893380488911
Ni 6.298773358452341 1.833796402676002 2.542456547437751 1.9790796618166238 0.38980623583413515 1.273700337731316
Ni 4.238425073946801 6.829473786054228 10.351117419279845 -0.09823311004198566 0.13773322501913698 -0.6362685853305753
Ni 8.291985114187133 7.285108956669378 0.2849297425322669 -0.8616579162067999 -0.8253775937185269 0.7191828056273033
Ni 7.699653967943962 3.774372975202703 8.135995297184259 -0.4646266233791353 0.7639889061984004 -0.016683117082635784
Ni 3.1774852964385976 8.43051635985831 12.225553752487798 0.6720233743326812 -0.3446766904853483 1.201401688166905
Ni 0.19380090026141114 4.9954423241608765 10.11870985071656 -0.6547298773595562 -0.7740519468613573 0.8109333932687388
Ni 8.687788673247637 2.432528392222391 5.72740678217503 -0.6754087458651464 -0.5325644248716893 0.24397429296726372
Ni 3.6875457166093484 2.616697289015939 11.655649967801532 -0.9985545042572546 0.2573959656898083 -0.6688256933309901
Ni 1.278613653513223 3.450606025520776 12.896749074299644 -0.1400256205977395 0.2857763166047143 -0.7390690030282691
Ni 3.058572454676998 8.497408788672578 8.08653341341039 0.9588895815674647 -0.40646287055420965 -0.12113315456861072
Ni 5.734260566508601 7.735102706068133 3.5604889770404924 -0.3694965777425056 0.6495516755927265 0.19805516183764602
Ni 3.2204468887788327 8.215988661070126 3.833082631031461 0.5142496857229014 1.5185714314812364 -0.6250004686159237
Ni 3.3285289250640844 4.214051241255455 9.271488625844507 0.14683415887914067 1.2942799616548808 -0.425956460502447
Ni 7.343711027702502 6.030706402543181 11.483091188197237 0.49879247062756676 -0.9451231239109915 -0.7011665715555409
Ni 0.6878239532915177 9.087208527959675 13.531211873031026 0.7614959645732177 0.5712063056136034 0.6223234360043927
Ni 4.798824329586919 0.21381619261874438 1.633282753611429 -0.8325995653882629 -0.1347134643562067 -0.8766597889322708
Ni 5.9000858036097386 5.359720825879123 0.4184894857564954 0.6135860561313949 0.8932007240100874 0.05830079262342218
Ni 7.995656807761229 8.595654500785654 11.485671415144607 -0.22418476904516232 1.195748603646186 0.10184679553517298
Ni 0.04779386740459919 4.816679789366373 5.676185570566688 -0.2431661952436715 0.784396780430791 0.17240300848718051
Ni 7.880052876520783 8.909295822643283 2.3858157972176013 0.24793147784279881 -0.16829695673860692 0.3909192663926558
P 8.574255071267697 1.8238787118516675 3.454368781146199 -1.564974444225808 -1.2722893163164024 1.5161281121470662
P 1.9921539892567188 3.1826927621768073 1.7562612157592665 -0.4272237572506449 -0.28977078247608806 0.33003142976834776
P 4.8325282050592255 1.1191892597153035 8.359219282940472 -0.7477138231874607 -0.11708443842053383 -0.7049520067399021
P 8.445578231246953 1.6005453331519959 12.431259498034061 0.7834130763612831 -0.12539090140370016 -1.336459423236408
P 6.267013241892735 7.6716819210793386 1.2022293526875882 1.2521827753745145 -0.30714038410278716 0.27080992510286905
P 1.7080397213938732 3.148446442356771 5.927806517926579 1.0380088535981349 0.4328310761350933 0.3665020138905559
P 6.848432216007399 3.972338039906857 6.011062684564044 0.04969531034259828 0.03359197702283247 -0.3913329568913067
P 2.2958504980726264 8.527315553710773 10.137300322587189 0.13728302485559582 0.30382494657630904 0.28324377999084766
