# total energy = -340874.311854343 ev
CRYSTAL
PRIMVEC
9.17520091930642 0.00000000000000 0.00000000000000

0.00000000000000 9.17520091930642 0.00000000000000

0.00000000000000 0.00000000000000 13.42883398892426

PRIMCOORD
 96 1
Ni 2.87312242259311 8.345836177333057 8.156204041809293 0.08949804416183296 -0.27365099409608995 -0.5151863386045579
Ni 7.3894407568698846 2.9778848669348363 9.613433310745028 -0.8846163247751863 0.21247262281455664 -0.6889476608918458
Ni 6.968243982482839 5.173088392818122 0.36653367974221224 -0.8449801984408029 0.6209167854648532 -0.2801461149021304
Ni 6.70319995290678 1.8740714929562914 4.276573086254704 2.4486805984818987 -1.4452381700047239 1.647842641775949
Ni 0.6383820383359474 6.922441379386509 6.573132304370407 1.300588677481728 0.3785877414104964 0.45233829293008554
Ni 0.9194010102699834 5.837400466532783 4.555222103785739 0.16999954125201044 0.9205374641518276 -2.1368440944550233
Ni 3.6411876685460127 6.3998494594030015 1.362126476144454 -0.1119982821468781 0.3334265714928258 0.48978332515042106
Ni 1.9218834650586507 4.6943539333315 6.364609347629687 0.44771262123261607 -0.11062994104444171 0.5366357667275855
Ni 8.973621776102508 0.8189243022876915 3.5265995015168143 -0.32610972611643835 0.06778533507508971 -0.5540920145308199
Ni 4.551486879482751 6.904320357528486 9.103057253294063 -0.5310425889105241 -1.2776217842729094 -0.6267549894131851
Ni 5.084933062179192 5.155233451787381 3.2854577879115587 -1.3079145217191797 0.3426020673445067 -2.7185839526100986
Ni 7.867826558720758 7.089751168541473 5.2538163982954975 0.956930658068881 -1.59264311378567 -0.2517184556890568
Ni 8.58520799467684 1.853757598073424 12.862996795056194 -1.0243809784020552 -1.6578663445605382 0.12995923750067295
Ni 5.0849147117773095 2.3379880029235673 10.547771548146589 0.6269419086130106 -0.3054737950336417 0.30052082190374046
Ni 6.779363295916123 5.573540037878083 8.055836518718195 1.0584288120153837 1.69773104196596 0.17651086000796698
Ni 2.552082141675524 2.0191130694280037 5.619282084648205 1.734653368913606 -0.6757941542290232 2.023123687410716
Ni 2.5579267446747953 0.9350355526730576 3.279012209250667 -1.4310572505186516 0.7366724777716345 -0.38348852114622345
Ni 4.389003246022632 2.737834084721438 2.603072403383766 -1.662212794454692 -1.9372442138380768 -0.14405813879590026
Ni 3.4939807446522786 3.5713919149895657 9.180703308775433 0.7728301586391142 0.5942868415821506 -0.2020051476243295
Ni 6.035309550825218 6.958050334237643 1.8734163836091204 0.6149340855188571 -0.019635000622108118 -0.2815401670361797
Ni 8.234173981883872 8.615109974542813 1.0566023775378064 -0.4539781425263536 -0.4542756191621144 -1.5286187884149094
Ni 8.830139983790728 1.7049633644169364 8.01180381188334 -0.6764287024892286 2.0337423434668267 2.200911614358893
Ni 8.893742476712154 6.834836560804026 8.715447219470805 -1.2409195437558693 0.05099808831442185 0.011975170084005183
Ni 8.38510603735956 7.418957378296346 2.922974041864603 -1.0246254903126935 -1.6358008801200665 0.985094779207923
P 1.1643329993838722 2.4634129997839107 4.209550078422558 -1.4543501596083213 -0.15782433934205722 0.5921484550829094
P -0.7091540332724925 5.083877914071003 5.994537710404714 0.12125502485845568 0.133838260840105 1.1283306792128438
P 5.387255933177604 4.016618540640491 8.159654834883115 -0.15930040966695144 -1.9340606739037725 0.21479895695488813
P 6.659085586783553 7.626546299581295 13.017697105558257 -0.6689048833083576 -1.5198366713469054 0.7758293504767542
P 7.044765158328872 1.5557378963162327 11.449786470153905 -0.6577270123146672 0.5703460144958371 -0.6051986033986481
P 1.7474445447727076 3.328129812446898 8.070313150762544 -1.3107406783140654 -0.887147318727156 -0.04621660776537847
P 2.975774570718459 6.464213494002512 7.01804330310897 0.7198327805064765 0.3954747469738221 -0.08711591708290158
P 0.6404730666303492 8.244129074904608 4.5414033336488435 -0.1369958326324802 -0.649960738105687 0.24541411073758382
Ni 0.8361434018932369 3.8468130968296372 10.309087870873363 0.5242651609773745 0.528377126263219 0.40667524367533187
Ni 8.61365111759323 3.964292369675272 4.061282501300071 -0.37434464986342625 -0.4243418077171595 -1.2306425873098934
Ni 4.58549934937019 6.8011910989542175 12.553958594489233 2.2965450819945032 1.552555758846481 1.238819723804047
Ni 4.887060678690518 0.05214358446649711 9.335806410598794 -0.7216505504415056 0.7788015457312008 -0.4843996922410045
Ni 6.502455731523646 3.2531133695551517 2.6366573089073655 1.4602295012072335 2.1046762514732267 -1.7374242467905237
Ni 1.3998879331362923 0.6869904178799654 7.123163580287386 0.7985000526013926 0.24677036765516208 -0.9603911058136557
Ni 3.6267459022652386 8.099105848834778 3.4035912525842704 1.7058346449097008 0.04294256499979701 -1.5694188531504067
Ni 2.5906179856267633 8.518816240669418 5.54066988050777 0.482933134997807 -0.29155821339381405 0.2349597481734792
Ni 8.63838745932955 6.421328604805346 12.54018111275657 -1.0746481020877234 2.9996808614612727 1.0542934496907714
Ni 4.318216570764583 4.260715586468769 6.371042081009262 0.19193953585821136 0.6693214020204861 0.17153886071467234
Ni 1.94079355419758 5.5025239825965135 8.996942384333668 0.7573027524274764 1.1714758471417501 -0.49515847341940533
Ni 6.351514500847018 9.036279223327035 3.0121138715644773 -0.24401774461068942 -0.6291736261570068 1.7638582726123366
Ni 6.476728468085724 4.906273549460494 4.921533743665184 1.0924859016000925 0.014946851117819418 1.6179191147436394
Ni 5.9341162596494526 2.549788341440331 13.318301461420463 0.1860062010929119 -0.8287359686677986 0.8820889303676421
Ni 0.730514818582702 7.199651725410032 10.673157091642883 0.0723690977910302 0.6752233693272177 0.3525743480658702
Ni 6.517539761870274 -0.5277291149902461 5.715620777006207 -1.846179596520072 3.169843924874341 0.2413530532943327
Ni 0.1872970468843399 3.062810526842615 6.205705877576658 0.9114061912745207 -0.9065678893456128 -0.9938797244894043
Ni 7.073446836469723 3.5193134744497483 6.934273718519727 0.08073932413259644 -0.5207242377036515 -0.9005895602749909
Ni 1.300226900517635 3.3022373953920408 2.3464337753895474 0.4671000246202923 -0.6517024033871421 1.0991455730084554
Ni 4.649698230352766 0.9336867981347643 4.613234146773953 -1.305703373000474 -0.7478740029144088 0.8066519922845656
Ni 6.343761456052067 1.4374328553859284 7.669515600627116 -1.659315675412555 -0.6474019762395754 0.07168852678423783
Ni 5.954283351317268 0.19548499620388415 0.8044440001629664 -0.7341445691434583 -0.34684901554631875 -1.7177504225106803
Ni 8.95115170899856 4.37147861222576 8.331946758148918 -0.0040919106811865 0.6005554481996818 -0.9388642874854733
Ni 1.1190992587458697 9.396690291481471 12.051183273497603 1.331572270347436 0.0318809078689967 -0.016650464072487454
P 1.0521661678829435 2.861589195010561 0.13960710495449316 3.3302056859262708 -0.24989811465086645 0.25698561762526706
P 3.788697374070792 5.883891209699671 10.913613417737865 -0.8488484231469575 -1.372367449986927 -1.85853117610689
P 7.802003667171664 1.2833904067913198 6.07844125292769 0.41564196595031644 1.1411363156179444 -0.44956458683969025
P 5.674458073025626 7.1346913027493715 4.4065508178218575 -0.529584773418075 -0.32761382146579066 -1.0822521396872262
P 8.253763035892417 5.560933311785464 10.565108090324175 -0.028911540828027625 -1.0538725601032688 -0.7051065300398953
P 4.133042665377937 0.5167390593033903 1.8174311425087224 -0.7061588825638097 -0.3419675190843014 0.651937916436716
P 7.600121720871874 5.196145672782279 2.4029420029435697 0.6537641710121772 1.033136355997182 0.8536309321372654
P 4.728889389672563 4.135391516818775 1.028772158044259 1.2114541873069007 0.8498542387036525 -0.2969960965799337
Ni 2.874241797107884 8.087196438013656 10.589105828384763 0.8643385483627567 0.7320396069853135 0.2974234139253394
Ni 0.6685620267904263 5.453922943213247 1.3734202309824495 -1.0424211237332177 1.810419151091011 0.4625571424446163
Ni 1.3658662880479127 7.789855701126083 2.3359318403927407 1.435797079196482 -0.1391041372247346 0.3614287131327066
Ni 8.380371633674121 8.779859882635302 7.2670802771237595 -0.6596286002127543 -1.756185329448111 0.6485844265834506
Ni 3.412009499447428 8.709054856975369 13.205579530262618 -0.5816403564627338 1.2447803122628562 0.6127247365723641
Ni 6.46573657735868 7.259776817174906 10.534919844188849 0.4400476484881905 -1.1214714901991654 0.3720581678220947
Ni 2.645072803210241 4.310683730792209 0.8856463635289801 0.08678655876794086 1.0951986725455656 -2.263360110602102
Ni 0.3130725364206204 4.513483197186076 12.500270823704403 1.926654097027056 -1.9008852155930682 -0.3107278443437294
Ni 5.159417343416372 4.585921408613466 12.352123441714241 -0.4452695590087622 -0.2651419281838143 0.21604388510558278
Ni 7.966570071245338 8.678161955407793 11.775180383917887 0.936012162748659 1.1755633869475626 -0.10101118700775508
Ni 3.204686658989761 3.7775036289230512 4.30748617326435 -2.9965037492848716 1.49574517761534 -0.8992160769662321
Ni 2.2744956124134306 6.437284279241348 12.468941182572046 -0.8371663588233389 -1.188692725240669 0.2682025693870091
Ni 3.522157786741387 6.23423708242208 4.6689367916853755 -0.5339134827004158 -0.24187987233208022 1.806913194820282
Ni 7.372998796784024 3.7409496283750183 11.904580995345865 0.2955668203325748 0.9361029226902523 -1.2552662993958446
Ni 7.183824503787202 0.45507803890103116 9.614360006040046 1.2413926267375457 -0.3767326904796286 0.11880270666322122
Ni 9.315398011146238 1.750674215503859 10.504920607192902 -0.7698757039964805 -1.7182965248221376 -0.13815128639316207
Ni 3.377116210269675 2.175486019061568 0.5191530546709072 -0.41900959687096867 -1.7032522288945053 -1.4984558916782837
Ni 3.22430323860113 3.605606239297702 11.52591494739967 -1.2951484803027633 -0.14963974664873583 0.564231416957667
Ni 5.3265528037534615 6.805063033751223 6.643633630879199 -1.077728797895576 -0.2033068971548886 -0.25259725874958433
Ni 5.679348455127057 4.785867387514752 10.056383569042547 0.09779113740856062 0.5834187885193952 1.4030821054619642
Ni 0.8524825997285623 0.8121245608704859 1.1356577438836797 1.5428799263196138 1.1294259691595514 0.17760512151341024
Ni 5.425002709847938 9.185844173862549 11.76310765452002 -0.20111503170989234 0.5231526446394862 -0.09616799998284083
Ni 2.3702571846322598 1.3774270412332845 9.483550083747565 0.11093564521031862 -0.2254800908178181 -0.17508646885661458
Ni 8.456443224674056 3.480227118442062 1.148283737898275 -1.5644933908243315 -0.48936577799702813 0.6804077417416345
P 2.360962706079259 5.337700672896498 2.895283285425355 -0.025938060022000494 0.6565134516225404 -0.18303991937573635
P 5.05683859689855 3.0778578563854797 4.7079479110453475 1.1906218239425819 0.4344056197110648 0.569994030473057
P 1.2561125343944068 7.9163541964964965 0.16841081326785634 -0.7641051200612905 0.1815461084390293 0.38869911881288544
P 4.058613435346401 0.7218846245778126 6.960271650385404 -0.12686902861112342 -0.3109929250796579 -0.25892088697476695
P 6.572407463496087 7.8549537518008545 8.437027581963289 -0.18452781677517255 -0.30393267579876687 -1.202531173785658
P 7.425214865337953 1.425303239742229 1.8397232107144204 0.9699954616726391 0.5640385842205706 0.03520508714622324
P 3.408165090253245 1.1794262049314406 11.382924028338222 -0.11600328954121311 -0.5539439189887299 1.043155687906397
P 0.7741685896187034 8.984861397254953 8.952197681905808 -0.5441601001290887 -0.7392901179001397 1.4802103152045345
