# total energy = -340888.9342445308 ev
CRYSTAL
PRIMVEC
9.11005307289586 0.00000000000000 0.00000000000000
0.00000000000000 9.11005307289586 0.00000000000000
0.00000000000000 0.00000000000000 13.33348353045982
PRIMCOORD
 96 1
Ni 6.277546125945469 2.337475587105891 11.231006192670236 1.1626893591983718 -0.4287959868337712 0.7011017797558764
Ni 4.540486793757648 0.33125063263501453 5.878172339912085 0.12878732867975887 0.4388685405784249 -0.3011695112313329
Ni 2.7631519178037185 1.6889946932124824 4.621159044993115 0.5057817574612063 -0.1757549556785489 0.5830575485252345
Ni 3.6499517949410416 4.356800797612882 4.666265649799521 -0.5318733123419356 0.21842626929483028 -0.11884358720348566
Ni 3.9788064836695907 2.787685290199585 2.3819198910681907 -0.6860006624483798 0.1380705537538977 0.4275983669812442
Ni 5.194388169112452 4.855312001056699 2.2654123358385236 -0.5449031489427003 0.3805255818631576 1.1442733185850291
Ni 5.069234262697893 4.584187717405241 11.250366877042941 0.5315251849738974 0.6986332636107259 0.08301629309223121
Ni 6.007915890965724 8.074230754208651 12.420712594928553 -1.1985847875434001 0.033109123849142975 0.6142352596796196
Ni 2.2076026733014094 6.565870189427375 0.296480293822054 0.08895811249796293 0.7628987584580151 -0.8245877508273799
Ni 2.823742879483966 1.6995714646018625 0.16739357758079643 0.762398678893145 -0.4207427775119915 0.24452939413978536
Ni 8.088961709709624 -0.21617244470163804 6.982972138358032 -1.7783225276667827 2.157178949357633 0.7490595385820777
Ni 8.895246939526238 2.7735100479240677 1.611671297414341 -0.28820960863655526 -0.00560140534717745 -1.8909121635407566
Ni 6.843945443423448 0.9207530442072803 4.905441889019095 1.0186088518049683 1.8772855738962573 -0.7339424804349812
Ni 0.933033395484528 7.644509560033749 2.288545493107303 0.6347426356043521 -0.7757900125983865 -0.26279785343166995
Ni 8.139349412168418 3.829720468348999 3.6295470985087133 -0.9861661578952308 1.5477105149390376 0.6182672636571481
Ni 7.985981671995968 3.7950840473133205 12.399992690666705 -1.1193647282688077 0.04824315127710401 1.7039785655375685
Ni 8.027587283482015 7.286694013211454 8.895659624921535 0.5709191133904877 -0.1176128001201781 -0.42318532551521315
Ni 6.978628465146614 0.9704848228589826 0.30560218976708964 -0.9019337330077113 0.06385900343749003 -0.4952155519095859
Ni 2.0870493435893787 6.4893184151078565 8.756845194218968 0.22021987086014333 0.47890344501312365 1.4703542483460612
Ni 0.27528666681063796 5.304483158122495 1.2292658958683467 -0.1095289946707791 -1.7672320741805758 -0.47237310009377353
Ni 6.659220901250785 2.133373962465346 7.064932551070208 -0.6211826375317302 -0.037851009409502555 -0.03913270433540358
Ni 3.3791554731931304 4.267422068843538 -0.18905272829419117 0.06010365016011584 0.4258330475507054 0.584378067108871
Ni 6.309731942757424 5.561131567753518 4.592425027215989 -0.5939567119362416 2.1054547815104643 -0.7042621797617291
Ni 5.6624991261080675 3.085374488038323 9.043048437391272 -0.3936880873870446 -0.19549100065489558 0.6453119264797661
P 9.617118419391092 6.040912502483669 12.409926292323018 0.011854585345740874 -0.6681363805734493 -0.20243837850700616
P 4.218355324051806 6.4267961222178345 12.484114007921137 -0.7782047926874662 -0.977923201160148 0.07181296817724406
P 2.665965873719388 8.642260771151488 1.2730260348596365 -0.29704006244399167 0.2126266318939177 0.4193065592860972
P 6.558044654006636 8.150263255514222 5.699944176445509 -1.1455131045294014 -1.9570391370768168 1.951716953532955
P 4.871263703643094 1.1042932795060247 12.619835575672203 0.8680509642173374 0.701574862737553 -0.31212960978726245
P 4.150093697849716 6.1417881179829 8.172785128235 -0.2749535149575974 0.7664764485069445 -1.3570431609250306
P 4.919874945791012 1.3969992784214291 3.7906028123034705 -0.42048669563712743 -0.4290358707587192 0.4839656900273794
P 0.3312825178200816 5.814573238772085 3.481665432178368 0.45161221339733837 -0.5900131539074613 0.2229588670578612
Ni 0.8136015132815694 8.980790336034662 4.173246897234823 0.04471379796760686 -0.059526951721039424 2.207937410857423
Ni 2.0173483290328345 6.526605861530538 4.696012705456492 -0.12082590774083707 0.057543602742423476 0.16367179926176975
Ni 5.9903061587558435 5.94534804781132 9.22965056146174 1.0340503831710193 -1.2985410509240798 0.735575902273346
Ni 8.845533380980289 2.5336787959026874 10.174500606532112 -1.229263961794812 1.400544426641775 -0.1483693645767445
Ni 2.652592316096985 4.812859154653158 6.961011444894432 -0.9420611971562164 1.6680833943028561 -0.5151793966260224
Ni 0.6316081649612203 9.133465712188514 8.977313939857067 0.15623899713280834 -0.07749510616368589 -0.6464069593161577
Ni 1.1520846168950756 1.099574272116103 11.14105899660141 1.8415626665733509 -0.5969736443856944 -0.015851365209959795
Ni 4.2182824436287945 7.044065974957051 1.4901632341608746 1.1499158615827874 0.45755480413401844 0.4851023747349839
Ni 5.509277146781639 8.025273330051434 8.015756968816856 0.7736030322493967 0.5001847229894031 -0.32469047717140853
Ni 5.865471104191953 3.3823166615412057 4.452250465618991 -0.622571804569773 -1.9495891085566748 -0.037207719398548826
Ni 0.5430056126969365 7.5700895380872835 6.546767319551069 2.083571865394444 -2.0337744822563426 -0.15638452157173713
Ni 5.111832869947453 4.47750899822381 7.161294135369234 0.6757350188563137 0.5874767606388527 -0.6752539654548371
Ni 0.5124614274132898 7.458527830564158 10.67038629273698 1.3636892054866385 0.0499328802747011 0.4910117982408834
Ni 4.924193110854376 0.44483203888081563 10.192380907312417 -0.5786738176352421 -0.0444803418005621 -0.17660830481777973
Ni 8.094974344607978 7.401125387390614 4.401302494908302 0.597422558997655 0.3883265659648151 0.4044687229423164
Ni 6.937314375352609 6.178984463876818 6.848370196105464 0.3435034961128536 1.8917624273561935 0.13580309787595968
Ni 2.359312383850374 5.424981827517267 2.372773397980389 1.1749776896474216 -0.6815698803705359 0.95595312464696
Ni 2.365488999700503 5.686540555648615 11.215898991985474 0.45012483021853444 -0.6312562197176483 1.1430795553872444
Ni 1.3437783495181053 3.332757973894153 3.5099330152482286 0.2913476400449047 0.993286828100412 1.248434878296308
Ni 1.4975651521228655 1.196468794508392 2.4411470778328566 1.1377542865195889 -0.29040095986091924 -1.251204213511329
Ni 1.045050605651469 3.405383315423988 8.259532873733672 0.3648400528071007 0.33794399974720507 0.05865791885252479
Ni 3.6562468414785627 2.7216920671636933 7.240401279520554 0.11096367023477664 -0.20784669400677105 -1.1242297696705927
Ni 4.196682508259096 7.048548120972189 5.912226628568969 0.39021092747172154 -0.719330129838445 1.02936557610084
Ni 1.03690621838006 0.012347765668532185 -0.1624285987632149 -0.1612917290653674 -1.4319787338916563 1.2691248025454918
P 0.4173688734799324 5.752551998790258 7.868488409045085 -1.0005867041959349 -0.17272876725771544 -0.977403581211252
P 8.609801652753243 1.7219730846246752 8.034623888323665 0.6012061944098033 0.5495684156288536 0.17949539655758764
P 1.8997011061883424 3.3707560044411853 10.547758603985017 0.04592375911530801 -0.20633642800983173 -0.6400830739806589
P 4.253501908048556 6.365922748898421 3.8618434257961085 -0.355321057573072 -1.278503158436598 -1.451034979192159
P 7.326787355920034 4.412690972008961 10.502931677801913 -1.8227167375114413 -2.1829401174821372 -2.4321723164142304
P 6.3877139953785225 7.881999528465921 10.261208267798125 0.46906691853867605 -0.12008003071374802 -0.06095931329219179
P 2.2501648403394663 8.833863403245752 5.927293745021076 0.8447691108712613 -0.9964472281062644 -1.5800899597110076
P 6.997878006874228 4.328422982903219 1.2665251011271117 2.024445748656249 -1.3862195253786709 0.6535458843537841
Ni 5.432488511087336 3.0514213209683665 0.39248749706419156 -0.14836190837757676 -0.2208860436892325 -0.6412233582326892
Ni 1.6589497388264567 1.407175207484252 7.084679501684868 -0.8408939441865713 -0.48516845208622894 -0.8302472631060023
Ni 7.32246919085667 0.657820520102188 9.367811801373076 -0.881245094310108 -0.14112142476507952 0.13599464506147546
Ni 2.7224117613409207 1.630225742107494 9.154116380048503 0.23830861004105408 -0.4104917892079447 1.3297876676431872
Ni 6.682533526561228 2.091012216590568 2.4570413870861314 -0.47793619600384785 0.25275923824874535 0.6786861310648377
Ni 4.083590311852753 6.985123932847413 10.272768924898145 0.7263165884586071 1.2206214556284656 0.06673041144801412
Ni 8.476230057480985 7.305588262876893 0.4299471234862349 -1.3509571026319507 1.2976573627675458 -0.4928179982116867
Ni 7.8962840913759536 4.414349001632447 8.290893319755035 -0.9357856485601497 -0.8125961256831424 0.21321721429006502
Ni 3.465810296152462 8.560434276216592 12.333645086573926 -0.4894056300960281 -0.22519264148438636 -0.10987455093565593
Ni 0.4259104590567479 5.179001289804388 10.096486668725946 -1.2393601696885495 -1.5295749816805917 -0.41756900776970024
Ni 8.858378555535866 2.4747276437401733 5.938867156195123 -1.7981429048268194 0.17849678008974423 -0.39294786678691035
Ni 3.9061082617167453 2.5209976022988827 11.197392830572564 -0.9592775610345027 -0.026319868841451443 0.258892861950309
Ni 1.0926961821944992 3.336593306155074 12.567287879676437 1.255381227707154 0.2751103522504359 0.438001050371807
Ni 3.1041594170692464 8.448116434304733 7.969982597134616 -0.09580830265057692 0.639065431349422 -0.20524679449007877
Ni 5.7197375883298385 8.236817867891913 3.727202310316173 0.016795988511416234 -0.8632460866295262 -1.3035752709138775
Ni 3.3340060511382057 8.38038319116947 3.755815164390045 -0.813343031151496 0.8384606521547303 -0.45141269579202253
Ni 3.3993524604198795 4.364990735148672 9.30273140563539 0.5571935362742791 -0.7307327152484318 0.14629139900179322
Ni 7.636182971704814 6.157931131679697 11.490142557741777 -0.6778204406304327 1.9391907960414863 0.4215670731854998
Ni 8.360322854735866 9.307649923183302 2.176398009184231 -0.0902547198221994 0.19974334817334632 0.30259107416920794
Ni 4.6732840345354205 0.4530237984271813 1.709685445305127 0.5060409246598639 0.12800391354651505 -0.4223700287027694
Ni 6.049503282346017 5.786332074855566 0.034338522306624146 0.3892629617361554 0.09102296544679163 0.2162086928182212
Ni 8.077473933032612 8.786190496544094 11.598823666545416 -0.038112747711321456 1.482606326240537 0.20593173637224532
Ni 0.022003510712118774 5.161901720555579 5.673197061200703 -0.025885095296877998 -0.4552917191314546 0.2147231094116302
Ni 7.5056541340932394 6.188877981300476 2.4713614792023817 -1.2576774799404986 0.09837426360554026 -0.7422895668480958
P 8.716790113732468 1.733333320561417 3.807976594143855 -0.21605571218012468 -0.45452964415444946 -1.087987756619423
P 1.9989460222227158 3.3071496152588837 1.4638697995493077 0.34166772845569543 0.7257758854637888 -1.0784057693579425
P 4.636096798694378 1.0062508904513223 7.953996276347292 1.0503079826804622 0.6874525644035581 1.4046561348173034
P 8.799882906017167 1.6389987230273673 12.747436442289334 -0.3914987930452096 0.3055874377933705 -0.3935556755742383
P 6.609334251700186 8.224956579046976 1.5401910895310562 -0.6326258463716653 -0.9436663368598069 -0.10087826097431657
P 1.6153125855489967 3.3290228522148713 5.819051740766072 2.731210383124858 0.36270912250702697 -0.4502333307719407
P 7.051190036306315 4.195862603500229 6.130549045749413 0.3179073928113041 -1.5515728261079214 -0.5027074894112569
P 2.422645471446386 8.424557837566631 10.199808333422464 -0.25261062848602306 1.102905297161204 0.061074498713817406
