# total energy = -340894.67979843577 ev
CRYSTAL
PRIMVEC
9.01311285302528 0.00000000000000 0.00000000000000
0.00000000000000 9.01311285302528 0.00000000000000
0.00000000000000 0.00000000000000 13.19160171981694
PRIMCOORD
 96 1
Ni 6.3162543260779485 1.996737993302269 11.44916263807498 1.1465657141636316 -0.21829102926854663 -0.3498860026004297
Ni 4.380643264487205 0.5266740420255914 5.979739841401652 0.2369891198986822 -1.5498789833452662 0.8083108680442272
Ni 2.687962634984445 1.840973376104014 4.816399332721339 -0.09872779029021707 -0.356536932258044 0.2505298346975944
Ni 3.27099386937303 4.387979938390652 4.735534585062444 0.1362448133990686 -0.1453876562406012 -0.12381430094519966
Ni 5.0052429755867225 4.45040475836028 2.648569923728416 0.7744628091465307 -0.024563291161660922 -0.3492473405751662
Ni 7.210787755524333 5.917523224340094 2.613018601191858 0.0473823459387055 0.6179836709784583 0.6671555047174188
Ni 4.9261709360843335 4.2675647499999165 11.508234580044507 0.26516069723689173 0.4910915024388832 -0.3470865854784215
Ni 5.693060660591377 7.613863177681674 12.393813481821265 -0.8062750685611212 0.703768270844446 0.26998794342220606
Ni 1.8849483539601815 6.418850590258469 0.1989013755543971 -0.41334339972412687 0.49242204832484876 0.09393653954916081
Ni 2.4861049583977013 1.315508893830072 0.4505474878200654 0.7084268526623798 1.0837873453848303 -0.16997562999261048
Ni 0.7369067031222664 9.274583308828628 4.844668961343161 -1.7307355219164386 -0.5440973652119533 -0.9027899103604194
Ni 8.610740504147278 2.372251316200712 1.2972348074182296 0.17733129902673328 0.42403867465444395 0.5513159944475796
Ni 6.794742463898858 0.6936942346177349 4.9841964556457645 -0.5578751357223359 0.04760114681773093 -1.3809500494496154
Ni 0.6820889504431907 7.379423097948783 2.675388441172775 0.7889046956034736 0.29347754190371395 -0.39198293177047977
Ni 7.556521753389618 3.803055950292333 3.917127709821586 0.3323117411620922 -0.5208021421294385 -0.29084293249434423
Ni 7.573574563003037 3.8587389618101438 12.55037125295503 0.9396690427749559 -0.7831464529634576 0.8769462098244379
Ni 7.788564345090179 8.91343688789836 7.0594855305246 0.8381822016823629 0.25009094738796284 -0.11968922303323258
Ni 7.002089126243833 0.6831452872754806 0.6486484989486317 -0.9555008676008899 -0.3421518671809656 -1.464371034179433
Ni 1.948427708139519 6.550045461681788 8.942323013442783 0.019738616079507942 -0.7242242247059527 0.8523248117313321
Ni 0.23644729997649933 4.840032616065601 1.398362835506769 -0.9248129515987299 -0.8541924610676901 -0.3165701620571193
Ni 6.2387415551078655 2.0213798439804327 7.030358754865656 0.6328572456561811 -0.022045409835813646 0.21340978991684537
Ni 3.4357625863618795 4.303247663984866 0.4363698612228628 -0.13925686075251503 -1.058731687967783 0.03521588577950064
Ni 5.794647456126704 5.511617684731055 4.907144254745048 0.5800082201759496 0.4817085185620865 -0.9298024343935212
Ni 5.116581959283636 2.8119380029720626 9.382197172962526 1.2752489131653586 -0.6986684877240356 -0.2945620332171443
P 0.2074106554465897 5.494015075230524 12.355161648445906 0.6437823772091171 0.337505883768522 0.421945539570841
P 3.889500716149783 6.003472268987852 12.434113813546677 0.8114010769337767 1.105096905495884 -0.01147637607071572
P 2.2620840371812543 8.319031105025562 1.3558326596490324 -0.217321980487058 0.35239102841047054 0.4115870791546524
P 6.413965483064772 7.710537826684595 5.845977134112125 -0.4745680508625634 -1.0319521058810939 0.34175977394886947
P 4.951020088359278 0.8820313405379419 12.677274080013701 -0.8785024985679645 -0.09372622331056761 0.7580470867926686
P 4.098722105978686 6.09390083074865 8.083866371015231 -0.6921029186913759 0.3949219597941457 0.025951686868755302
P 4.648053311221091 1.0251063960793618 3.9432603293739885 0.8139130447223532 0.17415855772570651 -1.9538985345653062
P 0.22959913679242144 5.366425448968603 3.598761127976482 -0.07797795933737539 1.4365822941019388 -0.3660479570722728
Ni 1.4161402993976289 1.13839221216343 2.622319232396978 -0.20847918538444743 -0.12176436039470642 -0.4898149497193048
Ni 1.841802582491136 6.4933800208574946 4.669061976087855 0.7785385218778011 0.6225018705637859 -0.31692754539653806
Ni 5.957054737534837 5.490472921859448 9.111887607807583 0.48500158749106154 -0.40344208145001487 0.7746862380112465
Ni 8.616680145550685 2.671549756387175 10.234176992457623 0.5165405386396072 -0.46714681869782776 0.1866464057800721
Ni 2.2694838028750266 5.414068763776495 6.7519761444830495 0.7149767379657557 -0.2563320432016682 1.1250916034502558
Ni 0.7996541925338398 8.841115669960692 8.905491828873927 -0.6340114138652823 0.6596447981626704 0.3174386807050017
Ni 1.3413765278631118 0.9107299933339702 11.235089489570125 0.009999534414873102 0.8304166988043311 0.21473185116237856
Ni 4.041038183396298 6.880592364304679 1.3740508647608733 0.7048409350833345 0.45293478886350386 0.33963784250986023
Ni 5.814241963578909 7.740785833588735 8.182276044252074 -1.2092006153860335 0.27838259524380443 -1.0010741853553147
Ni 5.084486264234278 2.859806645602541 5.011450306443361 0.5534219850469888 0.18790958876321187 -0.5482507252586944
Ni 0.7558414507099352 7.560604693534903 6.694447247442603 -0.5683888907694663 -0.591056250459995 0.6194438004637525
Ni 5.00417942826411 4.467322371280146 6.881847890932136 -0.713205762108262 -0.17259198456953503 1.0293689185349497
Ni 8.09713727845434 7.209886444233983 8.940146346676588 -0.1403413520659454 0.20866816146680195 0.44456970472826013
Ni 4.642861758188676 0.45237444580560443 10.339986431388239 0.9191716941525524 -1.741207625092356 0.72979709080804
Ni 8.1964888219896 7.227948722492593 4.614250532587811 -0.08533337126118207 -0.6840988174399766 0.9295391534298056
Ni 7.2199270520084795 5.763146626528979 6.964862266018516 0.02633966633579335 2.1041152367634344 -0.8816940089220686
Ni 2.3344773600221513 5.403442303663271 2.2909854850176115 0.1611192080432451 -0.6510578278246079 2.0642279136501935
Ni 2.2284561129383027 5.389039349243481 11.159818279779142 0.04281323851078433 -0.5907598022654987 0.13915118841258617
Ni 1.0777339623228874 3.31582509295503 3.726970856406163 -0.22622956738933298 0.39504460141493897 -0.181447635187952
Ni 3.619197460173874 2.6591657392577686 2.719369728207975 -0.5218814912365464 -0.6562126325526698 -0.7107639854359887
Ni 1.2094515942946094 3.6347450799324084 8.306105399810656 -0.08254115322802559 -0.5565314772102479 -0.42329896827494196
Ni 3.6557005674330414 2.4372088208962235 7.213735043443776 0.35836961459140865 1.5478665809009278 -0.0225431754078386
Ni 4.125860588931118 6.94338672190335 6.1155737620364015 0.4280071723838887 0.44955790197147094 -1.1462756937270389
Ni 0.7228723850202294 7.429644163047075 11.256710144803035 0.8311486918743493 -0.7391039700312625 -0.3401386934056787
P 0.26732892871775504 5.7008119376883855 7.821380187860525 -0.38491779739358223 -0.24576943719447353 -0.11704767164532744
P 8.804522431572488 1.7023066340836952 8.159163718833634 -0.7439091047293899 -0.06785218375728314 -0.04902013865244461
P 1.9531235399622415 3.3300838375683637 10.374693225245741 -0.3953747310608481 -0.6572796403646035 0.46632483701716465
P 4.06106532026787 6.069772727505985 3.590886371232696 -0.7108735144306596 1.6167618612107446 0.5901571356844932
P 6.857140244529776 3.9897715972012 10.453289372386825 -0.396754127906878 0.14386324917627483 -1.0111176856342456
P 6.378165398612078 7.670303290683379 10.30909128297763 0.06579452989730604 -0.1109220183635638 -0.30790194485916
P 2.3923505579755133 8.536319230903095 5.769294470840454 1.7839794688422437 -0.6628193392359102 0.24624123462456948
P 6.997636648469505 4.020884862944076 1.6837098782299071 -0.3068765889184392 -1.0301423063658646 -0.8765787991826902
Ni 5.401243104114817 2.927314861249742 0.4455740521199151 -0.22693096433173174 -0.9182327272780508 0.0017282955450163783
Ni 1.6569796892920028 1.283395172554908 7.043471031517665 -1.0812383537107313 0.009937056608053855 -0.13221846584849486
Ni 6.941457915742002 0.7591952300213269 9.11110977616401 0.08976621022155508 0.49685771549869906 0.6167078895898283
Ni 2.785385372358357 1.5088401656101074 9.321950822381673 -0.5558462782177652 0.5580859661815615 -0.9090901415468343
Ni 6.157686630766706 2.1079417803056293 2.6445464701282946 0.9979721493912231 -0.4333684366958021 0.5200948316497688
Ni 4.173305615255133 6.802052098463596 10.269951840194187 0.3263904905816508 0.5128391785286199 0.5497923587142015
Ni 8.390180618285775 7.076771779762219 0.7140142976586714 -0.8801621456585744 -0.9657333439621756 -1.0952968886863266
Ni 7.653250481069961 3.8491490096808225 8.12509054681325 0.5213148200997989 -1.4238309079735412 1.1803829198233928
Ni 3.0739131426251394 8.373109782446551 12.427161999564209 1.044642813974885 -0.4699207818985391 -0.949562390629268
Ni 0.08920638365108256 5.226001149932102 9.966822827023739 -0.14792507795047424 -1.0045976251275408 0.23878632100842104
Ni 8.482132396127264 2.1068511936443057 5.775942542918074 0.6639614232601534 1.2472891947276388 0.5329940562099401
Ni 3.607831924802563 2.2495287709066814 11.469768416794958 -0.3755461263706952 0.6384784484977003 0.9530652615762036
Ni 1.2315968126985042 3.4025132128608746 12.537760105380453 -0.49453292402026444 -0.2708873153080238 -0.4758507742297289
Ni 3.054715212140689 8.33041466662268 7.985865893104204 1.844831824242926 0.7331909469809373 -1.3395961690931768
Ni 5.500026821537157 7.882580125786568 3.8262638147075503 -0.8260003149041905 -0.5422852517038789 -0.2774953075428447
Ni 2.9818532074288093 8.617139814308763 3.5044145660365347 0.4646965573851223 -1.0727508850650107 0.32754517301138425
Ni 3.514582258702971 4.347979743324927 9.226272122354587 -0.5320951985447545 0.5560203419017844 -0.44368447390982946
Ni 7.373708784367965 5.961317939938192 11.466008146091617 -1.306179284195628 0.9983413598051838 -0.5456729372291893
Ni 0.39177207726506363 -0.046242677062687594 0.11425202178732322 0.9062819826740778 0.5778500361823661 0.36431374798998545
Ni 4.700284300496863 0.2452125522751513 1.6909131580623828 -0.08461654769981557 0.30013001422322505 -0.3444406632151423
Ni 5.810934151143325 5.413708239260354 0.42619585937739407 0.38012628954220984 0.7373018838255173 -0.1804564749192763
Ni 8.030854846162015 8.876095561139168 11.114860872616493 -0.7865053421333617 0.5633487572423975 0.4292842393240994
Ni 0.19655165702045516 4.79785124767723 5.702109825946489 -1.4901460862610079 -0.09286798907533038 0.24319293471654896
Ni 7.594989719261748 8.587252331920762 2.7391832543037347 0.7121251274495737 1.1363756610045075 0.5102313085921277
P 8.483547454853113 1.5067040578519784 3.479561808516429 -1.304365885135973 0.4511172760387908 0.39426555715706935
P 1.7974490538930215 3.177014141128255 1.5473090327935277 0.3170044213810605 -0.12198161861183507 -0.15656167057954973
P 4.888847635550947 0.8760421270135673 8.203514543497878 -0.5524560215892936 -0.006304344951473014 0.19705654536980255
P 8.490848076304946 1.706128193954778 12.311338992197808 -0.24986983251609227 -0.14893937814760155 0.32124597026623386
P 6.389981589628563 7.575764749438587 1.3486960768520426 -1.4319622788314244 -0.3427691890499904 -0.14919108914709142
P 1.7273630879554198 3.3777361654891584 6.060801976233133 1.190184222184531 -1.190130229018144 -0.2059772448982001
P 6.9286322560803235 3.7944664536952986 6.001835487684577 -0.20818839361690597 0.6859145304924767 -0.3323515932610921
P 2.6178856821597476 8.42211407730287 10.10503080159727 -1.178056071462429 -0.008285379937243795 1.5481684284120627
