# total energy = -340894.9392532665 ev
CRYSTAL
PRIMVEC
9.02940841293253 0.00000000000000 0.00000000000000

0.00000000000000 9.02940841293253 0.00000000000000

0.00000000000000 0.00000000000000 13.21545191892305

PRIMCOORD
 96 1
Ni 6.551215019523292 1.8857197062434474 11.241552041155943 -0.5042925745101896 0.12485122685014627 1.1116444768064144
Ni 4.6817753366006185 0.23032395500329966 6.062680684655973 0.2127796125320142 0.11911612413858194 -0.2979093524228224
Ni 2.84041711375981 1.6050947230009 4.961332140831048 -0.42312001949491646 -0.24529275466837108 0.08834824682810591
Ni 3.3511926873646374 4.296409216075225 4.741228573180373 -0.028136867445532187 -0.5033551502975847 0.7179209081957442
Ni 4.722263203805469 4.519516867896072 2.6173726677976683 1.1369410465896743 0.6714957839639855 0.1293650555600998
Ni 7.344358252189252 6.247664368387542 2.501539805252905 -0.4932941665171569 -0.6583389348670533 -0.35534265483962674
Ni 5.091069389350109 4.285339161393435 11.73004845250804 0.5347120673423115 0.8987856742970328 -0.5045661398865504
Ni 5.776257015347646 7.834402304138785 12.31607421266472 -1.291687775447672 -0.06884488668785563 0.3662006806000532
Ni 1.6046432525815775 6.600632971622344 0.5194754085851739 1.7123439067831285 -0.7247798400991066 -1.0621391709874353
Ni 2.808570390380793 1.4794234170782583 0.4111378579420047 0.39164688858729974 -0.37775650375845266 -0.27634473887816924
Ni 0.7094351992785164 0.1413418441773293 4.596056453965511 -0.3405025045030007 -0.6956317577802407 0.2084781569431829
Ni 8.523400340475405 2.294968611951006 1.1520838866075618 0.6894989054096253 0.012412000511107657 1.210475368333399
Ni 6.90689244527403 0.8446090545870603 4.673486339701855 -0.3055506710181641 -1.1349309581381808 1.1119650933706269
Ni 0.639429293117514 7.620901942841123 2.3856536691986614 -0.03769031546192218 -0.5446974606897974 1.7256773906672411
Ni 7.4831583179057946 4.046655780105958 3.8520133382234008 1.1665542414704166 -0.3916648863094287 -1.2417541238420227
Ni 7.591836277245133 3.869146640636694 12.748377906805407 -0.26530853566866563 -0.20279036252978624 -0.9224889314512436
Ni 8.275290256832472 9.182185976350958 6.683754093464669 -0.8149093471973514 -0.6474495416480592 0.25205167065875944
Ni 6.8549101411932245 0.739905840819438 0.3984885597334238 -0.11869729143360849 0.012347980042391637 -1.288834108048961
Ni 1.9473273596642107 6.316134372182009 9.190712446690284 0.11319281667561151 0.6071053335030577 -0.43545154447707585
Ni 0.14034319160978767 4.761640453778788 1.209912732618595 -0.3290605812146462 -0.48781386012887606 1.4907495241729616
Ni 6.507765506367684 1.910415138180394 7.001321998179547 0.7750672754997491 0.42902095836038373 0.3735550640825954
Ni 3.3668948285486775 4.2929599820716 0.522320575167745 -0.2259500884757012 0.2714120774632422 -0.5499358262706013
Ni 5.942560659009323 5.544905513669969 4.8740565881901174 -0.8696483906114442 1.0721775290600437 -0.20881857100173715
Ni 5.3630622581752085 2.8994694446072073 9.224623292826443 0.5882401211674385 -0.6697862574720466 0.26220315727046456
P 0.15812299966355067 5.595226406607666 12.455365478197486 0.7801014954895468 -0.7811854725823448 -0.640313187713594
P 3.952289433059146 6.133144381822169 12.635491340217143 0.7276090820177856 -0.18403159386504436 0.5660712983798831
P 2.4007391017899073 8.435751873268114 1.4287883007287119 1.4670231270902994 0.18404676337369594 -0.3474722509526145
P 6.539503876846064 7.8615627645652335 5.952041537815098 -0.5080918936516217 0.5372050089674942 -0.5434818431151414
P 4.861740475150996 0.917026715728084 12.699705783839075 -0.46583684163715255 0.39664511313283946 -1.3513620513798534
P 3.9001445996273842 6.104701745404845 8.042475088055351 0.7639534249747746 -0.13187239536298578 0.6331364674594966
P 4.768836892262789 1.1103373198736388 3.7738177586558868 -0.1036905336121311 -0.999579088867027 0.9876139460853506
P 0.1972113085685022 5.630224393513555 3.3958692971199635 0.6871540593265327 -0.11306426151754723 0.8704006953964365
Ni 1.7774751585066586 1.085939858413445 2.5874266348839994 -2.3472292386129316 0.1596235973343251 0.19776771250421427
Ni 1.8332407847013872 6.395557048349243 4.791380616181245 -0.3619210793880928 0.17809594510689974 -1.4404487190358803
Ni 5.936781837641994 5.471252629461678 9.310431566604576 -0.2929576648445019 1.1509360753171856 -0.0706045496914397
Ni 8.777695568863058 2.4251094750249416 10.356725098674787 0.11704947141754035 0.07130671796478688 -0.5578329696304909
Ni 2.226886872717157 5.305833867821874 6.91207803451037 -0.07058192398362037 -0.3754610228560566 0.16159743323124426
Ni 0.5357039642781445 9.075819545558549 8.94972837214594 0.3253728479504138 -0.26029308473194523 1.0352832271368557
Ni 1.5316675740022707 0.9490991743167622 11.348901774521634 0.07016694793338885 0.11318613180739216 -0.15974366785195715
Ni 4.0881549410500915 6.924599115119863 1.7122602564355078 -0.12503660338807498 -0.3136031090089954 -0.620872305380163
Ni 5.472742481845443 7.814645958589227 8.079570606529412 -0.5528565994618221 0.1677310569328079 -0.42501466541446803
Ni 5.070446220595453 2.6015802325297632 5.258944150071028 0.6648502536230099 1.3522835347528581 -0.6164561785903384
Ni 0.5722766800066303 7.224890149828102 6.598884878158727 -0.4000708509849368 0.43256933783327434 0.708674964117444
Ni 5.1601172752813085 4.358405134056606 7.195469628482526 0.11028335633830039 0.794640055425354 -0.44445066265189265
Ni 8.047812371352583 7.3269405234117855 8.963578581669918 -0.030492255051586196 -0.9178642881950385 0.1693289975475471
Ni 4.543652476513059 0.37681797960593855 10.2313237720629 0.31327477913529916 -0.7152549313278068 0.6744846913889804
Ni 8.049952341140171 7.395871027033961 4.419696758183843 0.32000489877028115 -0.17624860748551582 1.1382368825829625
Ni 7.02195419634259 6.130327206405596 7.085742451888681 0.7716687913411614 -0.7162918572327535 -0.5091378184176328
Ni 2.2757088838627038 5.104423884353672 2.577251394573306 -0.7546534877300873 -0.04505909712216756 0.12873436395463636
Ni 2.3790053158037168 5.319946833129899 11.404551824289017 -0.7163178253746825 -0.8495657609289561 0.756406208755136
Ni 1.0255060280829205 3.1973315684594916 4.015118765434596 1.354039083991384 1.0264126641201035 -2.1097097001320764
Ni 3.4863629309098263 2.5564512494142755 2.763060366231397 0.9239511178190668 1.0332739100163109 -0.162866529751655
Ni 1.0759172151044831 3.557343110235727 8.372292288187289 0.27139742217522295 -0.6433889984254404 -0.9064393341875486
Ni 3.6357906102972235 2.6205149019161533 7.269675112484067 -1.0326164789379702 0.670981049111096 -0.9732970152420464
Ni 3.9806778930261513 6.952120751881769 5.910254338743435 0.6014697324838352 -0.1713984784820661 0.774151448553699
Ni 0.8444799340471338 7.305883943054579 11.235011137720797 -0.2417019519933192 0.5394259278782129 -0.0024949985077118322
P 0.15317849563112948 5.605844990870135 7.9916747335323315 -0.3968731699832455 0.1917770421384181 0.13498702973256752
P 8.592303755872422 1.8405004290440947 8.10017300764478 -0.51774175803656 -0.09691182012740084 -0.22115343841800622
P 1.9785149362310166 3.2245281465194857 10.366504850898153 -1.1716108300577177 0.32088627293396993 1.249311110253674
P 3.947422581938848 6.214074969189941 3.870330396076158 0.06549319660680333 -0.24953430355354445 -0.8277882600425486
P 6.983046475605368 3.985662126455473 10.456792614176806 -0.040535241109885024 -0.4614839639850955 0.5356952571911872
P 6.170950514736245 7.732902724466676 10.128044495997822 0.1334561949103379 -0.9584028717390334 -0.018011863196388336
P 2.3240794245889282 8.487445236280553 5.807728115337787 0.2304443768016289 0.11300795435831507 0.09093066284330147
P 6.696832288571606 3.973138337023464 1.7678046621247685 1.0234738932067535 0.44793862120049305 -0.676553658102867
Ni 5.233156159719321 2.827116795206566 0.6144792318640693 -0.033533612981071284 -0.5611764321814271 -0.2587936173682833
Ni 1.4732473017419252 1.132242664619172 7.083588035047674 -0.009674289864970435 1.7679992913639033 -1.1721080814091105
Ni 6.995579294445763 0.6241443106009277 9.14418119645238 -0.5480558356390691 0.48362836129261877 -0.6986759439232032
Ni 2.743215532479652 1.6148645428750412 9.193844748459545 -0.2587825616246898 -0.4808873082123719 0.4100994388655324
Ni 6.462094758749009 2.04236188293162 2.7374358081714845 -0.08858221721578292 0.5636305501488744 -1.139017983723361
Ni 4.152399181719699 6.741419507183907 10.4934122828289 0.041867329657747254 0.709664581724223 -0.464518122825729
Ni 8.182305409268787 7.262750459192497 0.301722195937493 -0.9888768719581743 0.09080750700187587 0.12901744241269394
Ni 7.56547943416508 3.9490930224903416 8.148991407026973 0.7382297949564254 -0.4084235938250063 0.2173618325860579
Ni 3.065682794185019 8.233059713809036 12.390477440709924 0.6547794996505691 0.011647868651573488 0.006675869358278825
Ni 0.15987199606800648 4.862860121790916 10.211487064778703 -0.36426566836086943 0.2594857583393015 0.36171924778993186
Ni 8.630299506362613 2.324594100866956 5.518706685236678 -0.47762200719753867 0.08338473217524349 2.081930730246595
Ni 3.6260569080566283 2.4719540457338556 11.57442298720418 0.36833315356202373 0.036198561407744106 -0.3642957502678565
Ni 1.1661480931102997 3.3210615515790463 12.531499643830374 -0.27855048828023643 -0.14177808451247195 -0.3174417660287952
Ni 2.883965950407669 8.467824331856793 7.944283883616038 1.2122861962898928 -0.9693382877046145 -0.2148454939221074
Ni 5.733863942973253 7.940127646935753 3.61212633679801 -1.1534297882733169 -0.18485563242823647 0.5579720663115165
Ni 3.0130142550668437 8.34696570060413 3.606536230065957 1.1531400249470398 -0.4182135833322346 0.5412825214709776
Ni 3.57405654515905 4.320842795168964 9.438501986335499 -0.04953127396090824 0.6092069532270928 -0.5684855642483306
Ni 7.431510101935289 6.150832992851229 11.421903638385261 -1.2072288363716435 -0.6954258124170217 -0.8020885412835993
Ni 0.6703938432971743 0.012247489535383745 0.3251435783511113 -0.376769457254835 0.16536461358316037 -0.1268335473874977
Ni 4.766561481349403 0.39833776861337006 1.7184715864645481 -1.2367155329768507 0.18272778745195625 -0.12348905639529702
Ni 6.100728805714806 5.585348233832888 0.47981102342516674 -1.1821860344704027 1.0310658466213984 -0.3621545355551376
Ni 7.8020228456649665 8.595789107509592 11.140745017107076 1.4685187377992193 1.0071026509375816 1.2297756113239078
Ni 8.959114442163655 4.80642631937559 5.710661072242588 0.4220301288648473 0.8086556529781557 0.3352628533706162
Ni 7.7477019248120715 8.913281165194023 2.399753993334945 0.4500548962125474 -0.011512114404657594 0.5220444991769719
P 8.645514059493784 1.600561959990901 3.4571889124131996 -0.8141416157933913 0.35766796053869365 -0.7829798454786063
P 1.716021005028465 3.0444004786181513 1.5228295890736114 -0.22568192241597906 1.0618501789921067 -0.07899148820355428
P 4.808475995079315 1.0704544230306796 8.142370141857187 0.2277794283749561 -0.7205634880249138 0.26646527498092826
P 8.621243009751002 1.3907997737652302 12.30751072175101 -1.022929076446877 0.8148712948705643 -0.16180517836667618
P 6.136819351035456 7.826086219014862 1.3240029193447729 1.3741672221998267 -1.5969162872397271 0.23831658046085405
P 1.7562470193901096 3.339526691729341 6.123062144417856 0.20639042117621872 -1.054448744321713 -0.5261844894872745
P 6.954712192088681 3.9082891259919643 5.924487395183 -1.0107081089006527 -0.3166182416862354 0.8716582219526213
P 2.386183695470946 8.411932293944654 10.040954949169652 0.1451385163442726 -0.07187133221900524 1.300771225806179
