# total energy = -340863.82118517 ev
CRYSTAL
PRIMVEC
9.29014657670846 0.00000000000000 0.00000000000000
0.00000000000000 9.29014657670846 0.00000000000000
0.00000000000000 0.00000000000000 13.59706857742017
PRIMCOORD
 96 1
Ni 7.395699982755518 8.955682835866186 6.29143134065894 0.5370918804283975 -1.2704707750504247 0.5051634071509171
Ni 6.2045359535261095 5.1890578884886045 12.88107453227062 1.3272415041825656 -1.8908833671853498 -0.2363841393248316
Ni 3.091138381019736 7.978312952580846 5.834175894307773 -0.11028824143430684 1.4106768870900868 1.139025697032845
Ni 5.740428094971044 0.4090182176549787 1.2295648506025363 0.658320422924292 0.13829321128766506 -0.5971189117143071
Ni 7.339122989369198 8.349008386094953 10.662440716646882 0.1789112419193435 0.683871531920519 2.489108110369326
Ni 2.1924095895267097 8.352928828001197 11.873803382825473 -0.17400891952171965 0.06092254651698541 -0.788653755934932
Ni 7.777580752893128 1.8081877024213902 5.076914669676627 0.044345873105226856 0.9705233091516512 1.344601078506936
Ni 7.260472607430187 2.7931104749716043 0.9947043680077602 -0.18696265146891028 0.7847402798131388 -0.4279773475872178
Ni 8.29319318473781 1.1431246806578714 11.820476082753856 -0.34209453158046893 0.7769981739738748 -3.0395093063121204
Ni 2.812396819515118 7.184869393607878 3.7181183044271733 -0.33305427575507157 0.0635898089365034 -0.6358597799279307
Ni 0.4742471246604572 0.466897689608254 13.192950330985688 1.0813802786052342 -4.178540145551287 1.225559002139399
Ni 5.603008245025159 6.680813904254588 11.046530683669099 0.479470116149871 1.2578937097163627 -0.26795008705657075
Ni 0.4975951213400135 7.8566213209934235 4.298957785247993 -1.085416396347821 0.1286086370100495 0.21098318275322375
Ni 2.2630054142791955 3.3440719149993634 6.721643169974381 0.4298923052217435 0.35989530720731566 -0.20878437532969205
Ni 0.871627575547777 3.9855008035650505 4.804388216312477 0.9227537550768559 1.5263474758822293 -2.958388944691021
Ni 8.911006520399058 0.9459691874485989 7.824052853716836 0.1965271552288938 0.9144526914103285 -0.14753709848343624
Ni 2.92533713291372 6.184952324288283 10.55583999935449 -0.7797047742717604 -0.7952499210952111 1.4060404167593399
Ni 0.9508743849047527 5.800386701755166 2.683000869271658 -1.9359612333605947 0.06590714421577036 1.2598428630229337
Ni 6.514771112334443 7.137257391784415 8.934307137330459 0.0644452149582632 -0.7818447034328987 -0.8849942769398952
Ni 4.705412851429198 5.785810461587163 3.5503847058081264 0.5146016697456814 0.9803662633840019 -0.5551045149557343
Ni 5.766877142618145 1.188674269914542 11.74824797922666 0.3680994402846628 -0.702606389325861 -1.0679074409297802
Ni 5.8501633077590895 1.5782287012240892 3.9759458876869176 -1.0469069274187133 2.476776585387167 -1.4430902704237858
Ni 4.858133572985471 5.288852644310582 9.428846729421743 -0.7661103234167773 -0.708406798057722 -1.902699128873355
Ni 1.9467130798242487 1.8654800371033986 8.598732174390676 0.15159584193384215 0.6134788411295693 1.1448780420485638
P 0.8079919287008788 6.60225642378255 11.493153557125252 -0.316017631987759 0.4159695244930643 0.2931214441158759
P 0.252188464214507 2.5678801584432094 6.0308575900354855 -0.31264048798540994 -2.281757639272683 1.4856847080555444
P 2.5467636550003347 6.690076180511758 7.603698006175163 -0.13233982191770757 -0.030175495142115774 0.6841818640720863
P 1.5322889258061336 4.186725381027723 11.180325518373714 4.706221531299063 1.6829261157426436 1.2562122082488816
P 4.351216718449426 6.135723836939498 12.535708683726593 -1.2040239562811006 1.8591497835274948 1.4187902602258404
P 5.553816918263162 8.999383685930102 9.947819407326824 -0.5877256434248652 1.0347445810245663 -0.1815787614491776
P 5.786535093029549 1.0648551947334477 6.342202921374141 -0.47588754100493524 -0.0589368835455243 -0.7514491218601769
P 2.818305352814576 4.88391373007037 3.7912568423307 -0.7933712160152595 -0.4786337362915047 0.22738964913570514
Ni 3.709927182084198 4.596142145976014 1.1683836605130544 1.329566809881633 -0.11235232305218716 1.2012003707893764
Ni 0.21875601329507394 8.444455353262612 10.261217861085575 0.9528608588748816 0.7759532776491281 0.16922589631077953
Ni 4.295633770759714 2.8487120029547115 5.540288606642611 -0.28989830919288784 0.39284039467476867 -1.5803092748106653
Ni 8.395691373248688 3.7827712223374217 3.007223272947387 -0.017003733646848134 0.6315824927088155 -0.004374217808295692
Ni 1.637611318912981 5.097568523813978 0.32930504293380064 -0.3438040580724079 0.46141737241321823 -0.8852452166084367
Ni 8.057530033468389 6.445076431811591 7.114557847344327 0.1475782361340168 0.6895814378211027 -1.3000623726646126
Ni 0.6538470276559156 7.3617166261369364 0.5780784492223945 0.046147187980023756 1.0015683513829137 -1.0836490200347533
Ni 0.6866133750571551 1.5416719739703673 3.9605409664335194 -0.09585766783127361 0.49879761283388935 1.1139916368823524
Ni 6.206022376997672 7.289560056739311 13.75316289909458 -1.7406880051434603 0.7566867161100324 2.135652131029451
Ni 3.9395424478537002 7.846578672413684 9.303386085319243 0.4623182869609328 -1.242086567480777 -0.8565059396922152
Ni 7.194809850573947 4.776984141584896 8.294266196681344 -0.4720802514437031 -1.1121250159872589 0.6772285726827046
Ni 3.6790560246092 5.719079337860737 5.8244676910091355 0.497879214784678 -0.9262417136254564 0.1865150224085304
Ni 5.1795354881239115 2.872281105125662 13.231824020825707 0.173055811579831 -0.596041105269096 1.1559602680046543
Ni 2.836244626086987 2.642266363048178 3.7141077480979656 0.2029903943557343 -0.05762536382295237 0.674012122627936
Ni 1.96705850109125 8.695772401716916 8.545309185808078 -0.4006064117734327 0.04888309885394807 0.058945625296272675
Ni 8.509644312637292 8.159805258458537 2.1691944419449243 -1.4674787265704792 0.11322392702386307 0.6274558721349516
Ni 1.0457453629771818 2.4695718260927935 12.315028681050517 0.6871769421446682 -0.08573934845034913 -0.6221815111098898
Ni 1.5057376865453618 3.630895904130599 2.0853146364300246 -0.48661109807002645 -1.0124297195774499 -0.1683218964392714
Ni 3.1107313004042596 1.8927559078065568 1.2506757799573918 -0.7916876576652494 2.756628566087646 -1.6654325869435704
Ni 0.34721923281012895 6.362161872538537 9.14689728026256 -0.481439581171416 0.07858371124217432 -0.4301548148545108
Ni 1.1494884311454951 6.088947948318789 5.796865736156904 1.284377614939504 -2.19627360136625 -0.24167289852759669
Ni 7.911990595309099 5.980727029442396 10.994793856712054 0.4106961919092669 0.11536642728816261 -0.9504851595538533
Ni 6.56870970405874 4.018936041528493 10.43156199092655 0.9369662991318122 -0.7118348499026644 1.0232980297505216
Ni 6.128505392955726 4.105854654028066 4.110366878278926 -0.26583226938261956 -1.3862287813500513 0.12020421499643813
P 2.8139111134267716 0.4589202406393161 4.603885483248182 -1.038775042340198 0.22917733716374727 0.33205077419122164
P 5.766524117043649 5.288304525655444 6.673414302410221 0.14770987661587465 0.0622518068513702 0.5533589930195374
P 8.556197237737267 5.982677960248821 4.666487136767675 2.4234061401858265 -0.451657464812977 -0.6608611870682748
P 8.279676021293294 8.335974310278695 8.308067638614794 0.03689147370971066 -1.871128553155926 0.8194648277785177
P 8.258494486823539 5.339103047796067 1.1976039589199492 0.859038733416398 -0.33122827828992635 -0.6461439354627582
P 7.477880620439489 9.111748010233473 13.214936392159427 -1.235296284031821 0.2502297869586723 0.9440370899356644
P 1.528275582432917 0.904087348108007 10.547844899106828 -1.0256189645742142 -0.18735397337005796 0.8886809817628631
P 5.057044903920525 2.8013415449453776 1.9373922756428865 1.140684058571874 0.05833858783989308 0.6159100762788812
Ni 5.740623188051686 3.049286270148576 7.177933370083702 1.0575142706209142 1.7292471102963705 0.5357806178161418
Ni 0.5976676525482391 7.916579927777547 6.688710528947261 -0.8695627728761735 1.9031691265312385 1.9245910438504403
Ni 4.570389859331207 8.548244872164412 12.633961275196825 0.443945697991016 -2.1316124137424386 -0.6003811274053468
Ni 7.846411449773134 4.199601524350126 5.665463114226835 0.13818368229299427 0.015738493781179346 1.158916779529817
Ni 2.706777141713958 9.036116925971072 0.608215685108309 -1.033842380925271 -1.15479170161785 -0.1852909201934422
Ni 6.220756549659527 4.9987492333952135 1.9148478766526433 0.09475286480286907 -0.016251428861855884 -0.9054214344459955
Ni 3.946370705676187 0.7336085111399194 2.8510336106143566 1.0024299280522608 -2.1154136924953892 0.9954020746712019
Ni 0.028036733717663898 3.5556921666162715 7.934977205282132 -0.034847960917120634 0.5602500637124158 -0.5870448153077568
Ni 8.187731439430502 7.163947983245645 12.992230208488676 0.816932034054335 -1.4025285469513395 -2.105079914669549
Ni 3.6568804444428378 1.1504174458152212 7.002843833309765 1.5623277506315802 -0.5062530406706701 0.762128455950894
Ni 4.456121054954897 3.0796650498486193 10.55513209017616 -1.105007431105871 0.512515476640614 0.31874223000777363
Ni 6.608768816617329 6.412830332625398 5.0494074743207085 -1.8129331757621163 1.0008777530737925 -0.2132938331642714
Ni 5.679512603077103 8.784772007076677 4.578975812908816 -0.5931085050033333 -2.212149649166558 -0.08424245218984845
Ni 3.6216614983135216 4.256893859032136 12.412913382711537 -2.469846691036553 -0.2512268607646189 -0.85260454775528
Ni 1.5335338054635665 9.152894069955643 2.65161875372831 0.37561965992110796 0.11793958733197753 -0.8645030989650788
Ni 9.083171518992698 4.0178583845116105 10.374468465383863 -3.1714765753817575 -1.4237092947940126 -3.422228553392487
Ni 5.32905110906963 7.7468303673251935 7.043770645569878 -0.6042251837417852 -0.3628502760705815 -0.9883492815894787
Ni 1.487166683297537 0.697460550340877 6.576698301203715 0.588234978961116 1.0156016895475284 -2.6801716713804873
Ni 1.9343664748635887 4.736386200517866 8.769320635089793 1.2213308229906643 -0.24823358246424992 0.1251798138341586
Ni 5.643188129490813 1.8372751517305141 9.031064015182432 0.7349305553798633 -1.2801862025659758 0.545220423072803
Ni 4.231002220186869 7.477750558385726 1.5708969174506107 1.8211334521847218 0.12812475539509546 0.12208317718670586
Ni 7.915520851054058 1.3001653204283707 2.720229274131592 0.4376999741916204 0.7638744921077231 -2.085291676299028
Ni 9.038262949858138 4.443811610581026 12.61508834218134 -1.4725101183467995 0.8951118249898714 1.8100481409048377
Ni 3.632242975401702 0.8007446852623457 10.217775277099843 0.33207648522283456 0.09539641192413893 0.6954484381248409
P 7.266074565888635 2.9070912848002988 12.281715144008809 -0.9092588059142146 1.5785776368315392 0.5378729815687963
P 0.7154602095668201 1.9412226031261672 0.9110280167055306 0.06327664857145877 1.4421441044604324 2.186214417358035
P 3.747756659435445 3.3892406082414466 8.477336898482898 0.304620703004727 -0.6430082180472538 -0.021371009476608357
P 6.169168365049637 7.382740228112839 2.516722107625402 0.600351816829308 -0.3131932751650864 0.6004423196605854
P 2.295102871118232 6.9699418497667445 1.5407652556527145 1.1345249809490139 -0.5802131370979039 0.828458803747012
P 7.988244119400218 2.3913116303150668 9.056735477550973 -2.2579402251381118 1.0378365896863289 1.2819072990221407
P 3.68645098138022 1.0668061255398724 12.849977624230876 0.2809706676859548 1.9165198368065315 -0.8584658916320633
P 7.909733089661665 9.161682548731251 4.1672569496089436 0.6586538950043108 -1.740695461342628 -0.17208393458486493
