# total energy = -340893.8461964669 ev
CRYSTAL
PRIMVEC
9.05430258635503 0.00000000000000 0.00000000000000
0.00000000000000 9.05430258635503 0.00000000000000
0.00000000000000 0.00000000000000 13.25188705806723
PRIMCOORD
 96 1
Ni 6.429568835480605 1.9751417579861787 11.491678139530748 0.0560338509661164 0.0274624670863269 -0.2960892684949481
Ni 4.719926388818271 0.5952334660898975 6.101447251984435 -0.5482247571167654 -0.9619869895458657 0.201608169296227
Ni 2.834956429129476 1.6194344311550715 4.746719880687095 -0.0469408875259127 0.5188432186308549 0.09292069669013674
Ni 3.394023389433746 4.129785062437426 4.370326189003088 0.2679117776194676 0.7572348753040185 0.8495284799331175
Ni 5.342119945942438 4.593691303783418 2.7078113866964 -0.7913220467957146 -0.4939965919008202 0.13399278414009827
Ni 7.415781569103216 6.190888368072501 2.2516013024497945 0.23696366597738544 -0.4901070270384269 1.2376473007625008
Ni 4.904018466635562 4.417503632022319 11.678304516609353 0.08616049514816775 0.5705046515608885 -0.19924686815290202
Ni 5.5544161759533575 7.711875368472733 12.426585573638116 0.2506964421824457 0.4487590602192594 0.36002180548285095
Ni 1.4767024070201233 6.827161365537307 0.5340481117195393 0.9582336931510207 -1.494968961570948 -0.837230636402371
Ni 2.8557722705076953 1.6954453003895864 0.40134010584897845 -0.5946305980748147 -0.92806051200175 0.04907078938472194
Ni 0.7083968546490081 0.12896948438075367 4.796069450868846 -0.5650294873789301 -0.12044949823802482 -0.15791792749712802
Ni 8.778318276280814 2.28303331347393 1.2162327607182888 -0.8111521941477644 0.06425521043464417 0.4062481834402422
Ni 6.885407693325948 0.6539053460946211 4.848838831093465 -0.1957735648923209 -0.0802047917853651 0.26793234644475794
Ni 0.7851230137786421 7.757047283494888 2.6913787331438424 -0.3134033342933634 -1.1211292763683982 0.17324067389712744
Ni 7.556929090305937 3.960632583695413 3.9062850385502963 1.1418310276921237 -0.061417226765216805 -0.5052901625367685
Ni 7.479134523484859 3.966028947967452 12.561052830478571 1.5517468897919404 -0.6328443901403746 0.23740692416239115
Ni 7.8099063013139585 8.495914582245732 7.049738756002758 0.020642358840699933 1.2627075861652381 0.08799831968785489
Ni 7.019692053256511 0.6681984679735496 0.5141947426938669 -1.4381869195848973 0.5700814479805408 -0.7638973749258586
Ni 1.995459612728555 6.283984706067651 9.290262119380673 -0.592815913463579 1.3252882371109371 -0.24229304861009882
Ni 0.22138493883016935 4.660602599035717 1.4755181042570653 -0.9656945203044401 0.4552238420079967 -0.30642870274774325
Ni 6.479195467317935 2.0480017299611806 7.054178080503733 -0.3904680377878501 0.08923322053622053 -0.37205688227051403
Ni 3.4482948784381153 4.389543945995377 0.46179025085878356 -0.3053472967581064 -1.091444861930088 1.0389745599455138
Ni 6.13264204028386 5.6623162984867355 4.894319497829843 -0.857027359413324 0.280921045394942 -0.4710672367981565
Ni 5.28981324057403 2.979173358869482 9.279488404871781 0.021810925227504375 -1.1110412960047769 0.0884929999360863
P 0.28484563941120444 5.493462611726228 12.564895476446782 -1.3136388257974667 -0.4557912844756925 -0.5741453336372692
P 3.842591642395786 6.126693363561159 12.67085797825161 0.8579516709998063 1.5965295933242696 -0.5663605474855278
P 2.25625068676807 8.612099391539036 1.3772816387497735 1.2379902859242162 1.0094559816611066 0.17522813664080145
P 6.378683655599966 7.712654038485141 5.688531220427735 -0.9938005345120369 0.26173033139910407 0.1465207414037799
P 4.819016675048472 1.049457036374615 12.715476675392857 0.4763189721153991 -0.3539180065779582 -0.11250144703554174
P 4.024619339249947 6.17154837799687 8.052111608673583 -0.0604144965323153 0.5095162848029741 0.8133774839338572
P 4.807988534640176 1.0568000756776754 3.9622741287331995 -0.02950186611385887 0.6329330931994389 -1.1362265370211528
P 0.1472528373581516 5.680415849123996 3.637576882431132 0.7057349076525136 -0.7363449192288867 -0.6908950144262037
Ni 1.3442107989785925 1.1288994862452084 2.600708948210617 0.5007827615847182 0.4673748755482338 -0.11417780629670013
Ni 1.8814931075403676 6.538673180242476 4.746574106417331 0.3695104616995765 -0.19032693995545286 0.42675401670307794
Ni 6.151293903371783 5.847965716328844 9.036859356156567 -0.7884825204643905 -0.8437308994147339 1.1795221144849943
Ni 8.594289578580813 2.213514379110308 10.089841232482701 0.16410708702697546 -0.13930288349910203 0.12578993661433174
Ni 2.3778680775432934 5.108654756756975 7.102839523697774 -0.2899821271559458 0.3125211887987263 -0.5894724509126429
Ni 0.6486900678719789 -0.03002949957155347 9.147658666340797 0.31510360481392186 0.20858434350374402 -0.18296072939836877
Ni 1.3837147206546123 1.0541924365663542 11.419031849094035 0.6042822622319658 -0.5231426173371571 -0.3116105040589988
Ni 3.9148178131978972 6.826047686333514 1.5745757949983736 0.6126190642324352 1.054717167491751 -0.6619014554073309
Ni 5.409538282133051 7.902051937549772 7.9840893505082295 0.46162280355580504 0.46589829100270735 -0.2060224963138387
Ni 5.388025259464653 2.9968745201980673 5.002189741165071 0.19377016130904695 -0.1548868539802881 0.09823850935862437
Ni 0.8509668067697457 7.575381758739522 6.93750886602829 0.6945644928579909 -0.6633507862593478 0.0024155514200280975
Ni 5.010560443798461 4.459850604673876 7.150996642244244 1.1002938276802856 0.2615557534944528 -0.5730256182105292
Ni 8.265826647881529 7.104594247516433 9.197604915055312 -0.013055033411745258 0.6381452335279978 -0.019349865281521515
Ni 4.783098257150518 0.29745194473999714 10.436536812065553 -1.165050917452013 -0.11306811817228915 0.363167035980052
Ni 8.211826787951255 7.3822625413597756 4.476089496153579 -0.4376179560007753 -0.4416378757934459 1.2586830383868775
Ni 7.248974154700897 6.191830015529367 7.0218569369770565 0.6308510138594297 -1.2242572526088398 -0.2871708829593958
Ni 2.256440827119937 5.283719695011811 2.5892733641911776 -0.07615813251981723 0.5002759971516287 -0.02434680427548065
Ni 2.190226713157816 5.100686970583494 11.640298176561847 0.2036308561532106 1.1774366927108755 -0.6397984528607045
Ni 1.1121399723734886 3.3316573540213175 3.758699002861254 -0.9451231239109915 0.34487672231129635 0.06361089198242594
Ni 3.819666148542088 2.5130035419060253 2.4830989917085557 -0.6656444673895311 0.8075009705484221 1.4999623010204812
Ni 1.0045114789142062 3.1998719815724352 8.175619537804513 -0.17605860296189677 0.42279400361406544 0.25313976151661566
Ni 3.470142910297899 2.729926520479045 7.372620614659618 0.2700869308939155 0.04316162298913857 -0.5862631999467258
Ni 4.158858427668162 7.069870997544502 6.008922240475134 0.2336831954539008 -0.5870615274783051 -1.1695189805256956
Ni 0.7543519668348068 7.399520041867339 11.202031908950019 1.1493139663327303 -1.5322841530816387 0.673502272871053
P 0.22943511915612608 5.682887673698269 7.958739114453102 0.7135947700165646 -0.905924085114027 0.284398205310265
P 8.498920610665728 1.3795678501234143 7.821793695026645 0.884384154159722 0.7808172906096489 1.122336923523254
P 1.9696639049919105 3.4154187061700365 10.342726995035775 -1.6968517246848003 -1.8384030378984468 -0.5378051044453384
P 4.155155217957987 6.161398504928152 3.6410881409289457 -0.9472486548944266 0.0031022930744075603 1.1812514384712751
P 6.650077317831692 4.181602835472463 10.517386300539963 1.3071689018024069 -0.5091501597128071 -1.071757667913806
P 6.350352743171759 7.855874994953462 10.169060946512536 -0.22465091004830343 -1.2284934021773746 -0.060276942513186514
P 2.529627241240697 8.502560440258613 5.743023634412369 -0.45308057041274874 0.5538156209409817 1.1630940508359582
P 7.04928151372803 3.97420498309774 1.5682287289669985 0.48826148918925594 -0.33579738571784745 -0.3380566140656694
Ni 5.2677388511525 2.7869052459219037 0.7174276159324513 0.9089415317841121 0.3811020231919178 -1.3761148328445012
Ni 1.5961739281099891 1.2039958709302667 6.8524980201387296 -0.29173921905636857 -0.4958984369092233 0.7550741202072738
Ni 6.770399943353724 0.6483070708775037 8.99918440357946 0.6844420597120083 0.10402246303025312 1.2259654935491981
Ni 2.727970791145554 1.4981158323613537 9.27777895256547 -0.08857810345072488 0.07256475874160406 0.8230240058846857
Ni 6.371096150130219 2.0314595193487377 2.7297028792080393 1.0134154805294868 0.16135497820313502 -0.030412293743270202
Ni 4.275133779986165 6.742295388487264 10.401935795176962 -0.5105609240174046 0.738799037196334 0.561080272923195
Ni 7.943276176695067 7.133884916006447 0.024951846746453312 0.02629030115509666 -0.11973601711076798 1.0597346753110009
Ni 7.496799467603565 3.814641010671313 8.329897608449032 0.3985572425538878 0.3158659369012431 -0.08937077455534931
Ni 3.208337754381759 8.513624797876789 12.544713436241453 0.05935494491954939 -0.5056876550855033 0.46132764091288936
Ni -0.06046734818449784 4.7142674497746055 10.065762220494342 0.7481681371160599 0.1382728995726909 0.6262561953998956
Ni 8.641652634800675 2.153692602691912 5.750047056838244 0.47943412070561303 1.6688974055637193 0.8709779080561452
Ni 3.698094029279214 2.479593165792224 11.46135799684991 -0.5414671266779578 -0.16803521843678804 -0.414637435945202
Ni 1.139103685128746 3.1303349386038746 12.630479410957 -0.5598751968715002 0.6969695027550578 -0.2659873069032452
Ni 3.000369480951435 8.451593771655745 8.064183710156652 0.1225781145452534 -0.5194008909065377 -0.12298280618283981
Ni 5.50871005708548 8.010712621490619 3.4955963654011826 0.17811857081471905 -0.8609634612429367 0.7723002542775732
Ni 3.0726952490807156 8.488806954806888 3.641578884122812 0.5081227468895572 -0.7254511551345183 -0.8023633922115407
Ni 3.5595360385828734 4.554495228391373 9.496235729976885 0.7731757149039911 -0.6693671676567569 -0.35544292786291687
Ni 7.353334044968558 6.1424840670686045 11.327978161736088 -0.3681269510884886 -0.6405227326212388 -0.6141362722079101
Ni 0.3053065521326048 8.909940671285238 0.2672205342233657 0.8849857922994631 0.9405483600561156 0.6922260745328013
Ni 4.578253718072298 0.40030972622790784 1.7087515032992995 0.13057373115622026 -1.075433059882864 -0.885198165420585
Ni 5.9529322448619855 5.480288601632574 0.3386761838852914 -0.6945637215270425 1.016517002272946 0.6113579381318246
Ni 8.01598222552808 8.635658686565625 11.321524254935566 -1.3758099000095725 1.4280143499272697 -0.5310374467042016
Ni 0.13163778731862283 4.8253094152650275 5.8796630184153456 0.1779977289661386 0.2010911204504924 -0.3580559400057317
Ni 7.714446790374175 8.890084585968825 2.705836643327723 1.0592142840311565 0.6693327148743957 -0.30922117789121584
P 8.511931643314924 1.7412238536772227 3.7031073965567782 -0.4871201764959611 -0.45351097308194804 -1.8492510363565444
P 1.9029699129988866 3.244047923322906 1.6484290239543196 -0.19566969232460496 -0.3506707032852542 -0.26245769648343187
P 4.712492806490513 1.0222941289650207 8.24299169705253 -0.20681902407320507 0.630679521278572 0.28001653130280163
P 8.479698326522204 1.4358856114859733 12.319298427381948 0.11083151553228654 1.9385215378886032 -0.08202461860292326
P 6.35224509238796 7.877478560646559 1.4081459450090485 -1.0636566360732265 -0.931395489912254 -0.6019063058006214
P 1.8981530240849185 3.3729540275863705 5.854021233820688 0.18080665916984348 -0.9081653157397198 0.46155106977760507
P 7.15506292948346 4.017837666700018 6.120132615991496 -1.706150633488223 -0.1181373051650804 -0.07724622337767342
P 2.5583474886751074 8.365070857253716 10.472449797382023 -0.43015275797198177 0.38108711079358243 -1.6239601787313966
