# total energy = -340895.3300758149 ev
CRYSTAL
PRIMVEC
9.04753763537535 0.00000000000000 0.00000000000000
0.00000000000000 9.04753763537535 0.00000000000000
0.00000000000000 0.00000000000000 13.24198586849766
PRIMCOORD
 96 1
Ni 6.371384455720259 2.2559672776039372 11.705796261541014 -1.052015195179556 -1.154819726642308 -1.1820075999110093
Ni 4.483154338520788 0.38086423251741586 6.053242276702757 0.4157841479551356 -0.19074011623347148 -0.26215662030324527
Ni 2.690520502212782 1.4523288095078293 4.662490102451336 0.21949867642340265 -0.13859788701227743 0.7116366178489293
Ni 3.655024186497632 4.063990975145749 4.887074410769012 -1.0784870162178393 1.0572216790811597 0.24567533481877044
Ni 5.1022139947233915 4.471926344522463 2.8917449735407104 0.5002094055797515 0.5044566108918795 -0.44564545429094216
Ni 7.157615461727102 6.1788438108545325 2.481535053244432 0.38353814343723625 -0.5164209823426072 0.1658649502583466
Ni 5.333387624579327 4.576072548321597 11.545767037814356 -1.3544334912163254 0.26150767386533674 0.28458461028945825
Ni 5.6060080235781555 7.8299832086937124 12.377098208593843 0.05274669557441238 0.396566180265788 0.0017848598145646679
Ni 1.7449533138493634 6.539505796958685 0.4941683537420981 1.6469155019759896 0.767151363086782 -0.6937587091272439
Ni 2.7549842066753687 1.567766340067568 0.2380407107944767 0.03494591994756562 -1.1130822376942056 0.7782855253267306
Ni 0.4431619565100593 8.994681754542583 4.699871813009662 0.09789423864532817 -0.6665173569127876 0.579383442107757
Ni 8.717229970535612 2.35353592166352 1.3947918997310755 -0.29596765531541935 0.33212250796942155 0.18271930281152401
Ni 6.9364755509236575 0.5795336792642587 4.925978821883275 -0.6589120337617039 0.1478021792193648 -0.3609738849834751
Ni 0.8480826864022921 7.302927961007607 2.645483670202416 0.2780606931280114 -0.24839221952930127 -0.050211073636752236
Ni 7.3881738590351835 3.887491614211554 3.682820935861899 1.351189530357731 0.607366043363612 0.9120672218972873
Ni 7.508415631990661 3.9887607010957264 12.709511973214052 1.5378192239672548 0.6636161241055926 0.2789569796900357
Ni 8.001108332371658 8.723780387662757 6.990510158946382 -0.5899879570964807 0.8850860653227531 0.32984245368599324
Ni 6.89310165629999 0.6969924296944455 0.29504200635309935 -1.128902492555914 -0.6375875612523149 1.0000809682041099
Ni 2.0372430593045654 6.511042244082994 9.169094753336557 -1.0659724286905965 0.12989547414227307 0.11955655411011024
Ni 0.27163964593725015 4.869728471934533 1.3126755449138292 -0.9027657419907033 -0.4163400204586055 0.9688999146156153
Ni 6.231862380419551 1.97710407775189 7.054548629147952 1.2032163727781406 0.22199881713743705 0.30823104606380464
Ni 3.651477551810006 4.447877989931367 0.772432606613735 0.025992824519335878 0.20464695612255077 -2.021818338335731
Ni 5.828713158363638 5.782208815775891 5.002120182956369 0.01106782777838739 -1.2300869719167395 -0.463698198027595
Ni 5.097997842263101 2.66218361486165 9.392871116558302 0.7607693708198381 1.691916749277028 0.7152798710284715
P 0.26938861861510394 5.648585734904602 12.451081731980715 -0.6763410278714287 -0.40199583592179156 -0.31738648731082764
P 3.963780450145382 6.100926418176386 12.562009969866187 -0.6280454260898345 0.4189144660540011 0.14399643232002943
P 2.1798412973445407 8.580883580886324 1.3487887907190799 1.5741234577149277 -0.4764400710742956 0.2772942472756321
P 6.2491431769842585 7.855967736303053 5.9842258513860545 -0.36698281018171636 -0.6591951122197615 -0.8911474410254847
P 4.724307402204406 0.9467433682343153 12.612210231509788 0.5945886890932857 0.9994348499796789 -0.1079045716934787
P 4.013777142195944 6.2177301268938585 8.31043187661868 0.8248253207594828 -0.13107921003772907 -1.407108710122854
P 4.7164269970694015 1.0233036302921967 3.8171343438420298 -0.30290526297551706 -1.4314287749254575 0.4377421402834654
P 0.05727543594391618 5.5860401083853235 3.6674075510306765 0.024942528877950593 -0.9067054433647418 -0.11223919451309057
Ni 1.3726742896357436 1.050672431134207 2.7138260539777193 0.12396368203887038 0.10712372766339616 -1.4199323442500835
Ni 1.8567446868093234 6.484641529750106 4.758560474306147 -0.4799485984481864 -0.4170900112507526 0.6534337842559521
Ni 6.16834866739115 5.7360663746868825 9.033152788612108 -0.024701102291105843 -0.2142479695474246 1.0918858061222487
Ni 8.465283194652153 2.243952147845858 10.225249087422887 0.40077584747176137 0.9442769738606125 -0.05824319991260937
Ni 2.534595241481805 5.053936334791832 7.056137376727408 -0.10518203055599304 0.3184177567888194 -0.6094167552450537
Ni 0.4454817451169656 9.281959164240273 9.161084063662006 0.2779146544684504 -0.42806836463912734 -0.12831630258061125
Ni 1.3919003067561642 1.1162580302428793 11.457641308610576 0.31841672834755486 0.5645641177067373 -1.29286276959238
Ni 4.110766743857547 6.873359929543868 1.6590487550940842 -0.552892337795764 0.4965679521724223 0.09787032738592821
Ni 5.569465019743153 7.862138156856524 7.983831154821938 -0.24046319449021167 0.40271857302042896 0.9422252335379063
Ni 5.4406552288050705 2.6664902426966237 4.883975629186074 0.39142654504637747 0.7322434954660034 0.65439357706606
Ni 0.7740222589469388 7.37918965432903 6.885064728766781 0.7685503003168377 -0.29957799837449695 -0.023101104793837635
Ni 5.077713263258874 4.426905798079539 7.332007651184898 0.5644784999714666 0.6720621979904168 -0.43195972927373344
Ni 8.34478809064756 7.117001066031305 9.032093321974553 -0.011589504609812298 0.3985783255998104 0.2738260862213736
Ni 4.785360185041393 0.4774756471128389 10.382140625155495 -0.8190891896066538 -1.2235067475960606 1.0962638805852862
Ni 7.8046772463945056 7.160302580355227 4.651750675476307 1.3985405088378688 0.44178365734269076 -0.576707952158123
Ni 7.517598882521121 6.215432052376877 6.88944735591649 -0.41479453034835656 -1.1973637706521056 0.32865588957705977
Ni 2.521621072752072 4.987853121122395 2.6180198702169863 -1.4351206219547479 0.626826723191385 0.7354902845380752
Ni 2.125917974032679 5.267141555235459 11.317567333524293 0.7809381324582292 0.6815020032470779 1.2790549171750099
Ni 1.1551805364320786 3.2990578723395974 3.7264798279158233 -0.9564416342476044 0.3012186193017135 0.2220281277134757
Ni 3.6841572571459866 2.575888202487734 2.691750967308489 -0.597858360983493 0.39516827147699685 -0.11083280108386719
Ni 1.1339821561435397 3.408668788769665 8.113668746016435 0.3348990422732942 -0.9678951275001847 -0.16123825011961265
Ni 3.752629020707089 2.60634221360648 7.192172531087782 -1.2527160221701652 0.14174568861263975 -0.9836670456224608
Ni 4.079254170854995 6.965400528210239 6.047932276962533 -0.6251717040864653 -0.14126746342464058 0.14978655663924528
Ni 0.7169223452299102 7.4735283275123825 11.228369471130502 0.5809219902394704 -0.1615007597523799 0.05048129657900338
P 0.4286053734770972 5.500721830057998 7.874730519505089 -0.08484871831527967 0.23152809678411096 -0.1955290529816826
P 8.426532591674855 1.669397328450478 7.807937978898129 -0.44048653579782204 0.22689779710095118 1.0061667693868734
P 1.8014461378022602 3.2430988530973384 10.396547923820226 -0.46611606344046824 -0.3149105149665093 -0.14820892773948025
P 3.7811287637326534 6.133651361199709 3.8660905690837217 1.6799510922747196 0.3278449636399902 0.2888153605413542
P 6.961075805300328 4.009805273247302 10.400016749685623 0.7413837672043748 -0.001636507162158472 -1.3136848485440535
P 6.507350848795873 7.785035042550536 10.237722927330616 -0.5835982515200531 -0.20383577307516507 -0.38197002761916793
P 2.3341741914810736 8.539952521379131 5.832961881958814 0.06479514209851421 -0.3926498759305173 -0.9663421811907679
P 6.910907210037866 3.910870451029985 1.5409431057349043 -0.36249237851053057 0.7957780256845391 0.513908757443715
Ni 5.207780661905069 2.7320667942678276 0.8029635218009629 0.36856532417748783 -0.2561811194461007 -1.0871248943984955
Ni 1.323410448120125 1.1580938434969141 6.857362073792185 0.20988712147556757 -0.3298727927032964 0.6178042079778006
Ni 6.8150033128724745 0.6322156804354514 9.16876451821896 0.6655035709362925 0.2765224021066141 -0.45511457012364204
Ni 2.6190359086746917 1.6272177087726425 9.147483805339457 0.09988504382311185 -0.6830744899405203 0.5052623946226266
Ni 6.432392000869904 1.8926272204091297 2.8109821303287417 0.20350307232609469 -0.31650588447808714 -1.674071493565491
Ni 4.291672255538869 6.873848496567164 10.456705905201586 -0.041163875832819434 0.256865547107635 -0.13160680040642495
Ni 7.891705509303365 7.1873728124607785 0.11549905381452416 0.5641722815849574 0.5328678150447209 0.5403268424259274
Ni 7.8085767350434 3.8588833007363683 8.30489659319549 -1.5485283828546426 -0.38860681620939524 -1.2366047184305993
Ni 3.1737766210142033 8.44301720494234 12.177210963303748 -0.7237336582227794 -0.5833650524633244 0.2725045391964726
Ni 9.23364531415884 4.835718778590692 9.92146535036779 -0.013205442946680482 -0.18423111147036014 1.344831449350187
Ni 8.551062897390368 2.3982578993699857 5.6410192793197504 -0.32232429093207715 -0.5168027911620583 0.04001639249193753
Ni 3.5963599535523114 2.8730545706384216 11.601489011574941 0.2574461022014534 -0.117676563478578 -0.15166757571204204
Ni 1.101655304768828 3.408496885557765 12.635621639463105 -0.35544858428987175 -0.2880905665601877 -0.14256792740361898
Ni 3.0432568454945863 8.30506035362367 7.911887851134198 0.33574904897841534 0.7539122386886887 0.0235998988071271
Ni 5.539246244598586 7.928103752538871 3.6343958010696045 -0.3747845656143223 -0.1333240402078478 0.29440750991715103
Ni 3.0477715666913343 8.351754694498252 3.651066793608939 0.27898114805975177 -0.29639805798461855 -0.5986708295824592
Ni 3.509005979294589 4.553779415999378 9.541181969755845 0.7454923900561097 -1.4324813845596878 -0.2767563724942911
Ni 7.494256235852562 6.083003246451421 11.205395059236912 -0.18788002107685708 -0.287993121750375 0.5081988515431312
Ni 0.5129410892353501 0.05945951148879595 0.14637558493304603 -0.4192322544047361 -0.7508279433364101 0.5713955388062739
Ni 4.609041774856568 0.4729473546098882 1.6903134255700016 -0.5029502015496822 -0.9548102692917685 -0.5867735639242411
Ni 5.895483984880674 5.756776187952125 0.41391488688960226 0.2036174864167719 -0.766349436010777 0.301069752428675
Ni 8.029029032999242 9.024348629901576 11.308946839824369 -0.6015316960700221 -0.3571858786959526 -0.19961967811128847
Ni 0.1398369296046094 4.674057379104728 5.723199871653024 0.39022095477405055 0.5430786941394518 0.27095544954179784
Ni 8.136432350287013 8.712914295163168 2.3439636270219184 -1.1243392986652636 0.3209999156936988 -0.19572085727751454
P 8.385176297906646 1.4722333919383823 3.5323260071194755 1.0597099927206524 0.8934421505969323 0.48811930718443675
P 1.9193807887032863 3.085780271596222 1.4927821590366877 -0.923239693574339 0.6255028621736389 0.6256679269965933
P 4.639875782548987 0.9600342007754437 8.25817872872349 0.2731213468448651 -0.7546851122989713 -0.6778993734974841
P 8.428296861481199 1.729074885592263 12.487655497443109 0.8262509974624157 1.1976429924554213 -0.3301674411255798
P 6.130602341072847 7.931768005213586 1.5016677455844358 1.2771142485088716 -0.9453151853171398 -0.66625818971413
P 1.9524947758377518 2.9926811110460445 5.893610239870962 -0.803395690130797 2.034847917826179 0.4326323298607259
P 6.871260900851191 4.013098576885811 6.119730820050778 0.24680044956214914 0.6154711889692497 -0.6540271948655768
P 2.4007459721738047 8.541282509386992 10.006173824669741 -0.4741183649196544 0.47905436876869106 1.5197592811417504
