# total energy = -340857.8154171006 ev
CRYSTAL
PRIMVEC
9.40553694557910 0.00000000000000 0.00000000000000
0.00000000000000 9.40553694557910 0.00000000000000
0.00000000000000 0.00000000000000 13.76595404610133
PRIMCOORD
 96 1
Ni 5.695315985892713 0.23872945807746576 5.433669937005859 -1.392428739513176 1.2195099677318417 1.1284024129910437
Ni 5.833483323873392 8.405540272741476 1.5364452527412418 1.010040393409667 -1.1864669212339436 -0.14505572682247922
Ni 3.496113333296245 6.851247073059994 11.94546177554845 -0.18298412643713646 -0.0873848544735721 -0.8372362928293259
Ni 6.319843640209733 3.4409592645475255 6.618602056843638 -0.5090763690520781 0.33237370474827915 -0.3242847570925576
Ni 3.0636091216077843 9.203759978146934 11.014580733500223 0.5831030570511894 1.0498431272289015 0.5846724584208383
Ni 0.8852989882663517 0.7601884166971631 11.8463744436474 0.42843037596423633 0.5433322049111545 0.5219920486724816
Ni 3.654145165341947 5.463319011173081 9.900708385968626 1.1569000062101045 -0.18789956146088285 -0.8619847034185993
Ni 6.565807837318835 6.045023255699356 6.3425805852631365 -0.4963910602749258 0.03791477276790245 -0.028952935588924332
Ni 4.119418267808126 6.0414397461166045 5.007241702195241 1.6088238373105905 -0.23975948355496776 -0.46710413838535036
Ni 0.6815459004917279 4.304396963251693 5.909737774244022 -1.5337748786945522 0.43500108720321856 0.3509375837933956
Ni 6.1940445833348825 5.536945554516359 4.1090270305718395 1.1318469198962184 -0.22703457978913155 -1.7983776465454446
Ni 0.2510206137801989 6.363720470140289 1.7122780040423704 1.147684144038791 0.5840618214200328 -1.5635469677506622
Ni 7.931378937845634 0.6685982383090049 12.081689691807439 -0.3777670452814139 0.016986764365983648 2.16863732770622
Ni 8.580088227693512 5.989304854732881 4.967142135908868 0.036752119918368964 0.6613460971244933 -0.07782240759611758
Ni 1.4725590834764388 5.970051720570427 10.537824410956398 -0.5101377204370569 -1.8958250274613415 0.7210797655397001
Ni 2.9871515116387624 8.412895402646233 8.875254669761398 0.16576364879379193 -1.400542626869562 -1.5313287311469046
Ni 2.0941898324089756 2.693303725853035 6.361343690949838 -0.18436095218000506 -1.7065496686988544 0.09938419292729336
Ni 7.739609444715066 8.682928368842644 4.813292946150437 1.0375640527512324 -1.4793759922286973 0.6069232993992386
Ni 1.948620336838727 3.9959141619521503 8.199209127285402 -0.8346996424504012 1.0188307380077875 1.6781137819556649
Ni 8.1764213923324 8.793001367916018 8.186929258227025 -0.07164481803049597 0.4835100905471995 0.23767791843559066
Ni 8.65660227088431 1.0559972569395941 3.612144740035431 0.8224853597723963 0.8303236248698926 -0.03044983184942498
Ni 6.303148812101108 5.871199527093441 8.728716403884 -0.2351510382486789 -0.36851338789362986 0.2885011717350451
Ni 8.94460921821626 5.09325815937936 12.708728624493473 -0.670878976315593 1.182496623732286 -0.29553339599147815
Ni 3.877225691021029 6.903250286926241 2.6511847907807895 2.740071433059913 -0.45157596084276425 2.9287271559605306
P 3.1303508118944343 4.785772344997853 12.237533795955637 -1.103605151441706 0.3595196690354518 0.02918999130039489
P 2.760826075707581 2.0621075458295275 1.4930415213199053 0.3614263991398614 -1.5430231367656975 2.1321572305023153
P 6.805498541273879 2.644583044386737 12.284682812195484 0.47494060371063357 0.001956095285106309 0.7630106014455311
P 8.995841178051574 3.144468522875305 4.4630871828847765 0.38962600150252896 -0.03086995010597909 -0.7418905316374643
P 0.45788505318205275 4.245038619480688 0.5506368153850928 -0.920238701964486 -0.34259383981439057 2.673984568733169
P 9.093724601221412 7.241059552475187 10.118677942862227 1.8551833426805793 3.60677359655884 -0.6166742081384153
P 7.502524074498664 2.4843691277657114 8.173094653908727 0.7413076625508007 -0.8914089222169873 -0.7436748772313967
P 8.441394179642929 7.023575321288855 7.064260852527999 0.2120648458531767 -1.553264869098364 -0.9528572593304558
Ni 5.628038179999195 7.941245346119407 4.156684886361362 -0.5230410587622862 -1.6631275929594778 -1.214286000328741
Ni 2.4319050425882964 8.378066699273704 0.19710807591054294 1.5286804948907804 0.5880560301810905 -3.274108842932703
Ni 8.135037029696935 5.656706256661217 10.711371616775613 -1.1105787545460615 -1.2979489258660355 0.03957519118946087
Ni 2.277240392775208 5.897412758608223 6.284529611129934 -0.8676041064879058 -0.13793042863160762 3.5766526088037436
Ni 5.728084876670432 1.871758288780313 0.8296577127029688 0.7679005825479808 -0.5202989772407749 -0.8690069003727035
Ni 2.422612372069242 4.894848357153192 2.089658244700392 -1.1332240027494032 0.37900374590199243 -0.026106467279064714
Ni 1.6421221038382945 6.037912669755627 13.507360292417895 -0.665096565305861 -0.6648975619211774 -0.6148991185158637
Ni 3.9942023542249565 0.26158679400399015 1.6257592911844494 -1.9045387531852553 -0.6069955473980708 -0.32653215836583765
Ni 1.993851564091898 3.5007314519448847 4.079692101339168 -0.2420526504645186 -0.5780690941717077 -0.22431178154132983
Ni 2.8924001322774724 1.441661894554279 8.937077264216605 0.34393569855426576 -0.03377812489170957 0.3500834633232164
Ni 7.555364381154583 1.2540872709090332 6.165357695598934 1.8540080914255552 1.0595379859191623 0.2868525803880285
Ni 8.234415933243827 4.60152728143737 7.578543386445228 0.6570433559840813 0.5107020775809591 0.10274385342814563
Ni 5.912753189394233 0.8601297713544188 7.912917749895431 -0.44694180450486254 1.2925915182088643 0.7031013266844084
Ni 2.0229522954542 2.897234578276252 10.938454198432284 1.6986975196442873 -0.825267550503224 1.303479882986594
Ni 4.341257262608145 3.742218613459787 0.8912131899084382 -0.2836073339778535 0.43286784291029967 0.7409747046914142
Ni 3.5743674008251247 1.3837990311603285 5.103025809515025 0.7231826708153158 0.4689157376727925 -0.4735429520321586
Ni 6.679436129364075 8.272433113646679 12.752036419437792 1.8938118536860546 -0.91779512552 -0.14321867361374044
Ni 8.702266152837762 2.1230554253472125 0.8284462795421852 1.7776329577989258 -1.2764830426827758 0.3859961180594255
Ni 4.053353776182783 4.390504654144348 6.897899476948214 0.2804209658300719 -0.17491420494480844 -0.030387354042605733
Ni 1.2007672818680213 7.748328377479401 5.609034292566251 -0.9273745416783189 1.1291498326800298 0.5371636142065975
Ni 0.3709242800868891 7.891057400886943 3.4722825242940916 -0.04362287889627326 0.8626465053723145 -0.6113800496190115
Ni 7.4700937830516 3.649940890319662 9.890892767594451 0.10765414624556943 -0.1250119207977266 1.0587226891067185
Ni 8.12563149273433 1.1208672453706858 9.97432834543603 0.1641749641504334 0.8781250606238876 -1.9108191868773285
Ni 3.782972805118757 7.9958821103351845 6.2805379012430045 1.1635344808074866 -0.28945068013250796 -1.1845874448230438
P 3.9075585477254324 6.44634811235678 7.721117218492887 0.8604898640406278 -0.11981263598497431 1.362226247787867
P 8.903187233432945 7.450840648889145 13.215192335533688 0.29561001486568445 0.2488352206039908 -0.0255199986479754
P 6.937872068485592 0.7827504187630616 2.309665981453791 -0.4262109997154143 0.1984624245783937 0.15698718815274254
P 4.680646658366809 8.2987874282159 12.8937430609775 -2.299742505885878 0.6704704280232647 1.09799500434378
P 4.100042861665159 2.4442639181571604 10.55998761825508 0.4466651538047082 -1.4911588437962384 -1.736078788506223
P 2.1430233803188243 5.681207680448805 4.28514853185772 -0.36195733194266694 -0.7422358307920249 -2.452428752670422
P 6.057005909789717 2.427841850620451 4.742784338310265 -0.32023886915795813 0.3386986185250425 0.2508486514895938
P 6.64425942112393 9.006290729617028 9.85556933297769 -0.8964901933946365 -0.3417826567670049 -0.5938461545003063
Ni 5.796143342131847 7.979648153537727 7.630234336484317 0.045725784171888995 -0.28908558348360536 0.4656548075333335
Ni 4.623931270482297 3.2991143616144685 12.36374011258097 1.0838742486716817 -0.20817168144635761 0.5948661111243884
Ni 2.4262523148737705 0.174736065691289 6.678524732832398 -2.3044795063502312 1.834048874694809 1.692192628646234
Ni 3.205040180914486 1.213991466837445 13.065611378448889 -0.28765322191245296 -0.3727901608921128 0.4132369560532496
Ni 0.856755064692236 9.28939739219146 9.551355704905472 0.16343885731535723 -1.1641818845834984 0.9388318915856412
Ni 5.32084393726353 3.6220158510776854 8.946906990896224 -0.9765985688114536 -0.9279134449009244 0.2118522156217384
Ni 2.1857245181290548 3.239408012975848 13.757749794667903 -0.5624167323464313 1.2336818883568497 -2.4922119461056305
Ni 5.422386114311821 0.8821819933169442 12.254259662336239 -0.07737452142542159 0.2694035316736457 -0.889248938451191
Ni 1.3510771680674232 7.868079674087298 11.860677443706434 -2.324657781070319 0.17152626230918203 -0.1826496259158532
Ni 6.055529240486588 5.92451011059749 12.831727653014559 -1.3053884128632163 -0.8799965666149877 -0.2236101274886149
Ni 7.063718153045257 3.127369256677288 2.832014703870151 -0.9188225383432498 -1.097802942937632 0.913821999804865
Ni 8.906667282109108 2.8419582375470176 11.717703876337865 -0.12947715565793183 -0.5108740843824492 1.8175619327833794
Ni 7.4955075439245595 3.7992255729901396 0.5464767463865323 -2.353399886200018 1.4030556230994031 -1.362198479873725
Ni 8.033974535033737 9.276916244642083 0.720995544173985 0.7508366850871585 -0.8297993769353064 -0.43159540395577933
Ni 4.873742332209105 1.674100929511154 3.1347827009112144 0.5226047425558161 0.3909714597868299 0.15861983866015908
Ni 4.852758579245531 7.730185096678536 10.194321973883985 1.552227943193417 0.028974018634846874 -0.28581128360770774
Ni 3.717773622893974 6.468488746366754 0.49865147203907473 2.6793882562472437 -1.1399996309103397 -0.6240738430365961
Ni 0.9635596396711051 6.887279685163736 8.471265224482469 -0.11769121876659731 0.32965373471395487 -2.077792282598189
Ni 1.8492790554396856 1.0853989654846996 3.346874737756884 0.439478663358598 -0.41537045745648465 -0.48440072068226897
Ni 0.5569272385056835 1.8642526702841538 8.417068639396541 -0.9979780629284942 0.8322897474573278 -0.9239326058763054
Ni 8.943903802944064 4.442940522710875 2.6825306238160658 0.2836477002974857 -0.3076281223724831 0.26254897064565746
Ni 1.0049440023065703 0.4077949255339997 0.9375251133586125 -0.4459254474252062 1.4596738858140796 0.7162383782869987
Ni 4.352365201760982 4.155234552561729 3.443044472092135 0.3502130469225453 -0.20107877915531822 -0.14614793144539348
Ni 7.533402452346899 6.114436118483387 0.7041577519035283 0.6746482135500381 2.1177755078593465 1.2872767908641702
P 2.135301434472525 7.521542070237053 1.952204786975176 -3.19454014206944 -0.2746879200010366 0.8103294411361527
P 3.471235688030153 8.839765697694094 3.9858220207912742 0.5242458777036648 0.26847459210147306 0.22677592681110623
P 0.4318636946213078 3.8410708069367727 10.216196431197917 -1.3994501651363318 2.6280872919804223 -2.9637345252736504
P 5.893302538955564 5.558597100604277 10.800850252115668 -0.6359230290656984 -0.2228513949457194 -1.3124442912687333
P 0.33057452651731056 0.6318037777112913 6.016162365529601 0.3354132629055514 -0.5796580359253823 -0.1156353646788331
P 5.712133085981852 5.2748226449055 1.4379636374205822 -0.9819210094656314 0.11941925720129758 0.8352526867403938
P 4.01103826538802 2.135734089172805 7.211047424581209 0.916217753730551 0.06586394968266077 -0.15324314772927802
P 7.880833582208591 6.680263816616784 2.92490754912763 -0.3002601120431861 0.24619366921608565 1.1847093151128887
