# total energy = -340861.7651462034 ev
CRYSTAL
PRIMVEC
9.36075290580123 0.00000000000000 0.00000000000000
0.00000000000000 9.36075290580123 0.00000000000000
0.00000000000000 0.00000000000000 13.70040807704729
PRIMCOORD
 96 1
Ni 0.32696734735143584 0.3220791622938652 6.844860385277422 -1.0139466704426086 1.2115822282443327 0.10059184008214934
Ni 9.134802846899676 2.9617327920917202 3.2609848228624303 0.486276340438427 0.03200740614453197 -0.15490742280557837
Ni 4.38772177546043 4.308239624323256 8.1772942619066 0.3945105832883399 -0.8249196802455019 -1.326044141440355
Ni 6.241412910237529 2.548099851984612 1.4379538974640504 -1.5185948285200042 1.2345941157584739 0.24339193810123244
Ni 8.627833841666108 8.782510919205935 11.50561659535911 0.731624888045398 -2.4658828212927983 -0.48580068635358914
Ni 6.718876822974998 4.9842170194734035 14.008255951878207 -1.1813193155947332 -1.2783296089732112 -1.1446268452697062
Ni 8.497129651779362 6.249369550028672 11.88596644318223 -0.6163240238878482 -0.9944579655903777 3.916765334067493
Ni 4.358375815760154 7.465565343986671 10.642736795439735 0.3425956395866035 -0.5019150754169485 -0.4140321982610353
Ni 8.160526345603216 3.896338423464808 5.197935172489323 -1.4818208542247642 0.48196074378220866 0.1941100611469689
Ni 7.52634471123831 3.8202074217926096 7.750621793294711 -1.2562638874224235 0.5844153481047096 -1.0895885254476396
Ni 8.807120338042306 4.8217985994544295 1.0795465900343637 -0.30037092658943754 0.9622011624392008 -0.1133069736559726
Ni 7.601286897318185 1.1493787412177854 2.5976659735823566 0.4950666850365474 -1.1867219746675433 1.1327208378607396
Ni 6.792349370881685 6.266443562945196 2.352675417961436 -0.5715243510746544 -0.9298353445139856 -0.6202467559810221
Ni 3.163288519130424 0.7870942100216382 3.20303240292482 -1.8949017443161236 -1.371274216922748 1.4596011235946151
Ni 3.4990399968112826 8.119797710625258 7.633319393042059 -1.2563006541976298 -0.08225627499775512 -0.8759812748080076
Ni 2.035336540832553 8.026705025068882 3.7238534499971334 -0.4404572252217834 0.2603689322752032 1.9134638235890273
Ni 0.2564808795546013 5.504150667190187 7.987748380576174 1.1961119005228757 -0.9635332509870631 -1.549634728544944
Ni 6.535312462616973 3.6444031254191236 11.501341539603093 0.32432949428756397 0.41393526767185485 0.5721411587230469
Ni 3.3776871988673034 7.916650655628326 1.7711611225622816 1.0449582883327744 0.813464901441341 -0.2222854951399204
Ni 7.782698284556253 8.113947240190594 6.4867048820952435 -1.3010882428259658 -1.7592212880609572 1.2175459020269355
Ni 1.8960953444875448 8.55151562494 10.622474510155136 0.6831554796901008 1.4991482897596182 -0.8811959862397276
Ni 7.3397849100177375 7.0951416383218175 0.25733738842623616 1.6001723322831796 2.364452030249122 -0.4812940567324872
Ni 5.616713718353126 0.43535924711327734 5.077809569223718 1.4203943714881668 -1.7164152486390245 -0.7151415456783942
Ni 1.367250260204681 5.845621564767972 13.112646280159149 -2.1163827412768774 1.0996212270932932 2.1039640558975505
P 5.623724922122028 6.011072868660277 12.043987181584876 -0.03206654151724155 0.5094743758214452 -0.5732338775665934
P 4.910042415114556 1.7292586491963122 3.605550385281336 1.9096902154792077 0.2357159096132134 -2.137805687037344
P 4.959177006013041 3.8915082750739494 -0.014463298989759503 -1.8865531152411121 -1.7692341922122692 -0.3069051281635295
P 5.468055604796482 8.422955047420514 6.96879487881481 1.608538701970004 -1.233536878138553 -0.592915929376553
P 8.470573196382334 4.145924172583932 12.29543104011405 0.9874823056034928 -0.6482465836280578 0.8520394192804294
P 4.330490133480371 9.358581000837408 13.992637536005828 -1.5029021003750955 -0.28148823075232166 -1.240546733797483
P 7.214088722823063 3.9899553111721313 2.8278328412347427 0.23788540646070647 0.8959322640086376 -0.42400782141650845
P 8.078788253066435 8.211514365535402 2.538438619127625 -0.5809649276622639 0.5486207070036035 -0.1105882891732289
Ni 6.939996523147219 7.210035516905928 10.335258535200254 -1.571391146385429 -0.3443439897362779 1.0764231917102751
Ni 4.951051872673379 6.854523490284948 0.4065964623059289 0.9919429124780078 -0.022938611074044366 -0.3243163816614415
Ni 1.9455482009776746 3.963155476205021 9.017498574496484 0.10846430085169063 -1.4987942488543091 0.550103205086401
Ni 2.4867588395712446 2.22137213990218 7.322005096347976 0.6564682002069018 0.5541246675409683 -0.27818616296228216
Ni 1.2279903423542815 0.8012804307316118 12.125107464443756 -0.23478722715135694 1.2282943987926909 0.13365545540533755
Ni 1.8069903395794347 6.817726371439083 6.24211122238861 0.17864384719056975 0.13561335046265677 0.5517592526325852
Ni 4.1328565618210655 2.282582101777811 5.494494114709547 -0.9290598998005419 0.05040390637384868 0.040976699522677816
Ni -0.18102572422701513 6.747820270309369 10.00762751048271 3.490015945350105 0.6172488496949627 0.4377441971659945
Ni 4.8701936908899714 9.30279091477245 9.15631104836804 1.7137451580060294 -0.8455916067725566 0.16674118221571282
Ni 8.717931086359938 3.459266158608261 9.687229539372948 0.6029506879047358 -0.3166969174429707 0.8785145827528226
Ni 6.9794146527478125 6.988138874259984 4.507913840070172 -0.6716945302383528 1.8702425510065468 0.096242304864202
Ni 6.188065980626087 5.822135436255056 7.291288722453084 -0.024516754194441645 0.9232443215600293 -1.0618010709217263
Ni 6.406798688860965 2.017494946195001 9.064148821629592 1.2509285912524393 0.4469919410165076 1.9179491130538906
Ni 3.2309761218713158 2.254106692078213 12.747256787293916 0.5230114910759315 0.7159025922141348 -0.6882210671384664
Ni 3.0778529292789356 5.925412620744097 3.1097599909166904 0.05194682538093634 0.011709575127444348 0.6781420856359095
Ni 5.638458746864686 5.356007395031794 9.651114819398584 0.9678408772234814 0.28353688575123426 1.6337997905296378
Ni 9.753061840929599 8.16870764345905 13.41987835260274 -1.3098014543292475 -2.070389562376215 0.3463437937751261
Ni 2.8288756290850174 6.450878473303899 9.180794097043023 -0.5763456837226978 -0.739406845983662 -0.5467492010125036
Ni 1.6406497641810618 9.598047776292736 0.6179856600512166 3.0417513082687613 1.159268763552597 1.4872142573261935
Ni 3.560502699009691 4.641192236948171 5.1826172367784675 -0.25698304652210585 0.3195438999734626 2.182726973030067
Ni 8.9979673639974 8.601483322828381 4.7088573738825925 0.7207678907262361 0.3464929177584806 -1.4743435720111124
Ni 3.3612684386394616 5.297905203051055 0.8258589590840885 -0.10130480698877391 -1.0188176253816648 0.1360218987549851
Ni 1.4719877221142137 1.5596886141180042 5.135392239429857 0.4011072626692511 0.3103923153811816 -1.058961287480086
Ni 4.420418884625682 3.3963057359785784 10.686236213215551 -1.188890443073772 -0.35113992961218876 0.03792094341548953
P 2.0444632747106293 8.900297270372944 5.902888777608275 0.6924122224016784 0.1232615137655232 -0.6262903910719407
P 8.547378172248607 1.8035736648455911 8.10706521480889 -1.4401661547984552 -0.8812471511926372 2.1750576294102673
P 2.215868017317248 3.3656586316536337 3.956787356146298 -0.514974479704068 0.2540147079224013 0.196899450966648
P 1.7777660696642001 6.67695001165202 11.074998569486086 0.4346735286604707 -2.7017015750324633 1.4148762698834147
P 1.3380915155583144 7.300900343320785 1.8143038956603998 -0.8756729995389693 -0.45469959407341043 -1.1930911114186806
P 1.3575993241756588 2.135702531233305 1.5904115405397827 -0.008609081825249689 0.40504644982265725 -0.9893293861145607
P 8.183244892395104 0.5459050560703448 13.331168371458377 -0.3676525825552313 0.023858808895468587 0.5913930649741235
P 4.247937655459085 2.297755881897156 8.892262936334426 -0.8070721105411197 -2.1086486058574136 -0.37220857735703
Ni 1.2338314520362503 4.763022433279618 5.3811503767718065 -1.7412209948287949 -0.44982452536929624 -0.15223064730436364
Ni 3.1523551599821236 7.7932291313386495 12.591442378301592 -0.6638081855117406 1.2130166466980141 1.671493962646302
Ni 1.3941062596879636 4.240720515130883 1.9349087694640117 2.156424587690112 0.24009501251751553 0.7941420327430129
Ni 3.2658074826511325 5.376797626768416 12.173675729804165 3.076663546764914 -0.9803019858049697 -1.4402250330608486
Ni 0.49422808473977303 8.135214870314686 8.444657016469677 1.32392323844261 -0.06935653621695152 -0.6383334382794038
Ni 5.361988916004194 1.1259206949629557 7.244762037255557 -0.5011172621060016 1.780896973262178 -0.5822047136066361
Ni 4.255407536110064 3.743243313130515 3.159780109020165 -0.7856033991443825 -1.4570930124607808 -2.097576664313968
Ni 1.1407481272325688 3.445580738167495 13.138950931308667 -0.44355103365575865 -0.8199127139492136 0.8930431153863007
Ni -0.22712836732743877 6.407809650152075 3.152258744229361 0.8895140191871197 -0.3818083052303231 0.46591243207009436
Ni 8.597018243792645 2.483061342256537 0.7546414165017382 0.0925075204121181 -0.8715270956913957 -0.682003882584161
Ni 5.673570930225368 4.9858645119478044 4.316573502448026 1.8949534234896652 0.517863628326405 0.14914223818702702
Ni 7.487488226799444 9.029269721011028 8.584127551255722 0.49130593244253445 0.790990888708541 -0.5403744078344113
Ni 7.912840829281272 1.4746648973851162 11.23493732611603 -0.3471439210789183 3.2595512568335026 0.5368255141408883
Ni 0.4976822024843988 0.8376563157061802 9.839399807340932 -1.2072406634461854 1.5325667173190638 -1.2049068731066863
Ni 3.6795714732959772 1.8006531100046066 1.3298315873798383 0.48382993578046357 1.1572111096926199 -1.0323629681662672
Ni 1.1514568283161781 4.5728587422712925 11.091699088370058 -1.2078531002192037 0.34612653555799744 -0.12576808223746083
Ni 4.25219679793552 0.6496446617425412 11.24488406193023 -0.6541644917743894 0.1376640623440984 0.1856974116032415
Ni 6.2423021817435975 9.325565626080511 1.1137470360825064 1.3294027734999427 -1.1731460357553216 -0.013159677310409595
Ni 2.645329990232384 0.5435264888104276 8.878165642775059 -0.22506665742948334 0.5893963462590688 0.22473987021768393
Ni 0.6619035034725191 0.5858230498648761 2.8978690568269254 -0.46315338126771843 -0.49612597953899723 0.26619453781804475
Ni 4.308473643140642 6.920713372594566 5.410948460827273 0.099771401063383 0.8522898447283387 0.389970015105509
Ni 0.24012483636981924 2.9132815361400053 6.801403090888736 1.1164236433626127 0.8295245260073649 -0.5711409995933067
Ni 5.691983530777342 8.43591968990373 12.44927313851344 0.8315891218458775 -0.32082148113430553 -0.7918732913134943
Ni 5.875051771242507 1.4800098871742253 12.930814595125053 0.03532490055353916 0.9175261881293294 0.020918752430538166
P 8.405955920525555 6.047317703097108 5.585875654673194 2.302387656818209 -0.7005142826835226 1.1076397265223956
P 2.6175659977376413 5.020443132404844 7.400576446247881 -1.4978138872189108 1.6612396319081455 -2.8289601257725216
P 1.7943439626878646 2.4854296126884887 10.763424043867067 0.2785733710983719 -0.4591558300725512 0.7886259880207902
P 5.089122974931454 7.307340541175264 3.4375688699354483 -1.408218655357581 -0.3252034122520851 -1.1598251502766992
P 5.6880239323871615 3.602495035601537 6.06625263364949 1.064899507341392 1.162360000883411 1.2181444548428828
P 6.775949332159233 -0.09928388738915617 10.519323695827486 -2.903463239187419 1.3933695061598905 0.6389700434221383
P 8.291698573124735 1.4380643543458569 4.657097091853031 0.7363199795282223 -0.22263876471428107 0.7072942817198336
P 7.827030809321965 6.174127819862543 8.711281207645081 -3.6131550746051513 -1.2192608278355128 -2.56106120366886
