# total energy = -340864.6020131089 ev
CRYSTAL
PRIMVEC
9.31169802051648 0.00000000000000 0.00000000000000
0.00000000000000 9.31169802051648 0.00000000000000
0.00000000000000 0.00000000000000 13.62861129388842
PRIMCOORD
 96 1
Ni 4.1385469151961205 0.6699086934203028 5.448064968017842 -0.5260014269421909 0.5702218302131469 0.26562683824003286
Ni 3.275501500706987 5.233211504947463 6.999804495408423 -0.02763730210129434 0.5850668656457796 -0.3177042756615625
Ni 4.80422157955026 6.8482510239564 0.21634147240570512 0.6232978841025201 1.878434857009352 2.8022900726805027
Ni 2.9369188508835076 5.070526829744196 1.1692261488924984 0.23454811455735736 -0.779496000695064 0.7189915155521037
Ni 0.35209951059418876 1.9571047438725402 12.411290320297596 -1.9393700019318276 1.4054680891956375 -1.1043376587323561
Ni 5.301456939356756 7.668984082877812 2.471262252396733 0.14906613353345294 0.15162026741387435 0.17400557708761
Ni 7.2139120914715456 1.4154432730595317 13.311555522735615 0.6474343721394075 0.5760106689807821 0.16524839972027025
Ni 7.2679478747812905 7.764326558374707 12.891807457571897 -1.239476640661756 1.7939358087240074 -0.03152043920578442
Ni 2.5261612301081353 6.350764248304761 10.758289802181501 0.6012589020246096 -0.757404053892031 -2.3588385407170858
Ni 9.091960519593655 0.9333673575453448 7.884438150467143 0.416082910142477 0.31360876543595023 0.381664066342975
Ni 9.267039064792662 8.886684137883622 5.5772368422333845 -1.4355042305464114 0.2225264075061329 0.623839615538603
Ni 7.962609854910587 1.6977273969669815 6.00863663506477 -0.8665417266616625 1.1788212317632278 -0.9129272559047374
Ni 6.585176932957446 5.239971797672411 4.140903705951884 -1.4782567910225897 1.2684953964916088 -0.04933638434128278
Ni 0.41229591327972726 2.0295497540655125 1.6647760913667409 0.4392655189065274 1.4726299317541154 -1.5998419455269544
Ni 7.585355723424973 7.882585122571461 1.9640326471609169 0.6287375670608526 2.555930310200198 -0.329954039563193
Ni 6.412845338659074 2.3509709445335103 8.269364189908798 0.13146796083571555 -0.6818357324374128 -2.208466543888016
Ni 1.2311740819658645 3.8524170600277836 7.528363476010309 -1.8764090848285748 1.3116256520221798 0.7881102247266363
Ni 1.1688881342562512 8.199825360651715 11.939290593154851 -0.699651420462595 0.6078571240674178 -0.724946447583958
Ni 0.33204956252895634 5.847997739905126 5.797243398959392 -0.7219115174123761 -0.5688370340504784 1.8090508099885747
Ni 0.7164858066574813 5.159500103830809 12.113273151502993 0.7663458364663511 -1.0038406923568581 0.40175698043810804
Ni 4.313616148697158 2.200019008770236 -0.096055751561263 0.6120328527116621 -0.3652401164589968 1.1178107535181265
Ni 6.223473337078806 0.010948694471066448 6.682775632872048 0.47887824820214303 0.8825872101602993 -0.47934978852192284
Ni 7.41402979250717 5.538867990755217 12.612829917612974 -0.4519220313282733 -1.892796782157979 0.11347795201619812
Ni 1.9753742952862434 1.408440876187409 0.05963118261886581 0.021373066359137386 0.3811027945228663 2.148164661674165
P 0.19446270685950875 6.891205886683929 2.171868814642424 0.04760603191373737 -1.4226150332885694 -1.2798411605217312
P 7.259995684716406 2.4050905331249695 3.312843271899257 -0.2442092917962052 1.0708516111597686 1.3094137319725256
P 4.65091378420102 2.4533344402984643 10.952606315382909 1.0215859321554213 -0.6373895863088959 -1.3325829710001371
P 5.5900637061846465 2.207794276573723 6.099976011605115 -0.10947165907028245 0.13572107968511463 0.016880320695106414
P 3.445579664097044 8.481150379668435 7.149092430744771 -0.6368542826307161 1.2508319177735747 0.9301454195552368
P 3.241150646902119 2.4762039705084824 2.0691915146559396 0.8356278106916254 0.10357097731513129 0.47046534154809944
P 6.071562296424801 7.701044258982491 4.675281566614128 1.564912223529305 0.0918698868281192 -1.4088493469630448
P 2.834052523428268 8.605955067536868 10.676258398930218 1.5124776598786727 0.3853664548952267 -0.35082368392335067
Ni 4.957389699429979 4.338264213219111 5.831151015940971 2.5100659435679162 0.484764531779591 0.8404733117093849
Ni 1.066086988686789 2.8558791434658426 5.139062789130097 -0.5134534150738512 -1.197946382628453 4.101630736687742
Ni 7.11585991186589 6.736631700411006 6.393017940175282 0.26405023778153236 -0.14427462568208058 -1.0093891329789133
Ni 2.8655260625609476 1.7701910305558903 11.757116534104037 -1.1226459701232407 -0.8378788115093312 -2.6610444636327335
Ni 4.1666403079663255 9.147197511941306 12.653292969964198 0.03840791035423708 -0.5681014414360345 -0.37631462910560354
Ni 3.7056833234441258 3.993303050287382 11.998274612764922 -0.6465483699900284 2.714930672128227 -0.7481894772722986
Ni 1.0325462526051583 0.614360690360514 10.323904678981496 0.2510661668170386 1.1413458605255893 -0.892678018737398
Ni 8.939304543102192 6.9398408851720905 10.950602437980141 -1.8025652022642311 -1.3426807215557717 -0.46130707208759913
Ni 6.508783762825936 3.562953616986815 10.161206036231276 -0.08110493500213128 0.8637662207990543 -1.2550639535770514
Ni 4.317024230153537 6.381651150465441 8.858079532894958 -2.812279065572415 -0.8138842483669466 1.1527736427465567
Ni 5.4122754568768805 3.4338003661672096 2.4139953098920057 0.4434402191095073 -1.703987307288317 0.283224496717138
Ni 3.891367892628967 3.1527640097875054 4.339949630551365 -0.7224655901436331 -1.1476327219755655 -0.919898802126564
Ni 1.7178685996723029 3.649831759030572 3.3215245679150547 0.9885158890743297 0.59392560158799 -3.889945385661172
Ni 0.3439135969103016 4.526975084243633 1.2162474301227624 -0.17827952187261553 0.20625595248088346 -0.2516006991642699
Ni 8.768081040862041 5.693479423820013 8.587946243666275 0.69850547978361 0.8580884536879867 0.12036336628212173
Ni 7.7248542706873025 4.421324559095887 6.388888202126364 -0.17769511012405526 -0.6414640134885855 0.0977793103340187
Ni 1.799318021800571 0.745406078207267 6.598455414260169 0.8297399844522808 -0.02504305901155687 0.3049652308283393
Ni 9.248424980554134 6.771038424403684 13.55051883418538 0.6892096563039807 0.5249202780628702 1.6987736242978615
Ni 7.7277129619635545 0.9655578974215794 1.9326866782904024 -0.8997092145525667 -1.0861476180868908 -0.5238283305502721
Ni 0.7084842645933654 8.95064619122752 2.544338595711953 -0.11969050858481321 0.0909615160812369 0.140404601203713
Ni 9.306939690586606 1.5362718658955226 3.731405026741818 -1.0513693340654409 -0.6098366163912916 1.8526826877459124
Ni 7.259558034911898 5.816282096625272 1.4810618774719813 -0.4351802930935602 -2.7106389867314094 -0.3596266269269613
Ni 3.9120026153266054 1.1477878266602002 8.392662245045969 -0.7534820931298056 -0.6328716438338843 -0.25382007541309193
Ni 7.25126131202219 0.08135909865797658 4.206334214065375 0.09712265058662628 0.2793058783890222 -0.24209095990162177
P 5.6642593155956495 4.935190611473674 8.286263990551372 0.3400322497348015 -0.9403362440453096 -0.5969813576951783
P 8.24913080139359 3.6510422797664446 8.366359491795057 0.49407038256154906 -1.5513475974709927 -0.045988293804656286
P 8.383582408357128 8.994951250160444 11.442663287225681 0.33594779525278273 1.9161238869196937 2.03361790207382
P 5.142664553904216 5.472540766127383 2.329238372645415 -0.32287733522206974 0.9647439834657126 -1.0573564048868114
P 2.1672604553179378 4.668559451850849 5.281986178905148 0.5328264202838243 -0.11653653633686381 -0.3140188563901753
P 7.861363762901823 3.528667945067724 0.15813684191557498 0.23631317687758016 0.3249367888542597 0.01901536476023822
P 1.7123095159852584 2.0553059106456875 8.641262232723076 0.25367120854005343 -0.6128512348478994 0.18336619236690355
P 4.864868668417462 6.0416903693426605 12.075808465897543 0.1537080031808385 -1.3434487100700476 -3.2669812307489865
Ni 3.714864657640819 3.7114751995803763 9.249928819776006 0.283052489915648 -0.023147127540424653 0.2962437917949414
Ni 6.1489611299368825 3.321380236596547 12.305518743076261 2.037302550014259 -1.596421864101812 -0.31757160673844015
Ni 5.073487949698099 0.7043740811101806 3.0359096496443625 0.7122629385790185 1.2889305244175093 0.24175054584306757
Ni 3.5130056690851306 0.39695675321663165 1.2821444543044624 1.3920155632351576 -0.8512722020971016 1.5742229594072696
Ni 3.5780013209035038 8.295363381805943 3.9321270569755837 -0.5497360515549694 0.8925522917928111 -0.3553740222981944
Ni 6.104181174407576 0.8376617258276878 11.418295504812573 0.20196606685627796 -0.4121257252669419 -1.5409803953040557
Ni 5.124516054564101 7.988356699792795 10.458364666473205 -0.7144879712547952 0.5450440453959388 0.6595604659789802
Ni 5.880402448834631 7.603867378985851 8.154215732833437 1.6868671026682625 1.0074083551034585 0.8801922275655615
Ni 9.186371825293726 0.048267186418415486 0.18763350756959535 0.11298121488543768 -0.7744257852610082 -0.3593993414075036
Ni 1.8900046483133424 7.6412445346304 5.580112294565979 1.4139936101681454 -0.3482906330888518 0.7425852437116437
Ni 1.3831875512975194 3.4499654738400887 10.458582560205663 -0.0782749217525039 -0.2145323335570628 -0.5176990777240826
Ni 3.760501289383204 6.01075690869214 3.9696736855231545 0.3047181478145397 -1.6899619395435026 -0.2624132163987416
Ni 2.545548185278028 6.586545752558778 12.905735895392803 0.7947896936293408 -0.514472600366985 2.5464804776412078
Ni 3.192990545010338 2.8034170371127307 6.956329108764468 0.8763754249226325 -0.3963908310301883 -1.6462501004778487
Ni 5.163727614708394 4.388612564133431 0.15347726825226346 -0.5357633914249612 2.8469061687279806 2.9157194308469525
Ni 8.585609007476245 4.290858358862759 3.8372855508293804 0.9596876519887277 -1.0646115437873278 -0.22172396620949555
Ni 4.554668074001204 7.225719324495284 5.923921600459036 -0.31407670621130424 -0.9499755669072865 1.3248892019003053
Ni 1.3778053898718718 6.064671639928298 3.7721269442965624 0.589352894615643 -0.04095381670454237 -1.569235019274375
Ni 8.071826760380173 8.745947134791516 9.439857660894774 -1.5545342227290906 -0.0392139511953002 -1.5553340929225665
Ni 6.477515081048558 5.901204782095697 10.370637297574742 -0.5268668602662797 1.2713094689016364 -0.29973894943239343
Ni 8.562152840294228 7.026160325337753 4.0948797075740195 -1.6024349030651113 0.23364874267153954 0.16275597231571973
Ni 1.1263150511454194 7.738430726325008 9.310726758150293 -0.04447494248392341 -0.4486253628548725 -1.4253152058285519
Ni 8.387409516222078 2.062354866007652 10.253022171707594 -0.2652324310150916 0.12377779128030941 -0.3837052651427198
Ni 2.6058414296224366 7.592767835007699 1.8910242792408654 0.15800971587998594 -2.036137326061564 0.3256335578109682
P 5.809261076357212 0.45792137098455066 9.022386305884295 1.1102162290003204 -2.288299811266575 1.0727141182898041
P 8.67339969592089 7.709257176590485 7.529766748894124 0.6728062752452929 0.7243923748527008 -0.28028829690694956
P 2.083399303415893 5.779724370401929 8.571115349588666 -1.1673589967598992 0.036840565867117196 1.9939169839397726
P 1.8474967470882884 0.22050380139751216 4.395363545160411 -0.15650150676557562 0.48958637864826654 0.3547690417243438
P 8.400985971859786 4.780635048596688 10.776469961294708 -0.09807524430788271 -0.87061563962072 -0.9229226765545525
P 6.043785501385517 9.080255715247569 0.5644220541567979 -1.1288158463793785 -0.2166205835446592 1.0843295910415454
P 2.0000689182980382 3.678251061229666 13.242172198834602 -1.3999556440178407 -0.2943743426863704 0.2317571820757815
P 2.0107308124716825 8.524961918609044 0.10596712287866658 0.8340627801973506 0.5882105534810838 1.799861944400455
