# total energy = -340891.14957213576 ev
CRYSTAL
PRIMVEC
9.06807729330558 0.00000000000000 0.00000000000000
0.00000000000000 9.06807729330558 0.00000000000000
0.00000000000000 0.00000000000000 13.27204773405243
PRIMCOORD
 96 1
Ni 6.518759791246409 2.2886104629279607 11.657463379465389 -0.3372197199866709 -0.9812234691779745 0.1799458538314449
Ni 4.724649729554626 0.38618402933186585 6.152908205244181 -0.7264999081140069 -1.4688020733675928 -0.49332604819635684
Ni 2.774958662508021 1.5544498419259412 4.870071767706614 0.4392683471200048 0.33989803814978237 -0.5806093440950582
Ni 3.5476858170400316 4.28103031106869 5.16654258608803 0.03238510119892487 0.08604582394717439 -1.9420598900591652
Ni 5.120988192050583 4.600743518843647 2.561412692274196 -0.9044189613234102 0.2405848076697405 0.20779964281891955
Ni 7.162158024733339 6.241131531064373 2.496644855668363 1.1555728027582486 -0.8669957834799454 1.7024194485805646
Ni 5.075321353852363 4.508448626234136 11.372684940188973 0.03518657520346198 -0.693329077788993 0.08157853220444015
Ni 6.091408503762779 8.022328650422109 12.374565133108694 -0.8550141856380372 0.11961723214471659 0.43453494620007743
Ni 1.9360254742815688 6.623886013492632 0.18203984183114508 0.2605180562585578 -0.006788226566427019 -0.6256653558934322
Ni 2.5425891770375264 1.663955945595861 0.3806171365658039 0.8709686520847646 -1.6205786638536734 0.620656332714615
Ni 0.49703583570008125 9.067125333639826 4.739223036875587 0.23448512252990583 0.37968945911510743 0.39503817365703575
Ni 8.817426752101658 2.267046574676298 1.5063373432308855 -0.24471039980233986 0.6861073632295731 0.08570078190292983
Ni 6.946020397955221 0.3921580787768595 4.676459245393227 0.22460437308108416 2.0394751321855455 -0.14381979753284907
Ni 1.1273343244568377 7.296438116083469 2.246334178900175 -0.9259277819294635 -1.1458131522683235 1.590193880914229
Ni 7.589817626851349 4.012433856058503 3.6789054322400627 0.2235427645857892 -0.5507632072679031 -0.24346778564449034
Ni 7.851694636447541 3.9910966697438854 12.898599355895263 -1.1968901734497968 -0.9997999466285815 -0.6872815860433326
Ni 7.844222540602558 9.003893629359407 7.132266014122414 0.5226731338999063 0.027934778737055115 -0.3867401953143017
Ni 7.036256836976369 0.8460724856278542 0.6485262313028731 0.2547677840383419 -0.6358754636572146 -0.8875224426783876
Ni 1.8165807576916233 6.4919273499778365 9.181522758303416 0.2044464100759705 0.4811295061301649 -1.3483613168803166
Ni -0.02693581735186569 4.852273852033132 1.5439109222766219 0.4587611657372938 0.25631327414859084 0.4730798963528111
Ni 6.0427129276856455 2.0845061749681593 7.071586066845366 2.1158425525026914 0.44861687821444024 0.8710234165820998
Ni 3.324085162494413 4.533666949710954 0.4875007522279944 0.11187126965071056 -0.21216768997962818 -0.405753760302327
Ni 5.89328914694095 5.569595053151495 4.6269674921131925 0.0006106370008054 0.306280350095337 1.0753644114284575
Ni 5.18292316125111 2.818140847476236 9.425184720661965 0.14426202727659027 0.1210843036085463 0.24098358577005596
P 0.2972887589702733 5.504196078352931 12.620018947577641 -0.3142032044868395 1.1063019815475785 -0.9247201347746075
P 4.229714060599324 6.022926382620411 12.505162678193475 -0.5674617509695066 1.6283444238420215 0.40824515926561306
P 2.428984302345844 8.625101896790685 1.2942422653941439 2.4908459189960395 0.7081360608948386 0.14974721876087757
P 6.412663284709637 7.882562372195504 5.90377819216412 -1.1637365695159634 -2.114667558357984 1.4849496296617328
P 4.680506328373344 1.175848538984336 12.299658279070488 0.009572474179783514 -0.3775017074351692 0.7142174912022281
P 3.900842094567775 6.1989014942317455 8.191946132910969 0.511485492714203 0.9820606203672892 -0.7675308579133878
P 4.668862916886743 0.8721531832731884 3.6719910231602086 -0.4922017047839265 -0.6683929766689457 0.6452227092000694
P 0.22766496687294988 5.642511464182451 3.5836126332150773 0.031078723682675512 0.2669234455642694 0.09250160687484714
Ni 1.5375288093449484 1.1242149058031068 2.7504331401508115 -0.00420503922028308 0.01557728561296672 -0.5902496953982996
Ni 1.886631656238338 6.716008612629988 4.8672053484146245 -0.4563756962242527 -1.0728748122373846 -0.7153539187995165
Ni 6.0537487779809664 5.530974111156614 9.177342374584317 -1.0077202299169223 0.17044485631954517 0.45820426479255927
Ni 8.58616357208394 2.3414773546467114 10.362324281208297 0.9474980519010714 0.6582013808479246 -0.2261804593189524
Ni 2.2526011272478303 5.107485824680221 6.910715651895425 -0.42889985940148717 1.2143263666483732 1.2566788634726551
Ni 0.3404355784363089 0.17150454941281837 9.174090561999353 0.6294407637754643 0.5632227731874945 -0.05725281097488204
Ni 1.3845322060724337 0.7988985329521621 11.525751367658097 0.9634720587318246 1.4776191574385908 -0.30988966471315016
Ni 4.017013235186799 6.821452217588072 1.4635750102500773 0.7227967482308069 1.304436076252276 -0.1592405029632935
Ni 5.863944848209925 7.766908111992941 8.21030082854183 -1.3550538984091436 0.32713739605000436 -0.7666060321062732
Ni 5.214443798577761 2.5483564743159355 4.865453395845146 -0.894359520204879 0.5101060958681731 0.01973321676286924
Ni 0.9459909109762928 7.510617038125522 6.959530019787571 -1.1622072773556307 0.37656222634003533 0.2566179498732032
Ni 4.933986298221411 4.552564823182974 7.080982408731982 0.2609574577888215 0.2850270971435156 0.6291083201367101
Ni 8.261843780948242 7.250254397468787 8.970657311773204 0.36996837517260156 -0.8583663899397217 -0.09720029790209712
Ni 4.774116092217711 0.1290641331826131 10.328122213370285 -0.8888311341874822 -0.1954264659655473 0.6668351452635225
Ni 8.13450076887167 7.149245082399291 4.840409179455977 0.25858458668127077 -0.43849367373750936 -0.18952732687229293
Ni 7.130120506990226 5.8885918828053905 7.115516368205827 0.26335475437640454 0.4435572043033458 -1.7827463677660913
Ni 2.625834128320225 5.182224919285013 2.703715311772453 -2.5019597695210134 -1.2123304192642668 -0.35685266372624996
Ni 2.2476771611752264 5.343890604630106 11.18918604469101 0.21852294277369463 -0.9784335651376634 2.0338855539129104
Ni 1.1700631055509634 3.386346582484283 3.895199936758614 -0.6505076117480925 0.10450274510078132 -0.18997598437393734
Ni 3.7843717073918515 2.509363741144301 2.4898891379444406 -1.420844571651708 0.791020970615528 0.7329196955974216
Ni 1.1670978442144229 3.1532425827377644 8.204540785725408 -0.9484578447111796 1.1911874666380646 0.559598546171346
Ni 3.6516422572911047 2.5578416833618727 7.117374417281843 -0.6033319825035546 0.017679676667950197 0.48439069337993995
Ni 4.119944982682433 6.829540942701816 6.002947594312564 0.4496697449589869 0.7565535329662777 0.4426310929446506
Ni 0.8235383130856423 7.2398261083647455 11.18874805654864 -0.5466144752068522 0.06861323029302377 0.7548532624457193
P 0.19120222731873093 5.643699382332564 7.816837853415344 -0.03351407259704551 -0.8768374521607157 0.0779854155365431
P 8.37363504014357 1.8399038529747496 8.043232382633096 0.15001512771028358 -0.5831359671716538 -0.16901737984439924
P 1.8512842902143778 3.338838924557262 10.33961509477069 -1.5037454222119973 -0.09342514713038103 -0.25221827814361075
P 3.943661556436718 6.313104862037225 3.6839617922439003 1.3526265199145737 -0.1624538676942686 1.952551019398476
P 6.971991371863027 4.035240070925168 10.443960555545729 0.5608036222230407 -0.8548051549510246 0.15335396227552944
P 6.75938122722532 7.946936654238629 10.271171966361491 -1.4550929513116169 -1.2900332705633848 0.5754339705417058
P 2.4096148888447715 8.710831501303389 5.8405900146556124 0.7716070848652905 -1.2131320892299557 -0.3971894156720837
P 6.649838851245473 3.7259188799443272 1.4838548587303197 2.533369651290863 0.9808987388487043 -0.14852234521484098
Ni 5.037271700738833 2.8746621744201417 0.47215847193657856 0.021447628350814676 -0.5491511255857768 -1.1362075108577594
Ni 1.398932313113493 1.1811624323886565 6.895200171324108 -1.2376683838084235 -0.06907140087636492 0.7954139574769011
Ni 6.762609462808832 0.7914282507226755 9.347104946312886 1.189748420198693 1.1605188339096142 -0.7514180115119253
Ni 2.584991507342308 1.5126278685799932 9.277944532974882 0.6711402003967797 0.536398968126431 0.5156087708539572
Ni 6.212177159665065 2.032673044082331 2.7661871111599 2.454612904805934 0.40070154259040025 -0.44254881764348947
Ni 4.147013193965532 6.76658128074585 10.334532437342151 0.24176263002792556 0.10747288347269879 -0.4034685638125761
Ni 8.211407133994609 7.254734027744784 0.36238304636544993 -0.201994091880736 -0.621534107333878 -0.18285608549970442
Ni 7.597162769611587 3.857333458810216 8.358630092334476 0.1513950387769457 -0.7739228774826606 -1.1755006520304272
Ni 3.554151356284537 8.140775878489059 12.203528496493934 -0.9167144908613115 0.8369305886634489 1.0355051133396749
Ni 9.054955973659284 4.948105294860535 9.97604140983188 0.8038857423933381 -0.35070541317793147 0.261764012850517
Ni 8.165894453113577 2.455055025105948 5.678989619468389 1.0039332520706645 -0.5408109811511976 0.6192849062883851
Ni 3.2929000440345875 2.845871028415505 11.772147355377404 0.5667760377563917 0.08078920353392538 -0.3600809408555605
Ni 1.1236164126893098 3.4739079386483063 12.975444058091325 -0.06943418353242234 -0.22390091925615632 -2.077236152984403
Ni 2.921671088085666 8.505503022883548 8.071860303243064 1.5427511140512336 -0.9031992299836961 -0.7617219645410945
Ni 5.533105109364831 7.842934873600146 3.795579851159326 -0.2465788204696463 -0.12566035301500295 -1.004686071076289
Ni 3.105898150205415 8.370533757644804 3.663921341009177 -0.1187649114467503 0.5797757924501693 -0.7542734786828493
Ni 3.4069492545228766 4.44273226872371 9.267618713146383 0.4544018603273335 -0.9884050745280784 -0.38163064200187824
Ni 7.308534931444157 5.948250764557991 11.354064549887896 0.24559357373824156 1.316250809499017 0.7699818905570416
Ni 0.6576441832107983 8.93306287614926 0.30815050217794393 -0.8340424684823764 0.7504281367948302 0.20532084226112382
Ni 4.865712742861125 0.5983861104828923 1.4773385382519157 -1.4489068771055629 -2.276596149676402 -0.9016647956170407
Ni 6.1941679577862585 5.770788488239646 0.3881871676475901 -1.0813602240005764 -0.3730290163757963 -0.6383092699096877
Ni 8.264101732241205 8.852130284624414 11.466292890417845 -0.7052826506064435 0.5295060976613397 0.22604547640298492
Ni 0.07076636986002714 4.922950447926091 5.646486909350462 -0.012057445385166331 -0.4601030244771689 0.5599831832042743
Ni 8.36837555520414 8.68969381269337 2.6699775295015074 -1.2512592351189804 0.29782707712166123 -0.6692368127264797
P 8.390311234632556 1.6746744131793199 3.598596724445963 0.8647147007552527 -0.11026278751301011 0.05659306590369608
P 1.833347632955426 3.326606088034347 1.6645408365934355 0.24185261863857058 -0.8148311856612482 1.5417782086150027
P 4.6663238551918464 0.9478135945501298 8.34607443225321 -0.12154941617042293 0.20685913328252117 -0.6059208262766532
P 8.681505338727328 1.6180624054605959 12.547964910715201 -0.6957808817635952 1.0586697243815963 0.5060725492287478
P 6.308217168274548 7.83631517703845 1.5566787753709617 0.07968311495394019 1.4183225765608023 -1.280958819065942
P 1.7918974507862304 3.180827674437325 6.078544529047133 -0.27580634987619596 0.1116450125725174 -1.4357392293753533
P 6.578282651836783 3.859482593173397 5.832733432325402 1.0399574926840733 1.8293398992549141 0.37150512353210213
P 2.2996735174557266 8.575426968345518 10.122723910753836 0.44811345621546056 -1.3490241472752962 0.8354987413129288
