# total energy = -340853.5201992069 ev
CRYSTAL
PRIMVEC
9.42279554635816 0.00000000000000 0.00000000000000

0.00000000000000 9.42279554635816 0.00000000000000

0.00000000000000 0.00000000000000 13.79121375286205

PRIMCOORD
 96 1
Ni 7.119638169035308 6.057114320238377 9.578811600807168 0.49156972762688245 0.45315076152905187 0.8268919734805242
Ni 7.183355112531417 8.651454927308762 4.105782454530233 -0.8183677380595971 -1.3956521315464803 3.18199547263521
Ni 2.2694143481859808 8.645160499882646 6.379305141575175 -1.8359090678319994 -1.2148148762490174 0.8490145164111765
Ni 9.311804439318138 5.243097858430931 1.9088557879365133 -0.8179409349348237 -0.6435656332126207 -0.6255306300877808
Ni 7.672784536094186 1.6812811412570845 11.08969467649101 -1.3100917318761567 2.195396083857303 2.5301357177345976
Ni 1.0118386315438148 1.678256423886151 12.408299955338974 -1.67521254914847 0.1944792715609296 -0.24101315345641075
Ni 5.423412474038971 4.890694727728326 8.410226649880167 0.3367165550980072 0.03321942417476215 -0.5600492605555193
Ni 3.7767318380344315 5.056988223560824 12.591006076457115 -1.1914134666059417 -0.2054735657889042 0.9054497165807697
Ni 0.6858947107402155 3.819897664440181 3.7385638623873825 0.5735074429429542 0.7662802733357383 -0.028888400899576058
Ni 9.286541924453736 0.43190042990308275 4.526690251146926 -0.46472561085084474 0.01202684925754703 1.1554915558983518
Ni 6.4034114794258254 3.2861339878237006 5.057775969268643 1.5428205338365881 1.5470528267503807 -0.004025833329941454
Ni 1.6533519752525785 6.2060416038757635 7.408363931983104 -1.2003267099351715 -0.18647928407458852 0.6393346258504086
Ni 0.4889611106240297 7.614071097034106 11.578841416187338 -0.4769730607596302 4.746721548295638 -1.766650490645493
Ni 8.574235117792256 8.915283779859426 0.22897864321609274 -0.40125818642481864 -1.5240905615272526 -1.509172763875156
Ni 2.163577508589958 1.0441305518870814 0.9285477148556804 -2.7077058722450142 1.36228846848437 1.3999335325306534
Ni 5.186627044711294 5.384062879830192 6.0240845950036945 1.5262191778344811 -1.9772035278398334 -0.5045003196456215
Ni 7.625312492122965 3.6767088632915734 2.926771180329284 0.1068283079101644 0.34592624662173327 0.02493198735498932
Ni 2.1740556572394216 9.02337266759144 12.683668905597369 -0.6839571496557898 -0.2577762318473625 -0.12383872642523189
Ni 0.9449367831524541 4.516590898878495 10.725964403260061 -0.4832282976407226 -0.2408048941003466 0.46152921540073416
Ni 0.6272896338289384 3.6898630858766914 0.09294362844758643 -0.10934978878043747 0.03558201086966775 -0.6901828188505275
Ni 4.667233131305633 5.297599307881019 10.644210344525817 0.8334984230534483 -0.2341897027766741 -1.095257550807959
Ni 7.888330984256492 3.562570540817693 0.4943321040864347 -0.5561008174307326 0.5868113591407119 0.528700828151225
Ni 6.376773236411406 4.053102431459587 12.610161677526806 0.4676594966681881 0.03977856544951859 -3.314770068097491
Ni 4.553876900862243 7.692402796425287 10.983295296000767 -0.6442024954656712 0.2879288441713428 0.3355747281840802
P 1.6431942016517493 6.059177912463405 12.256596716133123 2.5958238039610264 -1.6777970220461942 1.2600302964433914
P 6.03134297441438 2.8925249721893462 1.1929588961712145 -0.4192731349450005 -1.941314270142392 -0.5548767152156444
P 5.03027459818202 7.723780705600389 1.3391912602818519 0.1496996533523938 1.3124862002502622 -0.2591713124226762
P 8.782573127360282 5.688419176033142 8.126430893563127 -0.19845239727606467 1.5057472831333745 -0.07943371794729545
P 0.5541762786122841 7.277045968665966 4.254547666084193 -0.8920712383913345 3.3598407351838846 -1.3902271038761669
P 5.4038224820945135 8.740142279007282 5.513230561203259 -0.011972341870527769 -0.18243828123599548 -0.011167843691361411
P 3.807761103774255 0.5232167415595159 11.777117764669123 0.7472633659136034 -1.0607561745969796 -1.1580911983047282
P 5.433523133662059 3.2524757621259623 10.094865133191034 0.3069868892440584 -0.5503186635313168 0.37312671829592514
Ni 3.0646511784661046 4.207815311563495 6.755888107933705 0.04921091450701202 -0.15917108317793877 -0.48151979959004815
Ni 8.580925302631393 4.335739183924216 5.7652649005663905 -2.4968905825282226 -0.8982470281847433 0.01947070713010195
Ni 1.6084712000570782 9.019160677981448 3.2792468665576093 1.0654651500368746 -0.17589919456589706 -0.012186771874179011
Ni 6.436372418253006 8.89353596773446 10.43011594915747 1.3563934431561737 -0.749366014078903 0.22860938047541918
Ni 5.281382676742776 2.633426363003819 7.401041477562692 -3.716494652635767 1.9555836355772132 2.1924593698264823
Ni 9.560274135125432 0.5180002819440994 6.974078592526803 -0.6681389516766106 0.3441367588214783 1.2044844408572868
Ni 5.004324219242609 3.839798608637724 2.805574241710338 1.6167418066060866 1.406790921772119 2.08553130311366
Ni 3.8259188307954037 7.004670640553196 6.998888813204895 0.8144974564709133 0.8833510849095174 0.40901906131716004
Ni 3.6761246499675924 3.132881641029744 1.2285996780522683 1.0478795757446275 -1.8506733706253675 -1.8387496226045883
Ni 7.21184022347326 6.356175005343306 -0.03684030375432431 0.7138050862551577 0.846782027536232 2.1561690200358803
Ni 2.244632395894533 3.4509669503462455 8.937630881781251 0.2729205436879687 2.9860959236879863 1.565912125548729
Ni 5.951560164508796 6.718481494166943 3.8660081144547056 -2.687267144774688 -0.16807712741831698 -0.5546813113753867
Ni 3.6695663842661292 7.40078611980334 3.8147320879207243 -0.78126749077319 1.334522354114695 1.2332072627132762
Ni 8.453661025959038 7.583107790863119 2.0701438947738713 -0.4659756812078619 -0.6670423761783222 1.42526352665501
Ni 5.812507970605794 7.7090811445453875 8.397717888790094 -1.315825034815508 -0.0938267534441739 0.6987903580138805
Ni 0.6654642054328707 7.162012480615019 0.40802966194113427 -2.8881237806168714 -5.1608992709956025 -4.114228627957411
Ni 8.002148931681738 6.19909700355683 4.099107346163973 2.5403239711215084 -0.999005475751744 0.6533993314735909
Ni 6.71697384687925 7.101376791263131 6.342110540708243 0.47535737953307816 0.7188683597106781 -0.6838679323760932
Ni 7.001419776089109 1.2410010192730951 8.758937929287036 -0.7093190254593461 2.1504472870607545 0.18143169434835205
Ni 7.771780426122304 3.5915079459458434 9.487292699046451 -0.03441087337970203 0.2646248793380797 -0.4723476461724768
Ni 4.110996087306984 0.2693807636875909 1.0289296981089204 2.643172982668951 -0.7461961009913536 -0.1067437186161581
Ni 1.4373155417217722 1.028432174503982 10.275254188883903 1.5231150849878607 -0.2061975884391223 -0.31367150035308555
Ni 1.1234704904019062 2.595367691785128 6.012500210156887 0.5021804132631932 -0.9193881810387328 -1.400002695205692
Ni 5.646930607234951 8.802229078873575 12.949177842594255 -0.8506546231177607 -1.5733058469096388 -0.3728310414323773
P 6.970437624327025 5.688899738606095 2.1323974781213644 0.37417418572383304 0.09884657525626848 0.32236002926601903
P 2.9659002811222366 8.87175988722285 8.645491240006384 -0.35931140967938763 -0.19247149710228142 -0.2251695015559348
P 1.7057427184998972 8.45498021733577 1.1569506252637856 3.71938071593431 3.653878520466442 2.1210027565473926
P 8.36785704969823 2.4283580634909767 4.648742779601638 0.8602736342647636 -0.2748298448955396 0.25875196549707047
P 7.536427261717936 8.849013258769787 8.07338997742299 1.6218793849429682 -1.1740284383602748 -1.261097561365641
P 9.424868563099537 2.0859054048871433 8.92985236405631 0.5527781808154029 -0.38338619124040424 -0.16709008091469932
P 3.3674338678125255 5.80796618315162 5.155251962374855 -1.4664579986154485 -0.30135745887242293 0.3264097738553604
P 2.574486776850585 0.7480239131864741 5.063499375284546 0.32084796349686684 1.9306735025990942 -0.579723341945679
Ni 9.05559862836587 1.5241089115151274 0.654088064367675 0.6035178732621154 0.7168814111876364 -0.7137042990112353
Ni 6.884313273017583 1.0112261498331896 -0.08047350081925873 -0.2772942472756321 2.434414575481188 0.6000934209615988
Ni 2.240816163697561 6.6993909103865334 10.30225709408603 1.033182121633453 -0.1736425373212364 -1.2686308936282087
Ni 4.175966262610989 5.995234821874142 2.167206227155523 -0.8269917322831822 -0.7536854673898633 -0.39803093773677256
Ni 1.6449939556014324 6.640385364664463 2.4355288109030644 1.1008625556995622 0.09195293346022873 1.5368049237701276
Ni 6.604220675350936 1.454832518645651 6.401674858206315 2.5347408206067765 -3.996242760768531 -2.221813140398251
Ni 2.38674699835066 2.0241201344783892 3.3113946181289906 0.48581045654560195 -0.6006282104191463 -0.11731326660188829
Ni 9.145086917685976 7.59360478510368 6.326498853044186 0.02997469198521935 -0.05864943421209254 0.05208772183417481
Ni 4.370980439274031 2.81284581303479 4.723297822537148 -2.8763869517959173 -1.1871449211375749 1.1108870298150997
Ni 4.1332056164138065 0.5664928146731782 6.976671745861634 1.2310825030607893 -0.7464172158632242 -0.9957646002169431
Ni 9.003273844687389 5.926872440172829 12.373352691210258 -2.6856648332845747 -3.878080773013102 0.41506706728345294
Ni 6.0961529621940675 1.6604002263225415 3.1845845202020535 2.360513100206031 1.3895179936242845 -0.9524129727041856
Ni 3.4297185463853275 7.309375580191425 13.679270175852734 0.1095181960375017 -0.5318671416943486 0.29177727138315557
Ni 0.7637317133651217 5.578351501236033 5.156893413359331 3.5455669431425325 -0.6754393419927658 1.6889949476445427
Ni 0.06769430549695404 1.9601676210935772 2.7080982486041254 -0.7381814582169932 -1.19959163154136 0.16182728985386322
Ni 4.685079906073695 0.18517583583129288 3.541624608593868 -2.3432252596598615 -1.722504392255898 0.90417856317783
Ni 3.213408851783627 2.8588007869227714 11.09614834916189 -1.066543727813034 0.23721769096972048 -0.28927841622070183
Ni 2.364452664083905 1.5965890548709507 8.121687458284223 -0.42049312339503064 -2.8560035030435587 -1.794943166942599
Ni 4.937337565691317 2.2028517204343507 12.338558076369424 1.3319175695019965 -0.10455648115685219 1.2821266141217984
Ni 2.2958641352894382 5.0902412690499945 0.6579212575966336 0.29680737760789533 0.7385043887740508 0.44907504879778143
Ni 4.7072800123849685 0.4276969208090847 9.498670724670754 -1.7922301388868103 1.2298072358927916 -0.15882758379559098
Ni 0.3342190198539222 3.9126745094065667 7.674796302943701 0.6477621877924715 -0.16185248666484384 1.5527745597255065
Ni 5.391572847882011 4.916013779366015 0.5333066710323989 -0.39321783261884535 0.44884184974105285 1.3976766181756768
Ni 8.759901881271604 0.19625515883672415 9.982700886384475 1.036257675234983 -2.3302666426166643 -1.9315283944002217
P 7.777650827748758 0.1954768359244528 2.550726255596549 1.650665455936725 2.649250556321599 -3.5799119962813055
P 6.243629135317051 6.4275526816200035 11.974249243491819 -1.5406775193516564 -0.13482170779929684 -2.447511774984778
P 3.3636364812066497 5.470639525325941 8.707593116345555 -0.7377991351769101 -0.13548196709111507 0.3266298602859665
P 7.960528443745874 8.86484355529056 11.850197197821807 0.6292258195511808 0.49842814530961255 1.756981342986845
P 8.535403777338622 3.55797221659023 12.138461243787745 0.9283803572350141 -0.08296512813932164 -0.6075326508484633
P 6.9936459697619435 3.814828200435315 7.173072015749799 0.05257494588323849 0.4794572606340646 0.2144516009177984
P 2.78057273828262 4.092659327170423 2.807849846835199 -1.247298964919652 1.5401836104343734 1.0768299402303905
P 2.4539786445862033 2.702297575664728 13.452419199871397 0.9273220911738289 1.5021086579395226 -2.3947146857884047
