# total energy = -340864.71403707005 ev
CRYSTAL
PRIMVEC
9.30247576105174 0.00000000000000 0.00000000000000

0.00000000000000 9.30247576105174 0.00000000000000

0.00000000000000 0.00000000000000 13.61511358496183

PRIMCOORD
 96 1
Ni 6.8232355210196385 6.5666453401896225 1.464360338743932 -1.2599904443443914 -0.107371324897828 0.2860390833477977
Ni 2.6115955677982883 -0.016257936375181015 4.542396910461529 -0.15343598046637447 1.6901120919681214 -1.8141811892366044
Ni 8.766717998240669 1.730976727633208 11.083845565598903 -0.8294309378522942 1.4847331427755528 -0.21837690411413357
Ni 5.169739111558246 1.6462869909737998 7.637152821337514 0.45974281292427266 -0.6049237524707066 1.1213622183148106
Ni 3.234424207797999 7.6057039425233155 5.651251986230585 -0.2347152362628409 -1.959367785209993 1.0870948124915085
Ni 6.231012025309191 8.542388802333194 9.081212367867932 -1.2162788623890537 0.021099758093092696 0.48042270987112745
Ni 7.490260221967158 8.680725915015758 0.7034987770094563 -0.13431777157968477 0.6485540875661475 1.2705759331697215
Ni 2.8775440389489724 8.010863959050543 0.25216592349750067 -0.5032031981007528 0.08780188740633266 1.1989485986407222
Ni 8.198280932301541 4.593999602376849 9.759081894715884 0.3409257080833483 -0.8744455548897715 -1.9437781583018525
Ni 4.861817871096573 2.904186328688927 2.4470710564261484 2.585010515395606 1.0744352147459688 -0.9909550946434418
Ni 5.970449687454399 0.7823214423912845 2.6230059842071674 0.7447526836766077 -0.5780505822289463 -0.17611336745923217
Ni 5.564191978821965 4.420685181935127 0.5059086165868037 -1.1588015941081913 0.1693112569357342 0.1197406450964583
Ni 5.030443843902493 4.323771992510949 4.615850187003309 -0.9140603410679161 -0.5815118013046695 -0.13519940285368973
Ni 3.278341194481772 7.175994693236403 10.244582740621293 0.9357969614140592 -0.795933577425797 1.2006496404922289
Ni 0.1632984451054758 7.680719104696148 13.11639180344433 0.629178254142697 0.6852588991863487 -0.7468316776928235
Ni 8.401428391568695 0.6089093459571502 2.9241996744104837 -0.7376394696705942 0.8858077739801261 -0.24702027888243908
Ni 4.228496038769115 6.673791252628448 2.227460076075975 1.1453752933999564 3.0226593246343167 -0.8161126234768332
Ni 1.5883325688090246 3.371970610065795 12.687161631644011 0.8586353273303922 0.0949284711487849 -0.015292150272380114
Ni 3.0296767227503745 2.222724185815287 9.003048317749228 -0.033494275102703606 0.17958898471265844 -0.6083399772411071
Ni 6.861729164505648 0.8945641811389511 5.316688456028956 0.6818069360820065 -0.49695156076408603 1.0119005865468573
Ni 1.9536686878583374 0.30544678198722247 6.890295206172357 -1.1589558602978687 -0.09525525836058434 -0.11032629376109385
Ni 0.4622465177308504 1.3010442189350673 13.122204920364196 -0.23689501752297912 -0.7736457125618741 1.2109931885100822
Ni 9.29228925722389 5.904439321534456 3.871879129975828 -3.4679329974081368 1.805384416880581 -1.619348133880682
Ni 4.576064429674813 4.716969025586506 11.492966576180345 -1.6861456511212058 0.7134021943897842 1.911940959186598
P 6.6445907821348325 1.5443039524196374 12.61934472498821 0.13563006263320512 2.5137984140271543 -0.01590612970729519
P 2.033586254602733 7.166887569753367 2.8699978708494434 0.8904115913007247 0.10716100865923481 -0.21066410885090814
P 0.3591499728631852 3.5939741871063027 8.053747440709836 -0.6418437654255075 1.0587175469003962 0.43008256685567864
P 4.2159283944120345 0.6698507929946556 10.012662724732046 0.8299341027409577 0.5185431708919328 0.17893823850253698
P 9.299675422745372 0.684027765607676 5.611278318897638 -0.7761404539592698 -1.5531023753785704 -0.762926526372157
P 0.9777738939514226 5.745599552920726 13.688362879813697 -0.7563362747491491 -1.0129483110850814 0.43512450015496024
P 5.891267016271964 7.741231707614586 11.29613270701323 1.3368281194297362 -1.4061877409704813 -1.937047524446238
P 1.977473722580594 8.65071612915644 12.072929409224153 -0.5757846690129051 -0.12019907279011557 -0.530650495678428
Ni 8.659646505605586 6.29478049464138 8.050915767177418 0.12443650791023086 1.1772034936541467 0.6251686187626717
Ni 4.348451459927185 3.9562683966776246 7.629378742589022 0.48792056091006936 0.22162780695126344 0.6530979981830881
Ni 2.8253943614761425 1.3057140616199334 13.459696869843107 -0.2095053126561166 -0.3165987013022096 -0.17978695965607747
Ni 8.168782782592954 3.4990052150549076 12.940470829376512 0.5065230065026051 -1.6965588760347297 1.3623306345762152
Ni 2.126090070655145 5.214167734392751 7.269408291389572 -1.1957318914756374 -0.3960599300533308 0.98170992189609
Ni 7.058746292439481 2.6384611169494714 1.3866037370507207 1.0712462754950263 0.1690181511753476 0.311542884045857
Ni 6.582980487111188 4.67785211624415 7.657588499445311 1.6538343405830098 0.9597267327567794 -0.6889602592973361
Ni 1.826429428408932 1.2853416403453173 10.960465903221115 1.223549685018854 -0.6970096119643738 0.7309903397851927
Ni 4.624027993187105 2.1123689193400494 11.67833607458087 0.4688776853460054 -1.0087432718647982 -1.7152713648425686
Ni 7.610150525796953 7.717091783775486 5.383851398659367 -1.2462026465316793 -0.4898296050073241 -1.6678321975239987
Ni 0.3773735223047252 7.0471554080065255 5.920668420235686 1.9275282721018931 0.873485247859031 1.9253613463575616
Ni 0.21359599971265456 4.897130067972575 11.602554388429484 -0.8288418981180435 0.13634971440804905 0.3332915885768583
Ni 4.999364273364368 8.425828784720894 6.778910155662827 0.9261427261537469 1.4399380979480492 0.6928017445306133
Ni -0.07882080488673472 4.893018373815779 6.2295273502245205 -0.05939685390107834 -1.9528860341403915 0.4624658682823906
Ni 0.4901297576982176 8.249667806786007 3.9927685196708715 0.08393006315575223 1.6290095682298462 0.5757196201029247
Ni 4.95508449013735 9.058499443765603 12.539505299037746 -0.49930000639160466 2.295263901289234 0.05267341913431573
Ni 7.345913710132355 5.101710108461778 4.872440367833324 -0.8604662098915439 -0.11859110487304736 -0.4912244284723218
Ni 6.5991202820479264 2.2378221034996253 9.958052542497967 -1.212532507972744 0.5898809992049712 1.0696953860681384
Ni 3.291541407170667 4.669210116534507 9.738741101857858 1.0024960054035057 -0.5459788985053822 -0.977249315021575
Ni 1.6775247035948777 5.059262912901927 4.5111229181861265 4.6514418644550215 -0.4912349699952831 3.271748313120326
Ni 9.472524719413702 8.810616379973505 10.222471686681734 -0.4998651348664552 -1.7081208698407164 1.893953007249609
Ni 3.1285341295473352 3.318741845438693 5.966496135380558 -0.899170054219645 -1.3442598931174332 -1.508488079103305
Ni 3.0657052102374007 5.241200728102356 0.1315128166793409 0.6230009216873915 -0.17249916774541257 1.6330670261286713
Ni 5.431743333110557 8.615208580295613 4.366339190004335 -0.7181121982709439 -0.5598741684302357 -0.5066960417453595
P 3.876471762114311 0.9646294961153348 6.102906705393728 -1.6192995400309336 -2.0728318532691206 2.8737757394253154
P 6.171457577363944 3.0332674782809685 6.274742962483607 -0.5512676577081473 0.25911577659439244 -1.3533461716894177
P 0.8265398292802161 8.199387926882217 8.320359178361377 0.4660823819890553 -0.9149661407116372 -1.1704327505892165
P 8.88562223967087 3.5228567621545035 4.494607303240486 1.0398739318313317 -0.05393068858018454 -0.3917772435175769
P 6.1168148364657275 4.7776490730633645 2.666887621484162 0.05130790624535679 0.1487840835166599 0.7088459424776695
P 7.760832023425369 0.7922964868354722 9.13305878464051 -0.7627254661049444 -1.6097610044128792 0.6310160786823843
P -0.06974810056292968 2.1183225036394804 1.5295902269721213 0.46257128351200333 0.45730823534085113 -0.3624754092296661
P 3.4390414581890743 5.4845720912925415 5.763631471367629 1.8689143191134263 0.30408899887097307 -1.1887521177236946
Ni 4.470676685099414 1.8222898268257337 4.4979841018353195 0.8307198318670468 0.8266762579252924 -3.1456673276281375
Ni 3.622607206596379 0.35643271977902286 2.266943502951765 -0.0017000134102422334 0.30357323557681914 -0.256641604022287
Ni 7.83302853553144 2.1956167723019395 7.3911414156095505 0.47108214919649194 0.5395729949790384 0.20077924563702843
Ni 1.0059417896681064 1.628779732143285 3.7172254753226355 0.7469476344453975 0.9183198876752184 0.3785345195750578
Ni 5.083402836741026 1.5348526373442906 0.47757978804452605 0.22783599264450438 0.6146931731526446 0.5171835715402447
Ni 4.325995284147767 6.497732601923707 8.010601629242348 -0.173647679527559 -0.5690206108161942 -0.0456134269637408
Ni 4.540928979832701 6.888892392871803 12.798505751261484 0.9659688570117492 -2.073340160364107 -0.1776660566583327
Ni 7.870554721568792 6.642144231086784 11.204598208904569 0.2099794240790577 0.6824592249540247 1.1135098121499274
Ni 1.2851462883604923 5.351760649037886 9.451380192675254 -2.181618827567552 0.9370133503196637 0.08973612831456804
Ni 3.108431480061287 8.719368398109253 8.763476085540118 -0.33606118090219544 0.8486864436477964 -1.4984294093157227
Ni 5.475204498496404 6.448550414125126 5.392429211288282 -0.4504133079932307 0.3108438010963034 1.0883155722724869
Ni 7.880787444583439 8.960897871156803 7.278217735657636 1.1810601483960756 0.16972366188280447 0.3154255069297148
Ni 9.289079903187478 7.359327879757012 1.9022222775308777 -0.1273074017001227 -0.5224970133333583 -0.9658127910498593
Ni 8.64261367302393 5.0867889378113285 1.6834410779924374 -0.6005269089545916 -0.9885233452734975 -1.6818817336385292
Ni 3.2429545778020277 4.852757259990876 2.5395041736650046 -1.1310485923646392 -1.8554713062346433 0.8205097241032643
Ni 0.9080620730428176 2.4722630902406633 6.297861474516335 -0.30372158822922535 0.8163869601841424 -0.3925100079185434
Ni 2.2073378913914445 5.930532765221807 11.801157588430588 0.17858882558291822 0.7578046317645594 -0.733524419060956
Ni 6.184034524196492 6.144247836620449 9.677336391542054 -0.5679122082433639 0.09222778438817018 -0.2828768835697322
Ni 1.267620424579042 9.331964315094318 1.697151066336971 -0.11503398364940833 0.6422307164512809 -0.02521583714399528
Ni 0.9996719212027679 3.9998318892936187 2.7590621299050113 -0.4381000378435164 -2.8968477907534305 -1.5188090014133393
Ni 6.683772808805464 4.381307803279671 11.444932313854498 1.106094750632779 -0.8050165135636715 -0.5701228427414374
Ni 7.776348552505762 9.261479458474334 12.19579185396593 0.31391061294708517 -2.243859064454697 -1.9146763558398898
Ni 0.38890487089468595 1.3113978741307966 8.922310272668568 2.7925754164959002 1.674818656144161 -2.3962624898914986
Ni 6.799839795217968 2.7529280775815037 4.075452642619409 0.7379516015943743 1.058383817710061 -0.9336598604663985
P 6.652237416969414 6.975135642934345 7.367968018971561 -0.4465021458642826 0.1498883723244322 0.06178643717917746
P 7.170776004498934 5.4478366156699565 13.197524273484829 1.4457665317043682 1.1427219149375094 -0.2831080257439318
P 3.872964728862928 3.3581285265696175 13.117930432886714 -1.310154209682976 0.18874571151126204 1.0938066772940451
P 5.245544984145847 8.461234006351575 1.028868670706197 -0.7143630156411568 -0.28078040605201965 0.6701122733528976
P 7.416026467733626 8.080697642387776 3.0873902108005318 -0.7983871811726122 -1.0152967567125997 0.6347894296818873
P 5.513391160291975 4.003329620069534 9.475887564295332 -0.7017808081007719 0.6319144221269375 0.3829696725282759
P 2.9552011041546775 2.6413820942463797 2.736419904616237 -3.375137770552271 -1.0765298924914686 1.1260046021828285
P 1.3265050942906034 3.228135734381725 10.186677621576498 -0.010950842584548882 0.7080280745620645 0.6973086312620314
