# total energy = -381168.14372791856 ev
CRYSTAL
PRIMVEC
9.23512784840237 0.00000000000000 0.00000000000000
0.00000000000000 9.23512784840237 0.00000000000000
0.00000000000000 0.00000000000000 13.51654310716247
PRIMCOORD
 96 1
Ni 5.966825186359374 8.270102953734403 3.9461275477603395 1.0267463933104382 -0.4109214205461955 0.021123926462808782
Ni 3.329365091153867 1.1760565610982197 13.098138089455247 0.5673949022873132 0.18705906783745851 1.2240644198717436
Ni 0.034250317781045085 7.495857559982015 0.970952688412101 0.6626589023986459 1.0039512497927934 2.611422943950864
Ni 1.7917717542332958 2.3979008849053187 7.482190494626455 0.3076332645788057 -0.028986617040337174 -0.5362081922718637
Ni 8.298205447062987 8.878577806820314 3.521789133626332 0.6094298678711761 -0.08634767145830935 0.05962593919274892
Ni 7.173172966030632 2.1046301724036693 3.813070599639984 0.3803507468481901 0.38063999595383474 0.9349652095413833
Ni 8.593895762999434 8.037405443251215 7.662365987344828 2.0704145020768796 -0.3534672921937848 0.04525270119021239
Ni 6.396471028332993 6.67636927604996 12.224374960537292 -2.1971400631316027 -1.4453916648634528 -0.6372700300118961
Ni 2.306279183849491 7.433640505248308 11.046826926329455 -1.391868496134332 -1.8074171310398937 -0.9295769486462764
Ni 4.392577627939904 6.652034714787777 9.737195326451749 -0.5376937756784547 -1.4721540205589614 -3.073110539306333
Ni 8.16039887281089 4.46256142499676 10.718591097169458 -0.6105824934183807 0.740052707097777 -1.0394306736463261
Ni 7.1786032210675055 0.6578015166963722 1.6788085967748965 -0.6979920304823011 0.4691134555058953 -0.21462052239549487
Ni 5.9539975941039005 1.249438885116928 8.66795594538499 -0.30782224066116015 -0.6040068970833921 -0.1669664108526415
Ni 3.228480557101466 0.2939965935320888 10.947927021201245 -0.43811546446248417 -0.0026973443265050317 -0.851344964316566
Ni 7.8803713333073295 5.369829596897331 1.1087620332024828 -0.899561890341425 -0.0580609086984742 -0.7708172419741435
Ni 4.843288796000444 2.7649510319130677 4.713786448498613 -0.5556596161282559 2.342264952629121 -0.8146578933081776
Ni 8.020468219207633 2.849424744195867 1.508405716097373 -3.5187284827934495 -0.6325008907580268 -1.1925102992145464
Ni 3.675516144371741 7.986704592651831 12.8938764604075 1.3696636779025186 -0.6227288989729275 -0.1479711006970613
Ni 4.577335590980211 3.6061695711202333 2.4610248291706944 0.14809014277342883 -1.1385675264495037 -0.5189573756112159
Ni 3.7727620381443314 8.581890097101583 8.371781708761583 0.7410436102561366 1.2901638826039779 -0.4687241904872766
Ni 8.30348794005804 0.8016441703568046 12.943333339317315 1.0007062604929347 0.87528244896877 0.5216734889907984
Ni 3.081097155513929 1.2170143520651178 5.535538262208795 -0.7562478288004008 -0.009551905354493228 1.1949358779369033
Ni 0.442226856321805 2.880177719149592 0.21114087560721478 1.0489476119978256 0.14990045650929024 -1.1076890917030924
Ni 0.5120887496941592 0.21685003149802345 10.797933772550069 -0.14331149043786287 0.20618164759952237 -1.4048908765359287
P 4.972682168996432 8.170012640656783 6.05569481938631 -0.19200561320945642 -1.3338037307811157 0.6035399847493025
Ni 5.613267560795287 4.037671673744212 6.7283048632113 -0.3338523461763347 -0.1225536890652212 0.505403291075865
P 0.839746459865537 4.107655470801068 4.588353098223393 0.47307166882269486 -0.6701354132813491 0.047618887429543795
Ni 7.266438519801704 8.73643072258976 5.908297565107352 0.09105459001567545 0.6281269300600473 -0.21198179922106716
P 7.184356705570861 7.030573360547008 2.4718511692722718 -0.14388664621504252 0.4423346447501543 -0.1617784388937988
P 5.672086088567141 5.153201208462037 8.797539562009822 1.1007561120286848 -0.23985744258541275 -0.4727705926425084
P 7.974588105222616 9.279640928829433 9.398079593450015 -0.5779744775753723 0.01749121480622794 0.11352294632152062
Ni 6.536106157852609 6.191968362454528 6.322065452174683 -0.43707699589564075 0.5467096060238198 0.6896649986738445
Ni 4.405008109707986 6.940004464039146 2.8079941146951457 0.646275575944616 -2.286388453176475 0.1713311155792404
Ni 1.3975703320411774 9.360725349277995 8.334854127485318 0.7333868650418273 -0.3708060405825485 0.39901078515153865
Ni 1.1949793375787552 4.687898538771801 8.132187404976463 0.5577501801086975 0.4870165610385613 0.6053037615179446
Ni 3.3188370456742127 5.4572123743784555 1.1916916321482665 1.6919170063873443 0.8329734037879137 -1.8115576355708287
Ni 5.229649594848504 1.0835205824086325 3.1420960969153855 -0.9614627416112799 0.8992484728660641 -0.7062846095083966
Ni 2.082918387383787 7.672756429423037 6.4196816745645835 1.1941203240141436 1.5612440306490984 1.2805250739626335
Ni 3.2035364774167783 6.758580382067395 4.735250732098447 -0.729509384364292 -2.2106537813473217 1.1896990550179962
Ni 1.3508959970813796 8.745277974843717 12.857490057609398 -0.4308428420604709 0.7149129746073559 0.32326582890974004
Ni 2.3196054729961055 3.2293948347352255 1.4896307016586574 0.3634022919193096 0.2189104080201004 -1.087441911418282
Ni 0.5037004832826071 0.5338827273498036 1.3864724791877565 -1.0690731791031072 0.07332657660829307 -0.05487119811658292
Ni 4.4280774584870874 8.792100071845333 1.4579348201755702 1.8903094969597511 0.1369238417439642 -0.9170538764786014
Ni 0.6191894481433619 3.2970606147610346 11.334567644416003 0.4942166783314263 -0.878173654473636 -1.6478763232273619
Ni 7.922649747522992 6.677551372384517 4.6182379711814265 0.665996194301995 0.14063574337791265 -1.027574031418056
Ni 6.417083833166841 4.929350950232806 2.861384234455649 -0.07991657112098495 0.551525025134592 0.3645901415798237
Ni 8.650830324738086 1.166738317335965 7.475756381217968 -0.8173025300198763 1.288645903297555 -0.17540914230335597
Ni 2.640766270891223 0.7928837283024192 1.9195785323052452 0.5983728387260663 1.1568771233919688 -0.4159312150559611
Ni 2.6404984521904247 2.3993600350682884 3.543794595704331 0.31212241069841085 0.7031938863982148 1.597487843472481
Ni 0.8858860809364997 6.372487401920132 3.5803832477971724 -0.14393369740289405 0.59041038934588 0.9312566503415446
Ni 1.4020586040614509 9.551892490882231 3.7987164407899616 0.40570850888668836 -3.3474827278391643 0.19526217247354113
Ni 6.763216416129488 2.490289101553086 12.816696651914025 -1.3711415479996256 0.49489853488979935 1.1699460407607851
Ni 7.192132683021622 8.025085783014498 0.3350633590048289 -0.9264191197435852 -0.020021694537565516 2.2020125607325562
Ni 0.230370258324526 2.117559351062893 2.980775964245967 0.7086132576415731 0.34911415743141166 0.6341834206667724
Ni 3.7258937655046447 8.681564829436585 3.973930822954239 -0.8178049235775915 2.928309094586505 0.36638400025545287
Ni 1.1689085723251915 5.414860079141884 1.4918480557987144 -2.347711577565989 -0.8181160270601071 -0.29593577363621937
P 3.7871503669665243 1.8092630859337029 8.065753590974325 0.41338993669134605 -0.6777690185672068 0.13851406904921953
Ni 0.9044237525955425 5.683999403188855 6.056289561604634 -1.0866767511174833 0.23066214923938982 -0.4647986301806253
P 5.034843812964457 8.121361988387648 10.839429047944085 0.5330863588134304 2.580884409042375 2.463112457636513
Ni 8.827442905223084 6.246843490735319 12.799503614835542 0.8101924013376562 -2.1278961412331157 -3.046812524841753
P 0.48590254534542415 6.314186041294648 10.103318266647078 -0.10658328177889385 -0.5393855615585808 -0.4391935280180113
P 9.520770110823955 8.011510145422314 5.5663281776729745 -1.839283640731187 0.5292263616373918 -1.66542795895788
P 0.21109192943086202 2.889560608805143 8.867541829321905 -0.7402146865969381 -0.1108896224637316 1.1963854658992363
Ni 7.385433139104631 6.482911822797518 10.020083908490042 -1.1138617961727075 1.5878436355144978 0.9322773782965751
Ni 8.024697907654723 8.127281705188048 11.871403765576677 1.2333023935302438 0.9604762093282943 -3.355560619751292
Ni 8.663251571378556 3.7185241336688875 6.888381947703911 0.7109205656185111 -0.5992457282493228 -0.465089936168799
Ni 4.044431787157463 5.694250394840096 11.650151348745187 -0.9698280828568394 -0.2373274770747074 2.9105602552435164
Ni 4.263498249282782 6.28686853381323 7.249637975646804 -0.022442645274232318 0.646805480306157 -0.3994622708666604
Ni 3.6552450392596008 4.222799041889068 8.489118622657847 0.8510022362651666 -0.6112381247245086 -0.00902457209611349
Ni 5.092572595677892 1.6666911858329196 11.04071788941297 0.3153152066040956 1.0513464512473056 -1.101664225665251
Ni 2.6618870077438266 2.50205465413298 9.933009584271215 -0.5297256698713135 -1.402703639076623 -1.265274575561466
Ni 7.002646334643084 3.3637844117702427 8.724401045360116 0.46038070361858774 0.8708735212677969 -0.1184412095587444
Ni 3.0397976648253233 4.4574359291711385 6.239722283832371 -0.4681768026242388 -0.42396539821434726 -1.229321811615941
Ni 7.569784756529934 2.0414711346533614 10.701762847631715 0.533969532749332 -1.1053812695055223 -0.900357646769843
Ni 6.366392217695069 7.9299454983378395 8.103315625517654 -1.244237809495825 0.1882507741527145 0.6979434366325528
Ni 1.69864472737643 4.718993213447234 12.724932729892945 0.9707755343717731 1.3271790263757466 0.719747676991838
Ni 2.1719450175801565 6.89244355682843 8.629583066637176 -1.0339927904602064 -0.4573845971047413 0.37240346697665544
Ni 5.487152658102174 6.488055788878365 0.9193698831256051 0.5344025065216926 0.017541351317873016 -0.36151278820608057
Ni 2.2405343103673383 4.767431457781256 10.248608064804582 -0.3394776627829121 1.6552044814576592 1.178235277352771
Ni 4.914870270134475 5.135959225207201 4.655610685608675 0.10907956583818633 0.22287864863922904 0.23487027378346648
Ni 5.550108523044979 4.148908785851605 10.945061361102704 0.8035473852173128 -0.5803175238862521 -0.5257366033165785
Ni 2.3226161245981816 7.736460339702556 1.9706035358838718 -0.45535548248985447 -0.4047515442900578 0.5160761974086789
Ni 5.285909992271356 1.0538758227685552 5.882791066150987 1.7999848431315644 -1.5047355540394085 1.7536576779302506
Ni 4.96691021423785 4.29893343393667 13.638191729076544 0.933438745594528 -1.1740922017186746 -0.9870179643725647
Ni 2.795454658421222 4.9416244348314535 3.250309628242043 -0.5976637284741836 -0.8535437717400978 2.0961041935334994
Ni 7.460736369666996 4.404084596946613 4.986604123874132 -0.3996805575250536 -0.8660226209333988 -0.13219943968510134
Ni 8.274406523202401 5.832869660322203 8.143636192679205 0.37206459557999794 -1.1696035698197018 -1.4152393096497884
Ni 5.702312661246883 0.18604903388070698 12.634034139329273 0.13991660582370097 -0.5447419407744877 0.5276050239838849
P 7.166366676979312 4.583698593906072 12.565789316802084 -0.6956698101070278 0.4493311306726455 0.9969444794576573
Ni 3.3700735336751935 3.210601350041282 11.968465880309754 0.378075063440136 0.8075840171805316 0.4190877584070718
P 5.025821093285842 1.732694642888257 0.999406116590007 0.4983314718307483 0.5579599821266584 -0.24251699169544685
Ni 8.705345283041941 4.297021762520627 2.8980957137457533 1.2128940050772208 1.3203787156244615 2.4536945067567224
P 7.023720895857619 2.3815824144118554 6.302426029791322 0.06786246816992829 -0.2604530073485773 -0.5308806094113632
P 1.9833175360696957 6.851476530733918 13.500106253970513 -0.19951374866104352 -1.8882217611927867 -0.4354296901002049
P 1.350471181211148 1.6202384939358514 12.201397039521568 1.0438090052196798 -0.9996523653071235 0.743507498415597
Ni 0.8283410772625789 1.7911345304279485 5.24251320410167 -1.3088738003086555 2.098250807562857 1.5983756453940732
