# total energy = -340891.1286088938 ev
CRYSTAL
PRIMVEC
9.10703691704281 0.00000000000000 0.00000000000000
0.00000000000000 9.10703691704281 0.00000000000000
0.00000000000000 0.00000000000000 13.32906908149097
PRIMCOORD
 96 1
Ni 6.3648080485572445 1.9962807453828078 11.347249829368748 0.7167942507904687 0.7811366216222805 0.5232166651082021
Ni 4.81662995641581 0.6094201548304945 6.181956047052374 -1.5066373990478115 -1.9729612076237117 0.6181199394460064
Ni 2.6818493908863723 1.2677086707148302 4.94516485657267 0.40981173242178454 0.9790812260239914 0.49159209622438566
Ni 3.391761146545904 4.5066264136888705 4.912868570921302 0.8497459952605624 -1.0534280163666825 0.21643417856546598
Ni 5.051828296441251 4.686991283362991 2.8004904059428046 0.37101352860766423 0.15179638798042244 -0.4622390969835652
Ni 7.228146058162744 6.042255008712862 2.6716522414506687 -0.8252127860058884 -0.41836270731558917 -1.1562749710315958
Ni 5.160302215284394 4.827622150189941 11.186101718669603 -1.028689890190054 -0.15142177824982309 1.1191287009986015
Ni 5.396520543464517 7.7512998041071945 12.549039033476047 1.197695957180544 1.067337170248607 0.057932867761042166
Ni 1.8186479868373033 6.351320526618978 0.7648863850858292 0.2671910974033592 0.5489912029691448 -2.1488238925247183
Ni 2.9704058612536786 1.7175963032269 0.6486714847116082 -0.4825526117299367 -0.7269593642489286 -1.093850386047787
Ni 0.7652033099767487 8.98445637608213 4.599528209802613 -1.3573144123085463 -0.31832905372975495 0.259564691206353
Ni 8.612561409254946 2.4959019074727804 1.39231479506874 0.5377236004751256 -0.728167782734733 0.7398997264596806
Ni 6.7193541097177185 0.6909445295009711 4.845756082454275 1.5807353066044905 1.5518389352851145 -1.899559297692793
Ni 0.8059072122745765 7.389094724749501 2.734778579781046 -0.2973208269092041 0.19950166447618542 0.2215866693006829
Ni 7.849619376588982 3.800630683980355 3.4994008607911096 -0.1858614479849315 -1.0956738124097711 1.6019777609230346
Ni 7.691111395943789 3.894506022359594 12.881465922939245 0.4651380157979151 -0.10975010954264969 -1.2407218259227664
Ni 7.991607191943145 -0.12988274164697644 6.915401297270093 0.1799437969489159 0.19631915298314576 0.32416005858923524
Ni 6.893844940465314 0.7674709622134998 0.21114756576023455 -0.823574479071517 -0.23045311855237727 -0.09527711273745527
Ni 1.7985305418935955 6.606162745659165 9.081347965147362 0.5601839863611706 0.7004998845058195 0.8861201630142224
Ni 9.199837803388009 4.929548109361503 1.5059979391304437 -0.28470802324120004 -0.9950027823502542 0.2709798750218301
Ni 6.327696872393547 2.1431043974346213 6.883064940655506 1.1365502389091586 0.2627893687912377 1.3174898241124409
Ni 3.26428084128469 4.428478928373363 0.5068521495437093 0.5090231472166394 -1.1997793220721338 -0.014592038881561964
Ni 5.877062462839655 5.780710010370471 4.925571066261947 0.38808796759144776 -0.5823515235971454 -0.7769891751128103
Ni 5.600181214028633 3.2265139584501243 9.199110151124088 0.5571480277483243 -0.6366791905054326 0.07486358207810978
P 0.3084808461245918 5.537825331036526 12.613444910518327 -0.3862650554500961 -0.3099644838151436 -0.29408123692598387
P 3.8717475366582246 6.058975528819991 12.727314748840486 1.7732024328313978 0.36099959601508796 -0.6413436858606374
P 2.357001377693953 8.325789918158335 1.3736672259122276 -0.2657052568864521 1.8817191841875787 0.619208801634811
P 6.349754116238571 7.992517895652684 5.715797782065688 -1.0356591224190357 -1.9573399561466869 1.3081600620710825
P 4.747880933382741 1.0873893362261868 12.698097552431069 0.990127970756456 -1.3192512868882378 0.9901187147850755
P 3.901992006852001 6.518598583987028 8.046145594292573 -0.13572210812637914 -1.8719147965026472 0.6724501774574548
P 4.7099136957320775 0.9605192024503642 3.7990779341555916 -0.5581373882447872 -0.9880109244134533 -1.3517456599715172
P -0.06528470612198427 5.551312852974792 3.7383376395442047 1.8920745592799737 1.0487270113465872 0.5417424918265314
Ni 1.5962268198566905 1.1092917604405903 2.7142786392793328 -0.568812094349814 0.4133205169059914 -1.0283381632775903
Ni 1.8334651361914964 6.282999534329392 4.903697784566249 0.46048406196567143 1.797420167728182 -1.1357112879476312
Ni 6.096769732765843 5.818413143945369 9.122254954372416 -0.32369803135115216 -0.7379973672306451 0.5285275357981544
Ni 8.922656022352841 2.488834846686761 10.558168778831607 -0.7388669143197919 -0.8231111662818534 -0.9666494280185417
Ni 2.4014346116823413 5.210281634863871 7.119495462799952 -0.1945908574381294 -0.261714133449188 -0.2288513212828962
Ni 0.5114320784989789 -0.07068700052696726 9.512410441279558 0.20832774740824764 0.7833356861561284 -0.43437965156913577
Ni 1.519736815292543 1.0869704125197992 11.924718855253792 0.7641377730714388 -0.5483985636904685 -1.8774521813811085
Ni 4.202870298409365 6.941593135956423 1.3805712707342397 -0.13292140545279046 -0.16874124336487714 0.5423754974248401
Ni 5.660888723306477 7.712358113487324 7.850821505485573 0.514980650351655 1.5386640884660532 -0.14636904631726405
Ni 5.0486772616062465 2.6549107751582204 4.870548169539044 0.2390064074390271 2.181166313411166 0.5189679171341771
Ni 0.25555438934104635 7.080265989807866 6.512623456948746 1.7273784325187478 1.155494127001513 0.48799563712237887
Ni 4.951550710983955 4.481627596862036 7.130811867094678 0.6288375829738266 0.8413559714246542 -0.6173390954159239
Ni 8.187162599492371 7.2442472997473875 9.122001778741165 -0.3189854563668313 -0.2854654702325148 -0.1511055325609849
Ni 4.831738530957056 0.29459716807267583 10.558288991721266 -0.7635394773658076 -0.4340397517312138 0.09948472306089964
Ni 7.949623750933416 7.390861489946007 4.457534019522483 0.42662803264817495 0.41007089962044213 0.2830658596520867
Ni 7.337913176273433 6.090331057539404 6.853807673282868 -0.9462240702846544 0.23912056441938814 0.13855314981727104
Ni 2.4037022639190924 5.255370575523128 2.632544802755662 -0.17940900749136843 -0.6291962518648262 0.9552118756055612
Ni 2.294080858401931 5.395136273826017 11.502347224621719 -0.7012845851906438 -1.2412622718072688 -0.6143229342974195
Ni 1.42565201506011 3.3592672381895667 3.8433572592170684 -1.0650674003778238 -0.1774775947966105 0.40696937787698295
Ni 3.6751539268801263 2.8536536456908297 2.681209166178567 -0.21638121384034348 -0.8502684434229356 0.7258355350571306
Ni 1.2640203206911989 3.2327067436749872 8.431449762539005 -0.9421013063655324 0.7924129658670481 -0.8786871037749449
Ni 3.6091279079385776 2.4769865914256637 7.233712279235444 -0.05000050028784292 0.4159664391692707 0.07697805731795129
Ni 4.165986798173051 7.080056527954672 5.824883693801641 -0.8956329876006639 1.1327928287492555 0.9150841543467402
Ni 0.8823507709495374 7.523450843017732 11.91576117356677 -1.2433672339654134 0.1827964359063626 -1.178931789199163
P 0.2101603629390947 5.503191268962772 8.053383867375986 -0.09835832276594028 0.44143964373971073 -0.16911071088915391
P 8.564922498208983 1.7471668526756183 8.002799740533375 -0.89699670071741 -0.3156278527485081 1.0345838870769861
P 1.9386878427915866 3.204511356827672 10.435581684601745 0.8791013084942281 0.6004906564000174 1.7283719067802688
P 3.842768944620706 6.3320136079767595 3.78023092088669 0.7871067231627864 0.19393471191136924 -0.2791783516722224
P 7.052471312592748 4.056383606730081 10.68535492679464 0.7978431357436839 0.145461189791014 -1.2661860316321418
P 6.223658080615857 7.705382123072258 10.351915334806433 1.271134633886669 -0.11186047101743317 -0.0877743766025069
P 2.11936235172695 8.45589305010302 6.152311730603183 0.35384241614501644 -0.5426580616622654 -0.5189882288491513
P 6.862516732857186 3.9068824857722237 1.571363697882577 -0.3140628222542333 1.046990745381771 0.33161600064664826
Ni 5.18865242176233 3.0980592002197045 0.48949140472877495 0.4462514633060573 -0.8440700279217076 -0.23126815825450495
Ni 1.429376793232123 1.120702877921109 7.339211839763235 -0.140920364497867 -0.39756042585825724 -1.0008137326050763
Ni 6.937485862226404 0.5789953653022287 9.28023108405124 0.22257114470113928 0.2420703910763315 -0.7403573828223895
Ni 2.7979185786670673 1.387639242223969 9.51594215026515 -0.015286236735109157 0.5427655337744072 0.23520503141506588
Ni 6.35974453593221 1.9518019762089425 2.5421465311394416 0.06283647571024661 0.06550270968850008 0.43912025157791473
Ni 4.018862613897091 6.983767824745156 10.652751733993158 0.036850593169446215 -0.39077836993941734 -1.6739956460222334
Ni 8.608654490341026 7.169050494450785 0.605729983399444 -1.2835371213160798 0.2610019378735118 -0.2763488526432273
Ni 7.797126414771177 3.9357062581791205 7.695737770788244 0.498706852892296 -0.8251302535944113 1.6526536900113473
Ni 2.980769669468228 8.06794237687667 12.585680286525623 0.7427744769043143 1.6219367205434647 0.6559596360015993
Ni 0.22506493984940348 4.806976497094702 10.17135921735331 -0.626472682286076 0.5477262202137921 0.2358560347355035
Ni 8.744968621584764 2.471995935097392 5.8247097493931195 -0.16677100701238376 -1.010858261325272 -0.7119711183702125
Ni 3.8217590100416503 2.659200189630147 11.764636267894804 -1.3053665584863454 1.5496298434489377 -1.440303708817584
Ni 1.0978260007374994 3.2707104094740327 12.774020188584172 0.31550392557613405 1.2119244420750999 -0.3906307886179595
Ni 3.159404202094225 8.644053543530791 8.04575945591973 0.7199844755929923 -0.47305007155614015 0.31597572300623
Ni 5.5168882527542324 7.801051547759289 3.3282687053242914 0.7790072339841034 0.28175099749540505 0.6820751021417286
Ni 3.1318645219177776 8.471056266866839 3.4965749471804113 -0.1264980184249499 -0.6430550121247892 0.12495535652817834
Ni 3.5481198664365867 4.344156871907184 9.153484805979915 -0.6768300516927053 0.5875996593699623 0.7452900442373165
Ni 7.50288715325635 6.16155719466242 11.477848384131422 0.25897796546494756 0.1086555909268903 0.0682771871098437
Ni 0.44819281290861834 9.438260034545216 0.5352998013185667 0.5081471723695894 -0.7876008891903856 0.16614340073071387
Ni 4.745567745960513 0.33396780013973915 1.5870660512424417 -0.22159283994827 -0.3710276696750513 -0.32935960051230373
Ni 6.169799063233743 5.640370568730572 0.25104276316399216 -0.6171578326430532 -0.399799342491105 0.361439511765984
Ni 8.069244683181312 8.994519652072531 11.40612409207929 -0.33633706027140137 -0.21400448607805078 0.23518523392072402
Ni 9.484796994102638 4.750531081177499 5.810887999193451 -1.4406502935237253 -0.32661340522573423 0.21947553649495105
Ni 7.928058287091543 9.060081212122215 2.197670120895336 -0.08132656409463412 -0.5493696693544862 1.5005407992317705
P 8.60309919771284 1.5613377607442667 3.6342105095066897 -0.19576328047967576 0.0016537335533390871 0.0005057359918249354
P 1.7476495256416738 3.2681604390873247 1.5844933132629948 -0.5859628950974877 -0.38799180833321567 0.8970206119768099
P 4.900132379543405 1.1839785716598512 8.481299862191728 0.10321127998286742 -0.1967950641782998 -0.10747339769333104
P 8.544805053265275 1.7967910978083768 12.540948341720506 -0.369291403710235 -1.0490483992417483 0.39824408218884316
P 6.478263516691563 7.557948299535054 1.2308634200343176 -0.13308904137890626 1.404720926616968 0.21393918005775417
P 1.8817597539083284 3.147956656465325 6.126213694398935 0.14293096716999254 -0.4742842010735574 -0.606702441637684
P 6.837326668251349 3.9858131762779347 5.768914575924527 -0.1779843592296999 0.18463297489446914 -0.6013272933686999
P 2.374177249655851 8.478351003580242 10.42965027134152 -0.014254453036485128 0.48011443460208925 0.08919593954038188
