# total energy = -381166.7449791129 ev
CRYSTAL
PRIMVEC
9.24573504123460 0.00000000000000 0.00000000000000
0.00000000000000 9.24573504123460 0.00000000000000
0.00000000000000 0.00000000000000 13.53206780607174
PRIMCOORD
 96 1
Ni 1.0213208678224819 1.4815365717326412 7.00061256393912 0.48972470399834367 0.3085022974473203 0.23240741406527074
Ni 8.465394939331043 4.042050414566126 9.951279780220485 1.4863002301523562 -3.4050900939399873 4.770890432232358
Ni 5.370006082697601 0.9300284807200847 4.860096402465994 -0.33804170166733394 -0.1327383429077069 0.3151396002581799
Ni 8.541034297127752 7.461234155614501 0.8852310456392124 0.9915199660079763 1.1115164358689826 0.44314762756975296
Ni 3.8484262328061103 4.590904979642042 12.841025924205274 -1.1358403573263278 -1.2024933785691871 -1.159814351643422
Ni 9.051620765159226 3.1418764120669893 5.122171383082867 0.2829982396389449 -1.473500764394843 -0.45873622603662934
Ni 3.0447222289930593 1.336498727244561 1.837411382776011 0.6735290123439304 -2.240503774829219 1.5350953972781884
Ni 0.4834668782149101 0.7914608015646215 2.470319849045628 2.059273140748079 -2.4037060906537375 0.5023966430390574
Ni 6.7138829064489185 6.925924592270913 6.722947425014363 0.025533882605046347 2.0482289671187757 -1.6798947851154875
Ni 0.8700745123014607 1.0045675960552605 11.390401542774248 1.579764458050789 0.09075917026244369 1.4309032414392904
Ni 8.387795485720508 5.117153722714174 5.765540473898529 -2.0269664581955738 1.9975993178873663 0.33389476937849594
Ni 6.42266074633637 2.244300461094668 2.4325519462631098 -1.4175103650721523 -0.02616791664461945 1.1712133375089828
Ni 1.1530448539525051 -0.014605487533487602 0.2527765449566654 -0.16036304660351092 0.2510306855934128 -0.8911775229324715
Ni 2.208685889986866 8.292481203905782 6.258540629441906 -2.0768905967195264 -0.12164249010486147 3.0206911451643528
Ni 6.650484901753645 5.7437094444853045 10.400571648262558 -0.23753907886488124 0.5907173790633375 0.17940849327073619
Ni 5.754194107942274 8.05038163369348 11.278951604288354 2.2183629770661213 1.22630873582123 -0.13909719524619915
Ni 4.803861993226153 1.197202484173393 11.932834020339396 0.3154800143167341 0.761616806421798 -0.7271005178124833
Ni 2.5574904874980096 8.098330015252426 1.853473998140908 -1.1449814003956476 0.29848090865557625 1.071310038853426
Ni 1.0051963060332798 0.6481704009860363 4.923494407161269 -0.5473431258427606 0.4126322325897152 -1.3929437314763817
Ni 3.7632730137243726 8.146296888281313 10.149105223951267 1.1306115048272207 1.1715167276820146 0.5864400918442223
Ni 0.5502192355576168 2.001581426639318 9.394732763648804 0.8789868944035507 0.3966795659152007 -0.26323468385877247
Ni 7.452709587971356 6.630967155230133 12.654432199317108 -0.2587805047421608 -0.16227954689993343 -1.1152226810759762
Ni 4.754868843615498 4.344164050474363 8.74061920422349 0.02649470385641889 -0.4078864903746137 0.04534191846990901
Ni 8.598931089515357 2.5949819428048984 12.325913668905558 1.0058536090218289 0.7059467665530035 -0.4819309189855378
P 2.421365531521851 8.710037086660334 11.918504055708041 -0.7582458330670361 -0.1404213133742614 -0.30557278250535114
Ni 0.25946860792858306 3.6306521913021745 7.542910053773693 0.35093424135928597 0.0888239009129438 -0.7741640469591892
P 1.037944699300111 7.980742757892866 3.8528364483872166 0.6892371671078066 0.07137279531603193 -0.3519338862683939
Ni 5.782726446062387 4.956962118608835 6.688103023629634 -0.7913966087873919 -0.2133388274695939 0.35832230629324097
P 4.762838667160391 3.5674206098363763 11.005346267589307 0.3449052615563866 0.2730059043129234 -0.0593037799666398
P 7.464146562130326 4.441540131187594 3.066650338623478 -0.4932936522965246 0.6641851092351851 1.430108513452137
P 3.4463384646578272 1.01621722211856 6.785370929243706 -1.0700751380050604 1.8050648287576332 -1.4045759163986713
Ni 2.1277764632567595 2.9136177071060843 5.266586065033911 -0.06951954415737706 -0.5583772721697352 0.24117770405873298
Ni 1.8305908040879981 4.8031870545732795 3.8106712740525515 0.5372584879132489 -2.125337122256688 -2.441507477772227
Ni 0.10073043336066387 8.904983408521185 8.062026636889295 -0.14612967661294832 -0.06213430743689943 -0.35869974423731776
Ni 4.303658485566969 5.750948854967498 10.498583835541785 1.476502270225328 -0.5324353554929928 1.3316311486098291
Ni 2.8197550056817846 6.79028966024821 -0.2779184720629595 -1.91784755447902 -0.6098217039929562 0.26907751579279465
Ni 4.87819770239197 6.501249493588788 12.596501197710111 2.9046318055742235 0.13629649257261042 1.2062857557320839
Ni 3.1938189511333523 6.411048103212954 8.70202658188157 -1.2104046629964638 0.8883737349350893 -1.0979842057105025
Ni 1.6156182202802372 8.012409400168105 9.817014141546968 -1.9447749749974828 -0.1575456317593738 0.17094802120820882
Ni 2.1830567126476073 5.987769110511431 10.947266409649279 -0.7890286227758476 -0.44689115377258515 0.8562565426855705
Ni 6.600530195706019 9.084692759150037 8.22864772509338 -0.2853176318007409 0.7916935712025204 0.04250547746237841
Ni 0.6285176667319494 2.9192945883782 0.756113432197478 1.3971510846895099 0.054839316437382976 -0.31681390263680925
Ni 6.201160673639173 8.4582664776685 0.617421860193405 1.447611555332907 -0.5384987880782532 -0.01968153758932739
Ni 0.6870126581721696 7.221529230759655 12.297929602869216 -1.1132383036560958 0.9868498142258165 0.3258986385468968
Ni 7.902070799025711 -0.027410830468146286 12.465104510598056 0.4030440746806478 0.11389472783864256 0.779643839126838
Ni 2.798230934669593 2.805784700140796 10.406322495414441 0.7835912538103602 -0.6191717777492884 1.1785247835687318
Ni 1.7367928228084946 3.453282011620953 12.220471609003736 -1.7931212832425116 1.9944309474617137 -0.06832912339370167
Ni 6.753223508749982 2.6040520088113244 10.905980504710344 -1.183100318754556 -1.868675720740059 -1.910764165269677
Ni 0.9300747093949391 5.770864168094757 0.7218265486314936 0.07948668267241794 -0.6876502822366608 0.04734969292855717
Ni 4.379186894544028 3.194521626991139 6.232451014501097 -0.29066809747937683 -1.9491584487771592 -0.06804681626659248
Ni 7.996525227488147 4.761525772794528 0.9904752468126562 -0.07070045183935567 -0.5056107791009808 -0.5679528316733121
Ni 3.360316146488828 6.652602175061974 3.6143880189149127 0.07087400130274245 -0.7074323499595945 0.8781003780335395
Ni 7.176280603812204 1.3990738615274276 6.3472164735475465 -0.21406053612696685 0.006835534864594679 1.8370604078276234
Ni 6.811480884801451 2.0276821364620914 13.66508811185069 -0.7343021777672452 0.7410546659997301 -1.4944902221623164
Ni 8.675171420085174 2.6936801636189647 2.6147474750256303 -0.28966408169489466 2.303595303973065 0.7215947575029056
Ni 4.972041912346327 9.242424997753126 2.6776711735168988 0.13049042741379463 -0.6684284578925714 -0.029294635199059223
P 3.57551062793589 4.888340273655017 5.263906651039352 -0.15228104092632483 0.10334909111231233 -1.4612553713685867
Ni 3.2790183988899444 8.826967896836962 4.52151019124466 0.8383464951743691 1.2348730804514734 -1.956305601344902
P 5.672563513884439 4.973539721411608 0.6940126041186174 0.5012928684519173 1.7797556605688833 -0.08808599430565474
Ni 4.674430949368907 3.1401104766875525 0.8543632348654567 -0.21681007384764597 -0.6850231290264589 1.419894806143929
P 6.728629853727461 8.229397554199517 4.905266440666193 0.20135054475946612 0.49252360689971947 -0.25887923510355415
P 5.337840170733935 6.674505321207972 8.49226581887689 0.806610854633985 -0.677753077727607 0.005548183511738832
P 4.9288828215022935 0.9909208912382522 0.6937786870238543 1.1726058469811353 1.7573706080054636 1.0778861494090468
Ni 3.861074398246264 6.728925717246528 6.299854271585754 0.8942587329609566 -0.8425281373558845 -0.8137171266614631
Ni 7.7384767644510895 5.039498794693815 8.444849067078769 -1.8598452669326229 1.7810283566337195 -4.4708200676024745
Ni 1.2489416170703969 5.705561541995484 5.639110595612827 0.6349143852955258 1.7986108456021734 1.321921120410917
Ni 5.114158104583612 4.672156498566071 2.9140226702978085 0.968881402672854 0.8929646967398814 -1.6258702512699161
Ni 6.85988230737397 6.58008787568542 2.2116408268835572 -0.8776854019833077 -0.8003373629204474 0.14382725373201682
Ni 2.6366062416437672 4.7769938874007964 7.263405013589732 -0.2268378903972932 -0.33276708353195594 -0.513748834827083
Ni 5.10503256416736 2.014710370297957 8.224046122798375 1.1235597401867619 -1.4045561189043296 0.1552563215045649
Ni 7.700319616226298 1.8124044434002917 8.577530911351776 -0.15287008066057545 1.0341809952116126 0.3423403290426878
Ni 4.014045083339353 2.960798692662448 3.6330080045727526 -0.9906725304060164 -1.5812610972009733 0.6213245624262331
Ni -0.11839718374300742 6.140397703410597 3.3871574396827686 -0.4790839364550459 0.3245966319060216 -0.1775228462122491
Ni 6.164445860069838 5.876219318087852 4.470277724624061 0.5569382257303633 1.628599220165305 0.9585838774015879
Ni 0.7387813774210801 6.470609127895316 7.894310853664657 -0.17641084409499297 -0.005867514524370541 -0.27840804916510115
Ni 9.016644149764415 7.798916133955684 5.839980659869517 -0.6202184738462481 -0.17171009618521396 -0.4529558719094264
Ni 6.766038097419612 4.288782097998835 12.339973658075763 -0.49280154315145447 0.9392365832232276 1.1432960422734246
Ni 4.488073915295996 6.903679353930993 1.5818583436075926 1.2605835978437 -0.8404542855459911 -0.6531550766732687
Ni 9.06563729937507 6.4117230418658275 10.19101336685374 0.21865946835155892 -0.3091805544612675 0.8031033557013588
Ni 4.051582767321096 8.653185062324438 13.352781053137067 -1.5418347728845512 -0.33617816609603396 -0.4902774911780201
Ni 2.921152981107346 2.7432465487978135 8.281815324043382 -1.2196716901206865 0.850766980325909 -2.382144305322562
Ni 7.663382905017661 7.246622155470604 8.689616956403665 0.15615466494911817 0.7866128142455033 0.9791861270329717
Ni 2.8744527737694674 1.983783386820388 13.361184501652092 -0.023214490443250343 -0.6063378592094139 -2.3105941038884015
Ni 1.374489452239877 4.564073856756569 9.329427363829039 0.8934619480912741 -0.2618426886072523 0.3341724485199148
Ni 6.400498719611189 3.407792995564259 4.929285935547024 0.37828126591367106 -0.352171970421129 -1.1770088611448373
Ni 7.69282132516492 1.3917974681053509 4.2871483766294824 0.7867172010338516 -1.4280562589087986 -1.404509324826794
Ni 8.732263833530311 8.929808206917977 10.297416058619035 -1.5668351515836305 -0.4741407335171577 -0.570445773298495
Ni 3.0158662901489652 4.959911508064542 1.6916440497987293 -0.19254168821858453 -0.1663444609979264 -0.4337427893160852
P 7.966550554712577 0.7494056514761099 1.241919481360019 1.1982212335563946 0.43854715268326405 -1.9190978819463527
Ni 7.680478268978805 8.761739236617455 2.7799058879573235 -0.7699363820310868 -2.098008095424432 2.4258180920614287
P 5.343923864344768 0.5579311030968217 9.886839781193995 0.4258027085334022 -0.07048139385001409 -0.11279866656098637
Ni 4.332301772506733 8.584017719007338 7.592951669730044 0.6351853795687253 -0.4523483202324145 1.0710673267150006
P 1.8060433777403313 2.515477867790364 2.863926504505129 -1.3412619868313738 2.6855925852857427 1.815211430273332
P 7.369229846919346 3.548633276375563 6.93894628540389 0.18087196519014012 -1.9060263934743757 0.17756012720808775
P 0.1757457040468395 4.985226330414792 11.799150862969045 -0.19839017657956157 -0.06812986289870201 0.809611846243838
Ni 2.511354269993355 0.6293072524984619 8.798347724234626 -0.0045002018631987014 -0.9820181971651282 0.21123592219397816
