# total energy = -340860.3550608631 ev
CRYSTAL
PRIMVEC
9.31807609406966 0.00000000000000 0.00000000000000

0.00000000000000 9.31807609406966 0.00000000000000

0.00000000000000 0.00000000000000 13.63794624923686

PRIMCOORD
 96 1
Ni 1.6328717087450673 1.6469979121750364 9.704926322023878 0.4693391983634562 -1.4145669661731122 0.3098624110196405
Ni 6.997949726605771 9.179339305475224 5.154079501720715 0.026128321655935646 0.7440065495392026 -0.3260973848212642
Ni 9.13861931273844 0.9276946153053673 5.662284579035684 -1.2708806088943339 -1.7624421089911002 0.7743306544440406
Ni 4.72231712564482 0.4936949691479855 5.399972349394048 0.004273430564373285 -0.29907123394140755 -0.5935144821925004
Ni 2.94359888913862 3.1762060238499137 8.616495825091448 0.5706350064911656 -0.6907314922651459 -0.30142764998872607
Ni 7.809563476575264 5.695077684399201 5.2934322622190875 0.8453039003288086 1.8729139271911228 1.065285944146533
Ni 4.348242958958728 2.5488758657237596 1.4627376155220504 -0.3307420826821271 -1.111611052465318 0.38167486497625236
Ni 6.240408772483318 3.9419002945958663 1.7074712945234254 -2.5631941908514633 -0.45075629315494625 -0.29977340221475474
Ni 1.6946785077892534 1.1105283145011449 0.5207239126105923 0.6043434544872044 0.6945351822819523 0.7320380643234167
Ni 0.6506011214810391 2.006666333146925 7.6886241663394 0.06371990675646445 0.18224287739573775 -0.46785207229496845
Ni 5.301444875892853 5.437106746431722 5.464629547929809 -0.25360615963007294 0.6016918757969703 1.3953705957503195
Ni 6.100926490726582 6.140267408194478 7.9961327924960255 1.989108763917852 -1.6882444426317635 -0.9825416737687659
Ni 6.906781669640851 4.334489478574405 3.911213074440248 -0.7090272052505402 -0.598696283503756 -0.9471956901693043
Ni 7.800692668088899 5.4396505812182525 1.1931619455283944 -0.06262718791291795 1.1607990841541944 -1.8066419434367658
Ni 1.9837438658397193 7.246220547310323 6.808172197069616 -2.0201944295790626 -1.1347566373438458 0.5281680955762066
Ni 5.70732163644866 7.074423177496112 11.954600626470839 0.45657547093988465 0.3205456017650995 0.570283793799334
Ni 7.514022055606706 2.080325725042642 4.1991919448126565 0.7068124569874086 -1.011356026897297 -0.9733792905432075
Ni 8.813288002346654 3.3502956403948447 5.941071167294858 -0.5274327600720787 1.183791945504942 -2.1447404664839644
Ni 1.4806795711318166 2.338622795675062 5.5406613220110605 3.0497440966662515 0.6129710482552152 -1.0066282824043244
Ni 3.589760879146019 4.59152860892777 0.6325240537672261 0.7452957006642713 -0.06754262293666433 0.1553013158098874
Ni 8.29599500537123 3.052881286121917 2.1184366564599073 0.8466791834097805 -0.6799570273574612 -2.0589679508028347
Ni 5.199281489081388 3.2333165125189653 7.997919067692282 0.8065054394043722 1.247592842010987 -0.23150881351040128
Ni 4.393314493253426 4.487361835745959 3.5577989461742927 -1.050239848446688 0.35843234950854397 -1.6731772638859956
Ni 5.884598035033861 0.0034765742082595837 3.060532358441408 1.5527629897612807 1.7779422615092284 -0.36541572280491263
P 6.83112820945093 4.387444105284508 6.705723677128231 -0.0030151326772399683 -0.2939989616248227 0.43259941974026145
P 0.8423950826941374 3.711771768138115 9.6655667684037 -0.8678794716364795 -0.4748105058906727 -0.18400819682627664
P 8.70428514764759 7.760792666052534 5.983635207299975 -0.03275225473035649 0.6848773474772141 1.250566065706698
P 6.331427740229979 9.137501143601503 12.982002383716868 -0.20224271755643233 -1.6709254917373417 -0.7568157854887289
P 7.880287674486522 3.6670356845844987 13.438709249622597 0.2580721658212265 -0.9944721066577646 0.2797547930009827
P 2.839823475154736 4.47700013507701 5.714053946460633 -1.3263346760975803 -0.9484524453945408 -0.7881199949186493
P 7.189119376717413 1.0639472518715827 7.959214574824826 -0.5126820841254653 -0.539376048476884 0.13237041804532687
P 1.4409100221614284 7.917224528310003 3.900370561042416 0.36961793381171826 -0.2429659063074074 -0.3726212394144163
Ni 1.6486938020327242 4.595703107039001 2.471741763235011 1.2380427364287065 -0.6369787240237224 1.3199380285426172
Ni 7.792641850302953 8.410402344232155 9.074907898931006 -0.658494229497995 -0.16159666190029587 2.247684351738058
Ni 7.707446680144504 7.929813249176686 1.9022479719093028 -0.9909394109141579 0.5778227824888564 -1.9956244535491825
Ni 8.120498359328987 3.0545585398273225 7.968801943366445 -2.295425366567763 0.924345267933692 2.223127745444617
Ni 1.7397873143885152 8.292006868782822 1.7821929470992326 -0.3083680858623012 0.07013660891608565 -0.1594006826902416
Ni 6.537879035213091 2.2577978032268073 9.781803245611131 -0.19491584487771593 -0.9823534690173598 -0.4511447868426166
Ni 6.106815514847783 4.832848144831032 13.0615517315414 -1.1257801448768483 0.08140318296884044 0.4009684230985417
Ni 0.6958571536833311 5.888176176272059 11.167036831021631 1.6590002010546654 1.3551017209279435 -0.7169019800129266
Ni 0.7164659426846919 3.6400691722320375 0.44403335054616216 0.7356625484498814 -0.8754434000266665 0.052959582916166856
Ni 4.126770925236097 2.8065486252547225 5.663647813575134 -2.6596833216191484 0.45879741829186793 0.8167188896022644
Ni 8.84020792431841 9.275921164678149 0.18386707383983003 0.10402503413341439 0.8465555133477227 -0.04344084479245422
Ni 6.157021309096249 2.0674388257394445 6.057075624406375 3.014350804768622 0.29380895710120364 2.56707552818374
Ni 5.031164759342928 8.120228135120895 1.1179799799912151 1.7604908988020003 0.21060831591230825 0.07230019222630775
Ni 1.317072790245669 4.457618536703437 7.640345350236922 -1.0602301268901804 0.875246453524512 -0.6425868142391191
Ni 0.40552174185482776 8.885568318973483 7.861512682869738 1.0750957311481033 0.06610563337982164 -0.48821418089108826
Ni 4.327743191448219 0.596725868848192 13.433186425893743 -0.5822396806096295 0.17846104175580232 -0.25360641674038903
Ni 0.4983260529901324 0.6826543715989488 3.348470229278796 -0.8310471332994784 -0.20233707704245155 -0.461480878661302
Ni 7.394834543685375 0.8110667789000084 11.384657703875128 1.496258884026965 -0.4932494293221505 0.2413134583056489
Ni 0.9364573341084961 1.1597929830593556 11.873441115089118 -0.815344377852241 2.242413590257422 0.8682947047970273
Ni 4.049757025929569 8.171477553897168 3.290276980162144 -1.5907705793533056 -0.22520266878671535 1.0396373903404934
Ni 0.855429207600365 6.000067634574876 0.8505782171612872 2.0985547119565213 0.9079084625339073 -3.501808824219976
Ni 6.441110814487346 6.71750358898586 3.599994922171834 -0.7435308954543646 0.28994278927757805 -0.8780556408385329
Ni 4.706755938489116 5.4151999494239 9.497669945262173 0.25818143770558116 -0.3317661530712673 2.6143504020103037
Ni 3.700496896007335 5.181884640925879 7.4691210421053915 0.2341326242864935 0.07122984198026441 -0.6330601056956066
P 0.21422070686959574 9.307183310131675 10.117869911525124 -0.938275761971855 0.2609451164936474 -0.34242131879226834
P 2.4619288972507762 6.531663878426951 8.699618655116108 0.38325866452360446 -0.12914882578423564 1.7312829097794764
P 5.83279884976526 3.901282800696634 11.041963090401943 -0.5900555771096225 0.4862264610370981 -0.34008855689403367
P 5.540006261258338 6.105948933766657 1.6192058182764704 0.14003513367943624 -1.2847612235311678 -0.09909365827006804
P 1.3702417327070175 2.438372800765973 2.5047175028908937 0.7620286971482361 -0.10144750321422528 -1.6589135548781302
P 2.3865177070405243 0.9243149490889757 7.3204269102755255 1.6045285523693462 -0.9308018221923131 -0.22081739523482616
P 8.004255359468257 6.3104900231408365 10.118510995163636 0.5367946609029529 2.6757809985119594 -0.6292150209179034
P 9.085720594485185 4.172028821053617 3.6073189300187707 0.6971937029507219 1.7467529803906177 3.0258971148453244
Ni 0.7908707806717001 5.401157608679201 5.374687749785062 0.8478233243165527 -0.0093439031087452 -0.7955671952253137
Ni 9.193130058164114 6.216060639526517 2.678138081568891 0.14861567625959568 0.4061329980186167 4.003833428631594
Ni 3.015049896988886 6.272472272484983 4.704777710924351 -0.07641447150499743 1.7292561091574348 -0.8075580490386027
Ni 3.1633004883944342 8.720433373600189 9.20055376942576 -0.588433211014851 0.08532437240011757 -0.4185740519954469
Ni 0.05623179408894159 3.7228695968222136 11.762442328480622 0.3473069290193438 -1.3338564383959222 -0.22911125981250222
Ni 5.192842698467859 9.215018219019653 10.695408929791094 0.11470411111381534 -0.09140143183213291 1.190956324463865
Ni 4.8367803729625924 0.8560665640084191 8.092348451306602 0.03480425216337877 -0.33839240013853333 -0.8274244489452266
Ni 7.653877060409087 4.332318366833519 10.03634233613583 0.7579902654128042 -0.9945767505564291 -0.43367542641325957
Ni 8.788315558288398 6.231472737463963 7.425220789981635 -0.15513496543535218 -0.1099876794747525 1.4438060655438876
Ni 2.816733282476989 1.1869644930869216 3.4544922314203084 1.260953322478293 -0.046984082059022304 0.07862716288560008
Ni 4.035649458651882 5.0204862440851805 11.80840187543157 3.173538857227425 -0.4330509054553832 2.8148036317664813
Ni 2.7706274417306256 8.79511775387143 5.439617967951758 -1.1383646664100784 0.888842704151708 -0.5290818656397276
Ni 6.673009775411914 8.174245022511087 7.1286087220644605 -0.16877286793376095 0.8987075127609296 -0.3343560252856306
Ni 8.129229396673237 5.798126288444076 12.240002116982607 -2.8514259109752054 -1.48392838748607 -0.3479355637422782
Ni 8.499268836390215 8.047854637732655 3.9281645185562106 1.5423903882777048 0.04361310870426037 0.6659853956687175
Ni 2.6232527494823445 4.90268712550888 10.308582975905852 -2.9317381748727125 0.70533998620694 -3.252897756072727
Ni 4.326885928443234 7.53006778272175 7.149447667546506 -0.3372893968823417 0.4446182985780085 -0.1203440830084121
Ni 3.289243605518091 6.479184473600047 1.8976383196422808 0.12395339762622523 -0.9442157816053738 2.0153674405040642
Ni 3.35041677538468 7.384072165742358 13.515287062965719 -1.4903666869122463 0.2642546404828546 -1.4684045808188582
Ni 4.1929106296859135 1.935494867580893 10.1806728129088 0.18799983448417298 0.287983094448046 0.4357575057532689
Ni 6.961795591178146 1.6000813988043934 0.3371559490148928 -0.393525079446619 1.4249056290949589 -0.18508214661674574
Ni 2.5822066240806194 2.901770045341039 11.525660695658097 -2.1256119731846295 0.88054498291929 1.0779851368807563
Ni 1.1170136954953787 8.33968746439704 11.803588157297058 -1.0067558091211244 -3.7374074915290345 0.7988772334351532
Ni 3.463016407474224 7.184767835159501 11.19969948331917 -0.7985725577105407 0.45530894552263523 -1.8605572053979826
P 7.750347102698315 1.035033261605623 2.2368274728711706 -0.08777309105092626 -2.98684745714203 0.5271980183534534
P 5.204667337090967 7.678793596010497 5.150083910671394 -0.08036599995357772 -0.10670026697273237 -0.16245798145932666
P 2.1170389450387366 4.880174653551884 12.788138877792823 -1.6688259288958358 0.14856553974795061 -0.7207609487477007
P 4.367186607753667 2.5102058497380257 12.471274903190492 0.8133425169308638 0.5472644500860252 0.9932102092262056
P 5.41406314413468 2.7272517972936154 4.069304486058455 0.16685533919607393 -1.5851203230460635 -2.021376365702306
P 2.9617784556899847 9.249252830762204 11.784713462265563 1.590961098097557 0.4286628036900166 0.04065788273067837
P 5.342025097487522 7.8279480408017355 9.166636904079622 0.004789965189475622 -0.2098542113551031 -0.5430882072211485
P 8.854911848469131 7.276681338215711 13.319036265934313 0.7387401589339406 1.1402261450988491 1.538334987261409
