# total energy = -381175.38001939264 ev
CRYSTAL
PRIMVEC
9.20348608714253 0.00000000000000 0.00000000000000

0.00000000000000 9.20348608714253 0.00000000000000

0.00000000000000 0.00000000000000 13.47023219116348

PRIMCOORD
 96 1
Ni 2.453511313106664 4.9458705405844405 6.283256700501423 -0.7597941513907625 -0.4442668287758607 -0.702328453074126
Ni 7.08839606203038 6.002393918491647 9.187182936649199 -1.0372948582502457 -1.2635293107355852 0.6716495359330303
Ni 1.011113378023986 0.39361929063751655 3.701269324693135 0.11903153484457565 -0.6802871570033704 0.4967065346328155
Ni 3.414042332120074 1.4804175357145348 12.567537748993727 -0.6649073321131904 -0.9101324667684197 -0.34528912725836663
Ni 2.430226493547574 6.4576535565588085 10.108223637969273 0.17854794504265378 -1.6913174251301324 1.0244635108135325
Ni 7.1045849938898415 2.7135097923731766 5.6406462998435085 -1.2633074245327662 -1.7383040782923158 -0.6865575633931144
Ni 2.205081615731762 1.298317361882067 9.593580347237639 0.017572718776440704 0.8198049847267559 0.6988088699566416
Ni 3.89351634183149 8.562960180654171 0.8766099523463746 0.22191577050532751 0.6218642369797871 -0.29846342515407953
Ni 0.18108502932757953 8.325685108301252 5.719595643377809 0.34740463093947266 0.9664131436380194 0.45721747539925767
Ni 7.650517375947576 0.6259069939315143 12.058740512564043 -1.0682555682978183 -1.7606083982164713 2.9194770981171723
Ni 8.928946004601503 1.3229827043399165 6.510661954476805 1.0038075251260776 -0.1667003016754484 -0.18144223587131333
Ni 1.3053580286657442 6.54662365564091 3.9539712802654 1.6041963658409082 -0.051186293065827976 0.40515854992048933
Ni 8.604072152579253 5.086453789108192 3.6932282389821562 -0.20965726485294858 0.627228586615494 1.808803726974775
Ni 8.657286708583463 3.953182541515908 1.841771245162227 -0.25061622376381354 -0.14572421364441354 -0.9115697134355785
Ni 5.81101663077951 9.101557384376493 2.8200603903966903 0.02603653327307774 0.5265063916030674 -0.5435335222886832
Ni 1.2634361499733917 7.994856600842348 1.9171376715999455 1.4378413633200207 -0.8545963813743283 0.8250222672616372
Ni 8.532929205863141 7.662242617101047 3.594181243087703 -1.0894620271721043 -0.028309902688286724 -0.646903439336602
Ni 4.27746737043469 3.5129429925872584 7.578864556107523 0.6266092078639401 0.4557938555788537 -0.9275959136605055
Ni 1.765780822374269 5.232163379329339 1.6702412749912667 -2.471906144668743 1.8343990589453762 1.245025595504443
Ni 2.283596554727253 0.9200319992553802 1.702246397527525 2.1682866292350207 -0.13320165569737058 -0.7584381515835001
Ni 6.20626954018056 7.343636339039167 0.6905578016290557 -2.400457501809453 -0.6905011214218947 1.0524281143472585
Ni 8.613597760580697 0.6208321917556716 8.942995125967887 0.08822740497952548 -0.1567493611103236 -0.2557802844632563
Ni 3.364564391428507 1.3036737907292568 7.540528355557551 -1.0168684720750938 1.553399337793699 0.006613905772091835
Ni 4.8578207901015125 6.696391983184413 10.15861548481982 0.7658709537124616 -0.32938608287486504 -0.9218533547497736
P 1.494195154244162 4.300356440096134 4.265550696772591 -0.33609486235360825 0.9814900925758 0.13754964825342117
Ni 2.6076789069542157 8.770876132693456 11.628205119265079 0.0329905959934077 -0.9418974178848423 0.9327046956419808
P 6.410596132683068 3.8222169358535196 8.936757923511289 -0.7081892827302771 -0.007933395914463756 -0.09181409388951929
Ni 3.656848699554026 0.9626938382214684 3.8725572431825124 -0.24665878177796227 0.056171147874929064 -1.5529874470672609
P 1.6876616332764227 3.0610518303930716 7.311345908437164 -0.023266426727108318 -0.6884776632339626 1.088797654115228
P 1.3314223009943376 8.140667429409405 9.913026903570566 -2.510843188053572 2.344950212770768 -0.822818574742099
P 4.530738101441243 0.764151636664766 10.721968225162708 -0.02220996043813594 1.116713663799206 -1.1802787901453609
Ni 7.700188589844969 0.42878489026333666 4.610496431394218 -0.5028908090666566 1.1112474984783118 -1.9195503961027394
Ni 8.169152218553824 7.58677403196882 8.004038918816303 3.0460959583907026 0.7278852184973077 0.5461776447797497
Ni 7.124703814267775 2.0955417254581326 2.3212581397540317 0.29692950500805637 -0.06505122397337829 0.5062712955031152
Ni 4.570303887719713 3.556033714000561 2.469390087488204 1.5438865132072572 -0.8168734129022576 -0.23759435758284886
Ni 5.5229199087802305 2.7192803780899943 12.440419200475882 -0.9874080007221316 -1.5668402937899533 -0.03288646631537562
Ni 1.3732797552847484 5.223337236263267 12.486756911747069 0.6884835767712336 0.13334383770218972 0.24954278819397668
Ni 1.8863556923519886 2.2184358739057695 5.209114169011639 0.24868738217221684 -0.10356892043260228 0.7865274536205487
Ni 6.708623416067429 6.393394817364515 11.578095819434477 -0.09997477532344073 0.32115623876590493 0.6573238633389776
Ni 3.5907032457314267 5.317148368977021 3.5409197493049342 -0.9543181601466983 -0.12016564844901885 1.215191542862146
Ni 5.9665463405538395 6.7028896442945785 3.026936348518909 0.43532864574596636 -1.3459676198371593 0.11025096043846819
Ni 3.940592172679215 6.682347463561026 12.26130555784773 -0.5626267914747085 -1.2620699525812393 0.9827435053669268
Ni 0.7160367322485748 0.12585398954257887 0.18277386900706288 0.8853184930485333 1.1347643506533296 -1.9148954138292311
Ni 8.231745126783615 5.000971811216958 13.145033486260115 -0.6319015666111311 -0.01756397702569233 -0.5432422163005096
Ni 4.058212723653587 3.263528522211241 4.892334782919118 -0.41858176530493074 -0.9379291772657138 -0.5341261129318543
Ni 9.159548549610415 3.6545478280560926 5.95524353940739 1.5229189098166547 1.0123595284611469 0.19370125574432448
Ni 6.146851834617919 0.8224069419466506 0.546031779706445 -2.662479139196731 -0.2008401807819509 -0.4302743711515106
Ni 3.9523082103466933 6.323310271537453 1.4362638116691864 0.27115959513280397 -0.2673890723467782 -0.26869030765670504
Ni 7.045572241710838 1.70324313506043 10.368522150879118 -1.3903651721159282 1.1972910084326411 -2.078172034535111
Ni 7.664506674655014 2.4869567812006284 0.10814464179728245 0.7681157838825804 0.5689488770379943 -0.766119579388158
Ni 1.1145237466271198 3.034232872213156 0.3688158958897908 -0.4194122316260261 -0.537304510659836 -1.4794358989323553
Ni 3.463888412251311 8.504996625878224 9.445919617986245 1.091546420504959 0.362689325012685 -1.79563247970014
Ni 4.851985779982753 5.073854216785508 5.856088862726834 0.23687290603579206 2.0646596018709733 0.8121071018618659
Ni 5.999835349385944 8.769918970150316 9.17561231406039 0.4720877076428708 -0.13217912797012718 0.3303448472437085
Ni 8.00924164944743 8.985188507496996 1.30677720620567 -0.3346290764413592 -0.1316222270253927 1.6978873650381663
Ni 1.4006141086802013 9.159852264648142 7.729717974649452 -0.41230158872317374 0.042435029235759175 0.5100965827864763
P 0.23603720348703058 1.5912367105410155 1.83686854817443 -1.6389903335916416 -0.24549381493558367 -0.5664623631707147
Ni 1.7884121944279452 2.879430237832174 2.7161778829621803 2.0683874443445216 1.5451116438636099 0.225329938393199
P 5.709170854794971 2.0291109635697895 3.8424912951447125 -0.688838131897175 -0.18326951888803922 1.2760068743773056
Ni 5.212808448288722 8.59897342133983 12.107893570200101 1.2404217781838442 0.06649978349444677 0.291462311245898
P 8.933391288335512 3.1378549209941 11.972665830174941 0.9488643361209788 0.2587835900659543 -1.1552614421654168
P 7.844968627980952 7.537415736595145 13.081926103163386 1.6049460995227394 0.4731477734762689 -1.7468861635343722
P 2.2368796598332064 7.079257000440587 0.1260711918119838 -0.38610513283346404 0.0012117609199140422 0.30211927673911193
Ni 2.4964915926880664 3.1899282447353365 11.465929254258807 -0.5146644046628168 1.1472087470642693 -0.5274530717870529
Ni 0.6310839548018652 3.225923078449012 9.870434090749416 -1.3361290364801828 -0.5494545157588085 0.63716615744418
Ni 4.915232135717956 1.1988184748254205 5.7739882455889635 1.1468552203795925 0.5932095493575719 -0.5644196217090731
Ni 8.775873625586968 6.586023779171528 1.3999210861850235 -0.7443724175190536 -0.8260206266191644 0.36432686061610803
Ni 8.045816302778585 2.7824346989652793 8.112123737954638 0.8461629058949943 0.8596102896491519 0.2675479665221457
Ni 4.5623336688508696 8.697699215573172 7.187567304985722 0.12022452671141229 -2.2699251654141293 0.4227662356999235
Ni 7.17560829528806 4.721250261470158 6.763403485038834 -0.3179595862054782 0.36661359976775576 0.6490852774792693
Ni 8.984314176327782 5.615488570885101 10.459042117002225 0.6858746783934768 -0.36427466722193397 0.5987893574381945
Ni 4.471559686514388 2.986899343757663 9.851804394404947 0.8290663554240237 -1.4237612310778707 0.6208985306324081
Ni 9.072179857090875 2.413080399144972 3.8186091693447595 -1.769241391301121 0.5348658193113562 1.3437700979652083
Ni 0.5249861682891446 7.554018825324236 12.085693841639438 1.0337498212114649 -1.1429587135386636 0.3997546052960986
Ni 8.175419792514196 7.975308396595903 10.493754905117253 -0.5160934237998596 0.10442458356467822 -1.0518778982707433
Ni 2.4994735221493882 4.360749715173899 9.00631879098542 -0.09027965952286388 -0.022809541695347813 -0.5722465739526597
Ni 5.999025442618672 1.6491266374290285 7.772566644381172 -0.3019349286424477 0.11207027303539409 0.9443067986572834
Ni 3.7401126373212525 7.64454431353894 3.659888610977096 -1.3795827367884435 0.46114920635349615 -0.7415429184900584
Ni 0.16031920388442794 5.086895556435796 8.065974698146281 0.3290438690440978 -0.8551388841413595 1.1577129890297029
Ni 2.4934084248808346 8.962520321499353 5.560821704791394 0.6388692561782159 -0.8101903444551273 0.4634662845224469
Ni 5.502543390794529 8.12457053240986 4.985238451914087 0.6919221701391374 -0.20666655765574082 1.0159583015559985
Ni 6.911541875213201 3.9954725596479306 11.230495799452834 1.037793138042903 0.7823617522786332 -1.071260416562413
Ni 5.332306510405408 4.8445861772453975 13.293205929332652 0.46609626594612635 0.9050056870648157 -0.3152655843130828
Ni 0.45039467537193034 0.7356318742735777 11.266744649379882 1.565006583015324 0.9913045075630604 -1.0155212140185803
Ni -0.01900059682993682 6.166050306396678 6.118165489130281 -0.5640717514513511 -0.5620799178323029 -1.1350553995311872
Ni 3.1898822273053775 4.0872497219575115 0.6556259705474257 1.5427894234883366 -1.4698953064317717 -2.276417458006692
Ni 1.9096405119110782 6.887456352372832 7.772175496226523 -0.375541755495321 -0.13986621220173975 -0.5196256053228341
Ni 7.082469017051703 9.041320568560588 6.63122025817974 -0.7276880148848371 0.4813403365893904 1.300701034689876
P 3.489207202214574 6.908651980611796 5.805508344413457 0.08757511610750723 0.8261512386597579 -0.08884061308349216
Ni 6.157656727172216 4.423048111851953 4.271962765463033 1.3124666598662365 -0.04611684896272058 -1.900059120147347
P 7.199233643828844 6.693170763087306 5.062746529542083 0.05603102275263899 -0.8138292267592953 -0.027644758300462067
Ni 6.339453185966956 6.855483442037543 7.183836211764672 -1.4512319256943136 0.22165043265908277 -1.62919725876062
P 3.904542118049589 4.823215682772589 10.775930104229449 -0.5955957902015614 0.4515764750633965 0.807400440414816
P 6.568610783675165 4.676788220644085 1.5114544515244626 0.6410050715742961 0.39943218895967336 1.1906750457780202
P 4.201603035404818 2.144771172027923 0.8280735282717618 0.9117800296741716 -0.3792377162896694 1.5420965111863698
Ni 4.246193925034774 6.141688678976555 7.771866259097201 -1.0957044085373904 0.3352199159478227 1.5433774347813225
