# total energy = -340872.0530877093 ev
CRYSTAL
PRIMVEC
9.25333067823173 0.00000000000000 0.00000000000000

0.00000000000000 9.25333067823173 0.00000000000000

0.00000000000000 0.00000000000000 13.54318478859128

PRIMCOORD
 96 1
Ni 3.7383178753383057 6.035522014918208 10.025911724714854 0.7755321309513096 0.011221836857748416 -0.6017880350552022
Ni 6.735934381688215 1.253252614252258 1.14389952708729 1.2193744705952418 0.3134976937793827 0.4787412084036464
Ni 8.2583386283535 1.258776852728229 3.55275620653112 0.1373835549892021 0.014357040052620436 0.38684278233043695
Ni 9.210857992238811 3.292575678309809 8.462080316145174 -0.705121699548547 1.3139779543044405 0.5432915814812063
Ni 6.313788178150047 3.952736056184548 12.620108918360215 -0.00968457427761558 0.5298858495982617 0.13545857005234735
Ni 3.7695201067302238 5.940305241186643 0.7948833220406619 -1.6232744655182818 -0.5819090367430881 0.3292151045146395
Ni 5.916265087818848 2.2307097045910753 3.3298490200268276 1.1229575878263887 0.5849192843243216 -0.15212497496443478
Ni 3.0334083898089657 8.78864701538518 0.8571323288673856 1.0474972527045443 -0.1910548192604129 -0.7292399327529893
Ni 8.991480026094209 7.715973151314798 7.20118260000205 -0.24658087735217535 -0.0784099046684714 -0.541207445258668
Ni 4.2097103052904075 3.00970135634927 4.668254485453755 -1.2306811538573128 0.4139231834869968 1.0484876416422717
Ni 0.4740324052237846 8.616988476075727 9.515049212318438 -0.7334485715176982 1.0338413524840067 -0.4958940660338492
Ni 3.0383959350996665 9.216086124129806 8.28718311106254 -1.535868270888471 0.6739403888497362 0.49352299469851135
Ni 4.390178015502917 0.558691128534775 2.6822278306927734 -3.3856458691724467 0.43841474087045784 -0.34459878605956135
Ni 6.87444749014184 2.3801602500272767 5.904747466996333 -0.9989375986282861 1.0557929170544333 -0.8184739246201581
Ni 2.594282324288542 7.6979013963004395 2.9377067415445013 0.6664224832061361 0.08241516917312258 0.40489064097108335
Ni 7.037990858356775 3.8113174018658387 7.6602690253491375 -0.3516595495610847 0.6061915634395367 1.0290989527030148
Ni 8.095193153362125 4.577474683831451 2.8987964856124084 -0.8546393187971216 -0.37767088602318183 -0.339819362393047
Ni 1.7045005430951647 6.791620926325392 8.858881646675494 -0.098785640111346 -0.09766335358144469 1.2605128925067646
Ni 4.579168043364286 4.683878734476666 6.871649282913809 -0.7845523321720488 0.24302067080474277 -0.6255907939017549
Ni 8.751837265540265 1.036224994125909 5.975957399350913 1.0026921805747118 -1.2356225570229882 -1.8623243246007346
Ni 1.5274010452867655 2.418996479313125 12.357384649507338 -1.1534207894122523 -1.0785127272494524 -0.39544106552240926
Ni 2.067138576383799 7.690656038299291 6.67156266078044 -0.9807359880185949 0.4359133146048428 -1.8920282794230707
Ni 1.7817010817970547 4.43335405692483 4.926576944854337 0.3845190192932668 0.01082717252249103 -0.7840131718391272
Ni 1.4371255501919988 1.7700788983367197 9.063965992763423 0.2704165463191923 -1.47848587631426 0.19762630183034352
P 4.647457624524534 5.591195577499131 12.016516002212958 1.3110654086433355 -0.3567644748878179 -0.07223128666158528
P 0.3536548997669037 4.918265603147273 10.808301199535656 0.7981532107849352 -0.7952386082413013 -0.8287025443267019
P 4.847070476121941 2.5838908338220166 6.962361535221417 0.5554300166159531 1.0391031151035781 0.9485362633575987
P 5.763039183424194 1.1097427071771515 12.784942200885954 0.35415634784100947 -1.7185801175008273 -0.4829616742428973
P 5.875679979015481 4.3276069927650305 4.500846926304875 1.4173931227679977 1.618400168145116 -0.5653225931393168
P 4.809631499783952 7.717120564331583 1.6050031785445302 0.14570261637785875 -0.586397668642061 -0.3935523331401286
P 8.090335154702352 7.060161838906905 0.7666773191554765 0.840343728110056 -0.6392497794460862 -0.5612201409351689
P 2.3926985132348833 4.029399901701168 13.478976246748948 0.6303931003864046 0.2489228952217907 1.498974483185915
Ni 9.16789477742485 2.511687093741608 1.6356104207672608 -0.47487786879349825 -2.098519744953528 -0.042548671995488015
Ni 0.30596971025564274 3.2691092314504067 6.204958829507257 -2.229493539761644 -0.9689366813908217 0.004589419142895321
Ni 6.6277536915331385 8.709984450419968 6.627249385005601 -1.178000278523829 0.6087510966365968 0.42370031747841863
Ni 7.880802732508225 7.925107680285362 4.930762226366368 -0.3836433015565328 -0.5985728705520144 -1.3483453760407167
Ni -0.17523125032381187 2.82087788844195 10.781621070896177 -0.5856965288099784 -0.2961568885080899 -0.04936826602048272
Ni 5.568487903763732 4.3801196449444895 1.9217372884971535 0.1476178311227006 -0.0733420032272608 0.736233333351687
Ni 2.646887509775806 1.9211857899826343 0.8899196558220069 0.4701650366988612 1.918593945726741 -0.1008558923768134
Ni 5.7713024078112 5.890272481656364 8.53079832652056 0.7167150608131011 0.6427575354890286 0.1508309387433596
Ni 0.5293534432951319 5.287566034597883 7.240620295788632 -0.30258130397719496 0.8407581899396552 -0.8122225443938077
Ni 8.328765728924047 5.681184219339702 12.312014643357365 -2.064957078506734 0.8160321479478848 0.6580525139748861
Ni 4.821531283167703 3.3238241763556298 8.997862048333534 -0.010890164549942535 0.940281222437658 -0.007619207108154621
Ni 5.873616486251425 6.397234715128789 5.751803789190484 1.000727086428541 -0.8074469773820351 -0.06350547675281322
Ni 5.45345974883107 2.2876361955528433 11.06411878229395 0.9212815414067037 -0.32649436314936675 -0.42059853862464336
Ni 7.278457165350184 0.49330339190729855 11.065594688553443 -0.09063395753848907 0.0572119304346176 -1.0738950259717828
Ni 0.9644376539306239 6.182215067781813 1.7972892428299212 -0.7526454561611231 -1.1278025746235159 0.9338282677234627
Ni 2.340574500948206 5.46907937118859 11.870682583778864 -0.40717300924735683 0.754176805203985 0.6434116241332596
Ni 7.056321706632987 8.432329007019641 12.956914428108867 -0.11546901430429792 -0.43303959260147357 0.23649932474645718
Ni 0.7458101329123228 6.552190992379401 4.616763400992466 -0.11370857996976545 -0.2799396553182792 -0.12606324488037643
Ni 1.609579875948576 1.9440230103489613 4.859172907449785 0.7149032044153429 -1.3744009354771878 -0.9786742203935598
Ni 2.1939739813924053 3.9454259248679358 9.661789457169023 -0.23002914364108124 1.1029302368618683 -0.24911341396604195
Ni 7.987336329784368 4.9477559683447945 5.443602175550581 -0.31736951802996316 -0.43338463464571814 -0.8269752772229501
Ni 4.378370765426971 9.436639263283533 10.439019274746608 0.26987764309658685 -1.8431068711320193 -1.4769923224878692
Ni 4.843804050356417 2.553715722146736 0.5357493455306283 -0.4980039132880004 0.5211392137538831 -0.11498410424807941
Ni 4.715960032292734 8.21629149328681 4.747008658393694 0.9449341478286373 0.03556812691259681 -0.5063918802413795
P 6.463109176955321 0.6365745630482675 4.785050951898575 -0.13518860422041232 -1.5128083037452142 -0.6704609149415679
P 5.062404736715455 8.839484814693364 8.259555441351138 1.9929682468732581 -0.27621721216136946 0.5641848799904478
P 8.366241718585158 6.716141507148679 3.0922882588985012 0.15093249731823039 0.8679527480765762 0.4619796726745914
P 1.1602103732541151 0.6301305434927124 0.4712008860049451 -3.0591167961304024 -1.1630832522026808 -1.4803177873166764
P 2.864516596402889 9.221869455867632 4.562427842649244 -0.7671341366956014 0.600867580123462 -0.09753068465832235
P 3.3745231757021066 1.9994504617242843 9.970682294618232 -0.5002312599566224 0.0340653171148252 -0.10072090946084587
P 9.509740576449651 3.1737536577571337 3.705496311059796 -1.4099870601119138 -0.9256655294070122 2.1268335042965565
P 2.6171843179703322 5.37802659630826 7.607735090508883 1.2643926871771451 -0.7564846274015552 -0.3633218163903614
Ni 8.056514230699547 1.199851642317869 7.9896931531341675 -1.04548125071578 0.5826096623545385 2.35584371975482
Ni 6.063809447114261 6.132034254959047 0.29288642586506347 0.8515506525694689 0.7004008970341098 0.14719617020424972
Ni 1.7449653585983849 3.7193022805843343 2.4092517966681575 2.2103951283692966 1.1789631566577308 -0.9297088462384504
Ni 3.4289512673531335 1.0430632055727143 12.235468315141658 0.45061051160570137 -0.6376402688671212 1.6640452196777407
Ni 3.6299706252291806 6.126667323106344 4.9854901259346835 -0.3834018749696881 -0.3134807244985182 0.6766906979013636
Ni 0.7573647670579597 8.842936307074499 4.595026401655943 0.6670963693447092 0.26420244708868046 -0.054652397237557486
Ni 1.1254641161732573 7.673620656332351 13.68647201083828 -0.9783350918865861 0.6446164430746383 -0.8729787405362578
Ni 2.6303888209941366 3.048768918904631 6.583585693051553 1.144956460694983 0.20556432573049757 2.435551260188793
Ni 4.655942928850271 7.786242945262077 12.609991326484792 -1.495842879535469 0.8690752917167937 0.9901331129627785
Ni 0.6734000435555085 7.132106485725458 11.388234274210195 -0.37163085047668903 -0.8565931000893828 -0.10987789336976561
Ni 6.652709924648205 4.557931649222989 10.269770302772402 0.12122031496577834 -1.0054903121451393 0.44452445331262147
Ni 1.5520426651552939 0.726754748835995 2.6635925478338813 0.24114247994542343 0.27167690108885467 0.23678548852830839
Ni 0.4057095120727268 0.23701851594458745 11.739191828054576 0.49857624085170266 0.4740905970055126 0.9647948913083061
Ni 3.5806041055150986 3.410694445723165 11.700661884017563 0.45574191929499575 1.5720100109163506 0.1910234518018452
Ni 0.24020813906463317 4.078461061499492 0.023869892081433013 -0.018842329517483675 0.974929922859779 -0.46313126978053143
Ni 4.281645698778181 0.8466223957668693 6.108315192169336 -0.3353613266216934 -1.0677279779291222 -0.029741235818174585
Ni 6.255214594309347 8.838615001599996 2.739623465525114 3.3532507406711924 -0.7982077181719545 0.8850441563412241
Ni 8.245902151784477 1.8722079101613347 12.838817868689384 -0.2708844870945464 0.4368229709033058 0.5717331246513508
Ni 4.135526352422968 7.157747465318283 7.358229204675982 0.46465156307979977 -0.7809977820515711 0.013540457688596035
Ni 6.158859660891778 6.496051034533977 3.26366364628607 -0.36007091355323145 -1.0028037664519118 0.008955666531391028
Ni 5.683062645488148 7.461987728051046 10.626456593703004 1.2714007430638619 -0.9908208830584228 -0.8757804716511111
Ni 8.340415672376723 6.000794264498911 9.282878516369763 0.6843970654066858 -0.0902727175443284 -0.1922344413908109
Ni 7.250012426530861 8.317189812117615 8.81624785043732 -0.7078995194040002 -0.45622940045437554 1.10752454110077
Ni 8.706653251338981 8.829204364196206 1.8853605945327678 0.2341061419239323 -0.1740004348812874 -0.4176230009360872
P 0.8602025840203624 0.344290529017016 7.502247119610939 1.0095621682216678 -0.25857713048210307 0.4096878052494105
P 3.695724793755566 2.6043036815238465 2.5867889770224752 1.2345936015378416 0.5865115685121061 0.47900346092609764
P 7.892850569184464 7.472656818440987 10.794406398035624 -0.9089885829719636 1.6148001094986835 0.6968615164222837
P 7.394382893368556 3.5208923619883943 0.916062165943136 -0.7067828893010537 -0.1029639398587517 -0.1550236366684685
P 2.5543079353166895 7.807793952649912 10.90506698083988 1.6517180655709556 0.7359718521601841 -0.7634245490544981
P 2.58678712635632 5.593629203494408 3.2629863024729358 -0.36724583403511596 -0.021079960598750794 -0.9759730194123128
P 7.51335296721372 6.071119578430874 7.199584549776254 -0.1928939293516807 0.23770285813625516 0.29453349397205403
P 7.1497155742007905 2.263336948923194 9.742249018971814 0.6446107866476833 1.3082454226960374 -1.0316250615589782
