# total energy = -340896.2067653774 ev
CRYSTAL
PRIMVEC
9.05856536536593 0.00000000000000 0.00000000000000
0.00000000000000 9.05856536536593 0.00000000000000
0.00000000000000 0.00000000000000 13.25812606603723
PRIMCOORD
 96 1
Ni 6.610017143874858 2.0412299789081634 11.446217692317674 -0.4257271181004604 -0.0928268514247498 -0.027442926702301126
Ni 4.668195862999145 0.3374759526452635 6.028058660514486 -0.393132986214523 -0.07138590794215448 0.07251950732596543
Ni 2.75082365046584 1.3848100869614297 4.723631566420795 0.23673715178887614 1.0329358099506016 0.5165140562770459
Ni 3.3761273698463743 4.38767926449624 4.675385646453524 0.38216594568005796 -0.29205417919362603 0.3508797339722667
Ni 5.135409496899243 4.372524284378845 2.693984775244916 -0.14625926021227714 0.71188627196589 -0.1491455806211367
Ni 7.159681841151242 5.821514308059786 2.7280848392938823 0.32247187225353496 0.9487141836963595 -0.3085899720651202
Ni 5.178410507429591 4.528929476672292 11.433397104535157 0.40557301175008864 0.5739141914630697 0.1765093173460702
Ni 5.592060843401323 7.95973434800617 12.513417260822392 -0.21234098233269882 -0.0035257537650713474 -0.39444142061330134
Ni 1.8468150456866905 6.617218703464415 0.5358567258520293 0.8144128671769071 0.053865639670204 -1.4909863227741162
Ni 2.9844893480917776 1.6769307078973188 0.48771226181859895 -0.7826319752208845 -0.5143676993580045 -0.10219466579289496
Ni 0.6292768062182453 8.889559864521466 4.667098870714497 -0.13496286136285143 0.43137068953948293 0.5243404943000002
Ni 8.662833028084963 2.295929665674921 1.3107563138235327 -0.03151452566851347 0.5033206975152235 0.47058592628636375
Ni 6.7468014832488326 0.7785021794793863 4.804095180521673 0.3534325823011074 -0.3837764847002874 -0.8724424084168136
Ni 0.9003208627553645 7.498907002798699 2.4521165465393002 -0.11847951899584758 -0.5379935663070605 1.3264395771065607
Ni 7.619385924234053 3.477085082582993 3.8087146370407097 0.37825118400668406 1.0554275632952146 0.0195439835701986
Ni 7.528093700908827 4.017066173316941 12.61885896349213 0.6822018575275799 -0.48956529560234385 -0.27764340308493474
Ni 7.748869059797735 8.841313944554196 6.768392574169222 0.4693533394308433 0.3525974879943218 0.5810034942096832
Ni 7.009563293329685 0.5487044893311093 0.501276557830426 0.41578106263134207 0.06476660285342394 -0.6407523321335417
Ni 1.7433390517351073 6.648851214265337 9.264699520891837 0.5691159987434778 -0.2771358673208969 -0.5898594019384165
Ni -0.05585602086184526 4.926546151671049 1.3768032208970151 0.4570801784904451 -0.8366256558285206 0.07722796854522829
Ni 6.386949967909022 2.0050591267809925 6.980575883661029 -0.3449944788360833 -0.16581507085701766 0.10564508623534065
Ni 3.3084145925734965 4.121438965255149 0.31790763940581585 -0.34804586406789734 1.2527473896287329 -0.03371898951899999
Ni 5.902072131242087 5.501158138393521 4.782909007480094 -0.09743118296598059 0.8050229413215748 0.34020168543313023
Ni 5.3347251140678225 3.0681814349445027 9.15599582877782 0.3354646849687771 -0.14027630315596487 0.7378603274321487
P 0.13933976070757692 5.550817194582138 12.55585664029041 0.5072835388177135 0.1842282832568827 -0.9198612640204094
P 3.961863275029193 6.266498222170232 12.576870700587081 0.1612184526252707 -0.6796212412845973 -0.18785842381030227
P 2.7194447794995185 8.53644792192962 1.5369215191977064 -1.402369652775972 0.583586424445511 -0.9338064133465916
P 6.210190178888865 7.526164226452757 5.864705548466085 0.14574683935223287 0.3797341963101138 -0.958620644176794
P 4.853416352216341 1.253017017189777 12.514769704654743 0.25594252107273335 -0.9414395044118175 0.6891098975013229
P 3.8621103515069275 6.261334839823003 8.236491641817672 0.20452457161207357 -0.20236458784627726 -0.1174600765923977
P 4.722221147769104 1.056627316684627 3.7011785940224096 0.11176868263457526 -0.5597289011016231 0.444763308796305
P 0.23362402822453968 5.53358780296033 3.479860627058767 -0.22448533100471663 0.43498951723899276 0.6393485098074796
Ni 1.4852695785943684 0.9867767179486856 2.697100921784297 0.7366017724346993 0.7868506412879223 -0.4737910634872228
Ni 1.8172116535625749 6.415855850487986 4.684494034085347 -0.04086382809389737 -0.4097945060306039 0.6087007030146355
Ni 5.813914171587284 5.688751971777338 9.241139097827084 0.4144937112784861 0.3393223681519704 -0.07382305662873737
Ni 8.69860530332919 2.3053143395551485 10.182134731486887 0.5720905079907695 0.6108640292145415 0.3150946059528573
Ni 2.4020779364553335 5.175031662490087 7.01568326019598 -0.8625953404194049 0.08655670214532189 -0.06228651674404756
Ni 0.5407302341025723 0.08456805013864985 9.340654686932687 0.32126319665741443 -0.7051633514197597 0.21694505676361348
Ni 1.5933110895687652 1.135563656638588 11.552030796173792 -0.728447518758681 -0.24370047048058674 0.10408159840296267
Ni 4.23336660083825 6.937674517351417 1.3842810667349765 0.31329791906375076 0.0018740770942612887 0.7492315453835677
Ni 5.640225236278901 8.08024950370361 7.910513726388791 -0.28123343442903825 -0.39541998247648674 1.092398741202925
Ni 5.401033813684875 2.824515080982878 4.885711950013433 -0.9577446693297441 0.5220658393332106 -0.15119089318593962
Ni 0.6480352837000748 7.481061628721432 6.926536105186235 0.8632910809348486 -0.35677398796951454 0.2905331145634093
Ni 5.158427311889261 4.60585481508049 7.036431904522875 0.10680619642297734 0.1912131992151481 -0.1310298448570324
Ni 8.267326998852706 7.172807702591831 9.115757680731516 -0.6705899843202644 0.2206333042484781 0.5977881698671897
Ni 4.613382483028819 0.5318492164653376 10.370241279679218 0.1199918418753159 -0.8049784612368847 0.2963767178283799
Ni 8.202630723898471 7.114062905185193 4.994999013747029 -0.7419550663268125 -0.8418280259650662 -0.6275579449304547
Ni 7.316268204755118 6.064256688338222 7.208059110318573 -0.12466250787810788 -0.3470230792303378 -0.9885433998781555
Ni 2.4906435315586015 5.213295043252715 2.3404833143356463 -0.5417306647519896 -0.21661698400023338 1.0800415051891528
Ni 2.204764262266995 5.238631851016225 11.729159268810673 -0.3033804028397227 -0.14339427995965628 -1.2361252076910194
Ni 1.115444582615436 3.3126087084099303 3.6256337809996815 -0.11642803578345753 0.42682137960590366 0.7201945347212694
Ni 3.607510308960906 2.6640335342047767 2.6996726485358384 -0.5467769689266454 -0.19797340075711709 -0.11787762374579053
Ni 1.002085693679945 3.2560017324663564 8.153164615155461 0.47859748373693056 0.35901984658089775 -0.05780894058866819
Ni 3.5562388281094695 2.959252184549004 7.475740627334129 -0.5979280378791637 -0.37302953059642857 -0.8307278022868467
Ni 4.078003143579771 6.861745621150579 6.0720225965597665 -0.21893586194139714 -0.10688410084876432 -0.39057550989999185
Ni 0.7992109661179851 7.389398004209826 11.470280865768867 0.01926347621530231 0.4640504391606911 -0.27521345348720344
P 0.3069259404241556 5.464507182293712 7.959833992226907 0.1141747209729066 0.7209257564603391 -0.8168168486327093
P 8.671049147012923 1.422466543834119 8.001398314265552 -0.45375754187511524 1.0556589625797304 -0.7967876978959761
P 1.7519899818080968 3.310597706864167 10.580766871680598 -0.4385335258365093 0.18067527579830175 -1.0324735256022026
P 4.051461546601907 6.234648305796795 3.6078808042907338 -0.06395156315129631 -0.93372285249385 0.2628644450035473
P 7.022009762356165 4.007853612181621 10.236479783619753 -0.24101443900799138 -0.07859271010323884 1.010044250064409
P 6.2291406979597514 7.723831184696433 10.142678337645085 -0.06927837468084842 0.1700134252090814 -0.17223074457537435
P 2.4600436972271256 8.420271819116955 5.81075816735961 -0.6352627697738802 0.4009632808922191 1.3018693439663642
P 6.94516595103766 3.8932355826386478 1.5315126497248452 0.4023905002570489 0.5981897761809827 0.23857111967382136
Ni 5.262166004240966 3.016167151720307 0.5650959636421826 0.22945810162895966 -0.8174639952984052 -1.0522406809268006
Ni 1.6467294504487868 1.1526843454741387 6.9550805510008935 -0.6155812321845527 0.15588547044813153 0.048089913528691366
Ni 6.865631745759283 0.864948976107186 9.152111515882222 -0.03339040253498766 -0.44841041863058906 0.17675974279397944
Ni 2.6198730272876825 1.667863083810342 9.392812095492124 0.1279517201523409 -0.2362123896336577 -0.6168148474813376
Ni 6.369204238052492 1.9603732230636537 2.452275977292478 0.37138968100016034 -0.6599864977728053 0.6736691374662205
Ni 3.9782049272298985 7.000278263670194 10.39240849536677 0.6652135504996995 -0.024971325233356993 0.4375184543084336
Ni 8.483645543505055 7.340998088628691 0.3135993856438117 -1.3196392663552756 -0.516537967536446 0.25234014843345576
Ni 7.65254027404258 3.7016559804253903 8.116916765221358 0.24341070715430985 0.3303106515716634 -0.04242860147785596
Ni 3.18337921268085 8.63921734777053 12.472158212441817 0.270285934278599 -0.9495181676548936 0.05632541406460622
Ni -0.013106838452993612 4.924082221849214 9.996031032131349 0.17293908349630863 -0.48633599003176886 1.490672391078123
Ni 8.645023888269781 2.071413119225652 5.695584847750171 0.5216701465566886 0.7718431121354965 0.5308698107780857
Ni 3.6490438318767784 2.7987525206398596 11.497394058231134 -0.001424648261668514 -0.469760602171591 -0.1298723342138215
Ni 0.9022757011948945 3.2282915805362244 12.639860341797071 -0.009715427515551009 0.5972893758539003 0.055262262907414504
Ni 3.101489780366894 8.584385850669161 8.025554790941616 0.36990744002767906 -0.8536288752547363 0.2833275979539056
Ni 5.580656109409811 7.986638287604892 3.499959772237772 -0.5557030677716817 -0.655955008015909 0.41428622325337033
Ni 3.015415290782026 8.186895995587703 3.7610520886930203 1.4671100303771507 0.47805009587389286 -1.169282181924541
Ni 3.4681442784133165 4.503094447805101 9.586712502191975 -0.778826228321549 0.20174520909472352 -0.3672126668043353
Ni 7.269997052071524 6.236758951563295 11.526615178890244 0.34245114358893924 -0.39460288589183007 -1.0287292280684217
Ni 0.6700747736137754 9.182305526478336 0.6898206347374436 0.556761590943183 0.6057333928561955 -1.534166457706016
Ni 4.762540822905102 0.34715412404838625 1.4839950384254996 0.1244053975619793 -0.194196193102872 -0.003944329359728691
Ni 5.983816626507699 5.6076596932292695 0.2410882862142188 -0.26747134764793934 0.5537194616827495 1.157549209758329
Ni 7.756894948849744 8.700869944709552 11.277985636879416 0.7192036315629098 0.7188786441233233 0.44248736827793467
Ni 0.02772645734807025 4.826557705445226 5.676042804350735 0.4647922024227221 -0.5743286532926689 0.385535119262607
Ni 7.846982382960617 8.510803122938379 2.9769797972744914 0.25457238019808415 0.5822095987026424 -1.0932436057017236
P 8.60623511070691 1.5239949461985896 3.4784420556981077 -0.9696406494363817 -0.8161758726146008 0.6193242441667527
P 1.70843639878094 3.18337921268085 1.530875832568687 0.49478052125469624 0.050178163516287774 -0.26612331826047714
P 4.633564967010622 1.2234770350243114 8.259017576699874 0.4703036191592545 -0.6502970383991833 -0.9563601302773916
P 8.588335385236515 1.4466438552108831 12.404886587309836 -0.18679398710152992 -0.12267041714874358 0.16186225685685673
P 6.53526586119181 7.620590713448406 1.3546758628977564 -0.4928318821687576 -0.15755694461328348 0.32247778579080594
P 1.8829949563793829 3.240538761121232 5.934416645292996 -0.1054864491702893 -0.5907019524443697 -0.19125870774110287
P 7.035923718997121 3.9742644512280654 5.924075386893701 -0.28544438718659226 -0.44314377091501095 0.5370867382220751
P 2.4533313001757273 8.53813281511661 10.250122889151617 -0.6180006402593228 0.8552041901616562 0.6886884936931881
