# total energy = -340882.6607719555 ev
CRYSTAL
PRIMVEC
9.10418758804481 0.00000000000000 0.00000000000000

0.00000000000000 9.10418758804481 0.00000000000000

0.00000000000000 0.00000000000000 13.32489880048828

PRIMCOORD
 96 1
Ni 5.475349390012753 3.9815707256810455 8.673362758049128 0.6031736025488192 1.635997569511905 2.839896055958735
Ni 4.617944326074291 0.8232907630466973 6.735309759489033 -0.6473520968382465 -0.8998200290988182 0.07363099522258933
Ni 3.726871976849139 3.1991477497958987 3.000474349854534 1.7025598308131713 -0.534505350648144 0.4419947449122323
Ni 4.999719323697866 5.336137259315416 3.332623331964532 -0.5966897945966885 -0.1610850123712 0.21161901656500978
Ni 4.894292832724408 5.014131252472562 11.941827060031954 0.3040198361959345 0.23954299666878745 0.4239633413318182
Ni 6.392832987106126 5.8731568617817755 5.26110965032472 -1.7522006337687501 -1.2449469197477077 0.8342345298885245
Ni 3.9629799748548105 2.9413899939720163 7.652942665257014 -1.6554803608268651 -0.11984734587765167 -1.1128284698121866
Ni 5.5808122977361165 7.774402540794666 13.028685871349792 -0.8219947932892231 1.360452957937528 0.1732591858398887
Ni 2.3661874292308154 5.608707528162945 11.932087400270001 -1.4068318023123838 -1.2981810964814997 0.06987101395952483
Ni 7.916291302609983 7.693202292695162 9.494576855932522 1.211676844840668 0.047463849908918256 0.413009670533792
Ni 7.7776800482860695 0.07122752113816494 7.628957683351179 -0.6407538747954384 0.30591653899801513 -0.6362868401630204
Ni 8.437032617869038 2.6355439198992734 1.8662455406796998 -0.17035152527479047 -0.4041877013667877 0.7215219952834412
Ni 1.5227481888807186 1.415764881848844 2.9584603454897396 -0.49747323759551093 0.39697395722716794 1.2130495568184787
Ni 1.5473477034411924 7.071568371825753 0.5129044306796137 -0.09750703050923852 -0.5182629206473526 0.8579496141172772
Ni 7.429044293075568 3.9322715504978607 4.370127432555583 0.7772773957771903 -1.383320863674637 -0.6823026447715024
Ni 7.194529527878216 3.8872058224910715 12.98945774835269 1.0300057807880003 1.0641749704705414 0.6289157445099297
Ni 4.674790872675177 0.699014962322682 11.18424030758166 1.319921830592701 -2.7288238851705517 0.4512723135594163
Ni 0.4175007396986147 0.12494860017850057 0.9946861964721145 -0.3197760705889267 0.2202257843974143 -0.097997854102728
Ni 3.5876143252144224 4.455434579625566 10.119274335887644 -0.38387264395851955 0.42321335053967113 -1.2558597100054694
Ni 9.207520003972993 4.8831948281910185 1.8233657280859268 0.47310380761221105 0.14352386355898505 -0.2602241791672228
Ni 6.493680071779097 2.126774611171313 7.6081710025057045 -1.239641191264078 0.08391566497804903 0.8555011525767847
Ni 3.1746028603602814 4.595293107633706 0.7433559970063722 0.2855546875122114 -0.16883585996121245 -0.01980777875454653
Ni 0.7224109032988127 -0.352430380550549 4.547881230514321 1.1188916452871311 1.3905155816508632 0.7181155407050536
Ni 7.029734630372986 0.32908815428052746 0.7849657754472267 -0.8217119719414815 1.464629430047142 0.03926254504504851
P -0.059150816451093026 5.6183852794500595 13.018878840600518 -0.06898938268551988 -1.7529151433372716 1.3200365017936944
P 3.7535199335917397 6.551018244503695 13.273171542670989 -0.46786184248698137 0.18708812130318103 0.009833184040337903
P 2.1771571846641553 8.621574498009972 2.1167536320163487 0.11721685023334005 -0.49010651281779466 0.09502668728954602
P 6.391922568358514 7.907105177446578 5.990114716612485 0.28493479454002546 -0.3655622756851059 3.6018759021469062
P 4.870631049473975 1.2017891635976181 0.03287340013877064 -0.10888519043919312 -2.4272193432843294 -0.13140908257332207
P 3.959065174240079 6.561970582037465 8.600968990495272 0.18302037899171059 -0.5718449676388668 0.7411757649586267
P 4.709423201834334 1.5346109451621017 4.3634112734544495 1.4505575253351084 -0.8364531348063983 -0.58204042011463
P 0.046876550895789335 5.287693877754988 4.185950630332441 0.35702467052773995 0.9976227364716045 -0.3452662444402312
Ni 2.9087059609327492 1.95403175799943 5.251329021719125 -1.3067382420228912 0.5962712190020312 0.9835983971680544
Ni 1.589527404018052 6.684431007778742 5.535122932887213 1.1209660113176565 0.3595610637963485 -2.1450500273045834
Ni 6.912645675242619 0.8661095775843805 9.814707400155296 -0.13754373471615022 -0.14816419054447386 -0.3822667329239804
Ni 8.774197096859632 2.575174052745128 10.684716301235698 -0.2690757160205818 -0.2932507706048885 0.4902404672924976
Ni 3.045332502386868 4.776266146284 4.7007314340508835 -0.27196357909133806 -0.460747085819071 0.5594072560961462
Ni 1.576681395489248 6.951338472016125 9.762514003773454 0.8700445976085983 0.2987799279532338 1.5909520992364923
Ni 1.2669114166142976 1.2459626812317477 12.309274797824362 0.894117579397402 0.3164904578591194 -1.1935425971338023
Ni 4.168944008127052 7.242299199565413 2.1374865981557143 -0.7190295678788906 0.9047012684505193 -0.2534614065220925
Ni 5.557878849483773 8.0315685244326 8.699719380792493 -0.7324669243307191 1.119555247013059 -0.41642255287008284
Ni 6.6632819802717185 0.7950523047520189 5.50916598397405 0.5445316245358944 1.353008842954657 -1.2635125985650366
Ni 8.131168335421345 7.199463997490273 4.906960399178679 1.0123333032089017 0.879711174164085 0.697855762014753
Ni 4.389993680047222 5.307732194389926 6.779495112566883 -0.3399895694223241 -0.41489583181291123 0.2775680697623091
Ni 0.20412589782081267 7.569048488083326 7.12727507415463 0.2352520826029174 -0.10277444955576492 1.0469012709917584
Ni 6.458774616995656 1.9201914931506956 11.891046633546404 0.8895258462616615 0.8620726351467155 1.0153183539791546
Ni 0.22278401963437103 7.123070760378158 2.901642932288776 1.742579308628902 -0.2697814838383547 -1.3131863116410802
Ni 7.197124221308911 6.403703386952612 7.556056812554903 -0.13407017434525298 -0.6792515166500044 -0.4293181778858284
Ni 2.2520209182802824 5.814981103809375 2.620061338677385 0.09085198708656612 -0.3623915912666081 0.9387190201568607
Ni 2.0138007487801515 1.7467112007932473 7.720472975861128 -1.3723306832117204 -0.7802814727108368 -0.4398134209901974
Ni 0.93747639279093 3.3055665972042543 4.729259405507303 -0.6457189321101976 -0.02148156691254365 -1.7219078963224796
Ni 0.15654377239562411 7.2185918953776 11.78039615979915 0.6962444516635751 2.254295943517305 -0.8210859083217084
Ni 2.0850045990308788 6.005577268621926 7.745417539126947 -0.04737180441574422 -1.5325044966225607 -0.6492056051072174
Ni 6.504259137626347 1.722821812855911 3.1020361132443797 -0.6777836738552263 1.0723703617971403 0.006792597441801204
Ni 3.8339736383182035 7.639724295460438 6.383039612638064 0.5387949791624334 0.41305337928753383 0.5749701435314097
Ni 7.7794826774063415 7.073416521883405 0.7761083114517104 1.1857500976725772 0.21054789498801801 0.4097435981880105
P 9.071667318454345 5.9439419194086005 8.852796278597209 -0.4248650272104812 -0.7941034661955937 -1.8300613508019707
P 8.787671294324289 1.8723034670263095 8.452090033535793 0.238310409813267 0.4300578842653303 0.47389879270968066
P 1.9671508921525178 3.3845636319345394 11.186105755595516 -0.5059190543700189 -0.4335139611347308 -0.5063422579503666
P 3.5913106253297262 6.830880967519594 4.442561258534333 0.10155806065016057 -1.8125868481662912 -1.206584517919425
P 6.340574950993203 3.861049491872181 10.862257061207496 0.6228273722240047 0.2865674450474419 -1.2411337166492047
P 6.354650024831282 7.992675435534621 10.9350514130103 -0.8397516030520118 1.3806715989772478 -0.01793267321902073
P 1.739355017312543 8.994645892406378 6.5101195031047245 0.9265083370232818 0.08957620569793605 -0.653025750184256
P 6.334975875695389 4.046856854072295 2.1140751800608744 1.6940574497691148 -0.9515693937569677 1.0887904550263765
Ni 2.7979899370356653 1.9801334634934633 0.9549719098637881 -0.10199026309157275 -0.833201717748636 -1.376754523311029
Ni 1.2639161389346545 3.6273358951727293 9.097281039499657 0.10490126609078063 0.44821244368717006 -0.5809744407439608
Ni 0.6074213738004388 0.07320404023923038 9.5017718952949 0.05602176678125836 1.3427748239314745 0.23850941319795052
Ni 2.892691695162256 1.3498869812716465 10.17589236738288 -2.5217881171008507 1.1473187902795725 -0.9558554227268313
Ni 5.068938461078799 3.09925660480792 0.706556871227899 0.8835495740735686 1.0893599543766013 1.6430174524731638
Ni 3.870099054223444 7.143391306824856 11.015520594855474 0.905176665425041 0.956857124518468 -0.8890000556651786
Ni 7.0360984574187935 6.279449436278539 12.027106894539509 1.0118643339922833 -1.369672419653267 0.6160530296146487
Ni 7.8372669553172685 4.009520581232731 8.727408856582361 0.9364795893033806 0.1915219887048185 0.010035786969447232
Ni 3.1681297830647615 8.728029762168232 13.117949698296897 0.8596920507296807 0.8776995430506949 1.030177530479174
Ni 9.252585731979783 5.158951562655188 10.84989175377743 -0.45685315008130356 -2.334597408781534 -0.18819035322842428
Ni 8.212878418019512 2.539075949402316 6.257865228610156 0.9921228896992978 0.3645117229334045 0.22137275351766392
Ni 3.8845473997480444 2.8304190528256012 12.141501010176944 -1.0851711131062343 -0.11009335181468136 -1.3506074326020159
Ni 1.1145619433889216 3.46307814472859 13.258393625559751 -0.8121089016340788 1.3437922094523953 -0.2516112406872312
Ni 2.7551729433354772 8.546610618331608 8.390955414633652 0.8658675834127733 0.30811560353186285 0.42167737351111895
Ni 5.50379087168815 8.149822815559912 4.141671504123589 -0.06439276445377297 -0.05503034940226652 -1.156671692249382
Ni 3.2683031578644988 8.896939752412669 4.25069596998761 -1.8105237949896755 0.2527044737514099 0.20308809627586316
Ni 5.175421037799488 3.5361756659743495 5.155936255763097 -0.17744597022772665 -0.520603138744755 0.5378986926004091
Ni 6.336022857255142 6.03254387192619 9.883024312557346 -1.341328064182619 -1.7064599371985256 -0.7209594379117519
Ni 8.069250756396258 9.048824912076762 2.978820950361332 -0.7090344043393918 0.0055648956822871905 -0.13700585993480918
Ni 4.192769666752055 0.6591659337397089 2.2649798187337904 0.9381148109139585 0.0996184204252865 -0.7099204064887709
Ni 5.530903141992032 5.622937373188119 0.8320945123361045 1.1418883632926207 0.12762261894769633 0.8219084042230038
Ni 8.179730071418962 0.10346909066609292 11.970409656613228 -0.5599875540796484 0.2633724949882174 -0.4665683204865384
Ni 0.2200272716666022 4.986663918857111 6.397376887075456 -1.0628570229900665 -0.4545854370930494 0.8856828183664875
Ni 7.272752706673031 5.88836995905437 3.032160563946418 -0.49392331546072354 0.46938599244099155 -1.3365792366437241
P 8.608801322980977 1.5669490190772766 4.317706431486837 -0.4882499192250301 0.4556341900725379 -0.25110190515098046
P 1.8870431465501463 3.437367919296029 2.176595456296879 -2.5197502607352154 1.4634626634325507 -0.22864023371335462
P 4.743618529994637 1.22946589352502 8.931372699866099 0.3039905256198958 -0.02448744361840299 -0.26289144158674077
P 8.507599174996438 2.0404122887728477 13.156844608032372 -0.8235472253780075 -1.3949661612230493 -0.7246541131545197
P 6.294607908426278 7.827252349093538 2.119298252415924 0.11984348922290973 -0.08029092374126819 -0.12309902004572994
P 2.1402852253858735 3.795198903857412 6.422468027759641 0.6937983041159277 -0.06510933090482335 2.203110421782425
P 6.463699982420237 4.345929412662805 6.8559265872663975 0.9526202036189853 -0.44635533587377324 -0.9845646177360657
P 1.9438714847760814 8.454357886636094 11.40589996006273 -0.23818056910362204 0.3625898233203433 -1.4187774047100339
