# total energy = -381173.62744490814 ev
CRYSTAL
PRIMVEC
9.16671529067661 0.00000000000000 0.00000000000000
0.00000000000000 9.16671529067661 0.00000000000000
0.00000000000000 0.00000000000000 13.41641441368423
PRIMCOORD
 96 1
Ni 0.5738427791471753 5.1208845316426 9.834848498604611 -0.5328063656791663 1.9860661204367858 0.32858955511549864
Ni 3.7524589747934174 -0.33851028689619644 9.401941213414437 0.19971249493541088 0.997313946981934 -0.0034203385354586256
Ni 0.7449679324665055 3.811712620909313 13.344005439078183 -1.3862241533643611 -1.3120833083848888 -0.977705171612071
Ni 6.234411242955782 8.68907420039924 8.984355175767288 -1.6281549335390346 -1.3925907190123372 0.5161708140050143
Ni 3.7779241092163685 2.816244032790224 10.148028401789166 1.3099760322338987 1.5501013837687174 -1.4376007080641242
Ni 9.095104677047983 9.379016175733243 6.3154147538828145 0.14662795640560555 -0.12965070512131865 0.902673182276897
Ni 3.210256946001786 5.615960478336178 7.218326103419476 -0.09736150607030974 -1.2124404624795702 1.9522517429905026
Ni 5.550473465982843 3.275624791059405 12.254190269597919 -1.9675937726642114 -2.9223559623268636 0.42868748628036496
Ni 7.2298431642146515 1.7060356723269725 6.524737608836571 -0.5894922484069848 -0.27398883705148297 -1.1936994344266412
Ni 7.966251218162743 0.8202275797400379 8.795827930587436 0.8058642062759476 1.0059543962657513 -0.8077753072557314
Ni 1.8147162460197412 9.226757038668728 10.979818875899653 0.6839599778692672 -2.7614807519736244 -0.22995715275256526
Ni 4.624048575658451 3.709989583943333 8.132452928826002 1.372627902737165 0.24040894421350853 -0.90557055842935
Ni 2.4167127571155165 6.892966385941266 8.96156122211138 0.031564147959526286 0.559780580275165 -1.9611485312594998
Ni 6.861148717985159 7.473531117238315 12.84899365938999 0.15690079908652332 1.5288651000977604 -0.17556777936840734
Ni 6.5731305309552335 4.391140679539535 2.9095776921378143 -0.3952999119588547 -0.8838154261404457 -0.0531704133753923
Ni 4.766820162640981 4.197429656996047 0.8237045147604215 -0.37096030677222563 1.6804486007364285 0.90766986416054
Ni 6.196561876493447 8.596582045493703 6.489666673707425 -1.8836405695800076 0.8771835226462248 -1.3806466592765836
Ni 2.3971143203278027 8.106978627687996 3.9947636705152734 -0.6878608555855702 1.537245610851972 -0.34275967596829354
Ni 7.750118410594583 7.579810011586659 7.487163855868198 1.70896342034667 -1.0215342529818794 2.3165171542410556
Ni 9.190731848502349 6.7367013943976914 12.038789882562657 -0.2994443010101101 -1.167756232198318 -1.219550848272106
Ni 0.7918290964994679 -0.22478526990862913 2.0299974657592865 -0.2118326752377126 -0.6665664649831682 0.941235101710495
Ni 6.668455200812783 1.403497408649835 2.125549470150201 -0.20710364519315944 0.3472243966078665 0.28325020774875087
Ni 1.875904069012254 5.8389133219053 -0.19423902533065904 0.7186693563259946 -0.2580166299929427 -0.04520410734046408
Ni 5.9275921233479325 1.907300068075828 10.362972286414683 0.5687046222376722 0.4388793392117022 -1.3511003130780344
P 6.860314546915149 3.3396542957189856 7.8316435076082485 -0.16048286001082682 0.14145978194110473 0.8617695020839996
Ni 1.189243777667962 4.911177591328036 1.828268317557139 0.06391479637608993 0.3164441780022163 2.0021594264542224
P 1.222051450850015 2.508389074381153 5.464236677430879 -0.5844978805161869 -0.033064643764452735 0.6948655690381774
Ni 7.565885771418026 2.452563779695849 4.071371741573405 0.9743840776586381 1.3944321430964501 0.33100304965299765
P 1.8548847913910058 1.9247534935406585 10.000581790128555 -1.6390798079816546 0.7487299231568009 -0.013495977603905788
P 6.035420192540582 9.159152515137674 11.056506697378765 -0.7020877978182296 -2.337185995444317 1.0484781285605749
P 8.664727405213005 3.39709293225398 2.0496389861077593 0.5292405027047788 0.16279402464250672 0.8266101805740474
Ni 7.648202872612448 0.031032997147393684 4.58959456045251 -1.478013564663532 0.1546035184119144 -0.5513787293647149
Ni 3.195260200171711 3.00418919156408 6.249218237784217 -1.4194566901652457 1.8353048585890972 -0.05599039932269067
Ni 2.893950276311951 1.2548132904567928 3.9204234447617634 0.06897292762528767 0.4267951543536585 -0.3281097872656027
Ni 5.575993600696124 6.3336776002870065 8.239114075192141 -0.44034049713826096 -0.25420265556349125 -0.3765365153084225
Ni 3.503353493172214 5.1131844909963515 2.937967008663329 1.9511304849018654 0.662357311997827 -1.6081388954284237
Ni 8.667404086009082 1.5213721975428272 0.7437240092335341 1.1327162098750494 0.39970498300508583 0.15432352527765036
Ni 7.036920479165898 3.2632955593103516 0.7263879177214082 -0.6042130995569271 1.2278832793972012 -0.17407628242454537
Ni 2.0383290930728286 3.822520177959226 8.346150140204033 -0.30217866922213765 0.3466520690441643 0.5666477397086435
Ni 1.0690956434413157 0.332534505351804 8.470050210902714 0.3831493926392498 -0.09925718043112583 0.4110211793488534
Ni 2.3265581145490204 3.709934583653003 3.9648453459185746 -1.4800817600464704 -0.9290979521273289 1.7945623865644125
Ni 4.6092443308445326 2.5130365989140673 2.8868497388303034 -0.008316747395811484 1.439887704326088 2.5103035135000185
Ni 4.53141892002709 8.36498498962766 4.4329849004228645 1.0482320739880397 0.5464841202765749 1.2871194393506993
Ni 2.5686877260133247 6.72868968543957 11.065576245254238 -1.787882660551392 -0.5974346431825129 2.064339499527393
Ni 8.38683843831892 5.688322526980807 0.7438275931136563 -0.1700792454500103 -0.7080823248387675 -1.524217831133736
Ni 3.7210629757298435 6.027078481840478 5.2758304328897525 1.2370117240610308 0.5684287428684662 -2.8395990935436064
Ni 7.574548317145056 4.18056290129474 5.804101804812213 -0.7839913174622563 0.7823884917515106 0.8828741452730989
Ni 8.739032797449306 4.763281810629729 3.867455415159121 0.18649213959039496 -1.3540298280200036 -0.5792410029926217
Ni 8.146496336290351 0.5061575885236375 11.161516918363487 0.5173198400077929 -0.8611830334529104 -0.22400016383818197
Ni 0.8612935465151926 5.172071468510045 6.110089503364567 0.7286226108839644 -1.7454990533788586 0.686102992354199
Ni 9.499558478707257 7.783732754701482 9.980054765105765 -0.8574641898404265 -0.5372057802984426 -1.0182478689211236
Ni 4.334362046488505 1.1876579359634372 5.854587487977945 2.3586778467695053 -0.9248067809511428 -0.09529433912863589
Ni 8.055351688497908 5.243443511928727 8.266214551580914 -1.1141052796420812 -1.0087918657145465 -0.803365865334126
Ni 2.1858857053140985 0.6295443231792358 6.296457070477449 -0.006326713548976201 0.1553663647198679 -0.5985985815836271
Ni 2.0296573806307436 4.028175430219455 11.132350264401303 -0.21722273590503235 -0.7392816332597075 1.1643577480397302
Ni 8.637337260628492 3.0385002060151627 10.063410455115925 1.004501980089941 -0.5029034074721468 -1.2203496900243176
P 0.5446486250398264 6.6070015430836735 7.94110875210973 0.04622277841296555 0.006776142381568974 -0.3093559036968673
Ni 4.675675514848539 8.931130478143103 12.8905848789378 -2.120127810141607 -1.2712485337567139 -0.49919999047863056
P 3.7745140912158868 5.081055154728372 9.494889870729715 -0.3227063568618442 1.1469806902138633 0.1453439474868594
Ni 3.538911180870784 1.5600649017902275 11.858661181716249 -0.24381617012284465 -0.0031354603051881483 1.894966279005472
P 0.26595115387788404 8.18407986801609 4.398611552309408 2.5536055187217634 0.9427669649739893 -1.4140393758044163
P 4.527761400720121 7.013719523361546 2.719427021721711 -0.8618792881889866 -0.00587291384100924 -0.4556897259008217
P 2.4151360821260464 7.924001828473981 12.89664866094672 0.27718497539127745 -0.4963882320614483 0.18050738276186978
Ni 7.5547207124809646 2.6522790006003993 11.927755296443749 2.2287923999295614 0.3355006804130351 1.3558409130868134
Ni 4.649477043221182 1.8851441177877526 0.891329205064596 -0.5605467690172281 -0.21999155689942113 -3.8477985770897924
Ni 5.315411391825989 1.4286417080458593 7.9699939879197235 0.44382794146622917 0.0018049144192226981 0.3515888442241493
Ni 2.2806512055532893 0.6186505990078048 0.39457666618744824 0.4630541366856928 0.8941322346854215 0.17278276042410243
Ni 6.229864552288474 8.405593537321568 2.8235645714331934 0.6977511181160887 1.4007570568732135 -1.1484472474570608
Ni 6.3774394979598545 4.486254514950818 10.207610216304033 -0.16443541690067165 -0.6227391833855727 -0.8777741050423722
Ni 3.0027316838703255 1.6541428984002886 8.229963860224183 0.564339403290441 -0.4534446386203868 -0.8583489064382249
Ni 8.457257143371875 6.730935530628059 5.432936928875382 -1.3705838757239428 -0.9321105137014075 0.08981968916730983
Ni 2.4894231409322374 7.097631632975549 1.8530083648192355 -0.11169900573890441 0.12020241522422526 -0.9135918860719299
Ni 5.033965739490539 3.7727540819253162 4.947543783294463 0.47455622378802137 0.3530543730260823 0.07604860352514643
Ni 4.662686279615522 7.26987420886009 10.884078953850109 3.134458089175879 -0.05219313706378754 -0.11498641824092454
Ni 3.9075414600948903 8.017575655756014 7.143502791782565 0.3164032974619519 0.545428425318551 -0.10348844490365401
Ni 8.682611666285423 6.812720962349288 2.7115381467453283 -1.01472160093542 1.389233115394014 0.12394285610326397
Ni 7.2133522438306015 6.695185341913333 10.096710380896434 0.407413407392937 0.767347024037356 0.8391324814107743
Ni 4.093020772518936 9.130818198902489 1.8957930906672136 -0.8220891527752422 -1.0344087949517022 1.1215961887024877
Ni 1.791671124371325 7.438230097561287 6.22854362864904 -0.9414819276139786 -0.3428298670845967 0.38138972963566575
Ni 6.38156451973463 5.33623816843108 12.514736728279338 0.8071932095000163 0.2767540585014459 0.6351236730928546
Ni 6.230588722777823 6.243092122112922 1.6059580607133757 -0.23668727238754722 0.31996196134748767 -1.3489747820945994
Ni 4.288060968745406 6.635381692894134 -0.03734519713430669 0.16120174045472238 -0.1407072200457964 0.4074098078485113
Ni 6.349361849746211 6.5752663755630625 3.9567960534287283 0.587293440983453 -2.0700681744810545 1.7242177754025787
Ni 0.5106226954269562 1.3784722765495265 3.750599048308746 -0.14497216596973742 0.17877523056211148 0.17452314015397685
Ni 0.9069896210646573 1.6929089363681293 12.084459373638463 -0.8685590142020073 2.1404922327305718 0.4509473261198298
Ni 0.17921386268391332 8.611927126495871 13.19321847645151 -0.2801849385598658 0.5918815745747678 -0.0710398374566454
Ni 1.4370659191814577 6.134099880108281 3.8127704598266665 0.5399038959558959 -0.9215504787973741 1.4743116903319124
Ni 6.52281443201802 0.828841541877276 13.103154584364058 1.395165935938681 1.5282516348834776 -0.1346746406984713
P 2.9933816345141664 3.5310736394987092 -0.22651961239704613 0.0024947413973957036 -0.4285609880048296 -0.6051219845244417
Ni 2.3236339324464566 2.780264676199121 1.7325558956527611 0.21291253856545267 -0.5259667170495135 -0.21093021802810125
P 8.35864162280956 4.765610156253713 11.738852215946642 0.24421212000968262 -0.5285614743598833 -0.5498738626844143
Ni 9.060692828731295 2.7890647226519762 7.64113075194747 0.8146596930803905 -0.031931558601274036 -0.8199726206528717
P 6.059290318543952 6.158831677326829 6.0038857760796756 -0.4029548574009512 -0.1645598582936779 1.2990627277555047
P 7.470716935716413 8.752113699832874 1.1494629843435265 1.7087132520090766 -0.9168502451082274 -0.07520322480571565
P 5.869750151350517 1.285283451299806 4.295720675845414 -1.80856564282204 -0.5880352042454841 -0.02151961923933068
Ni 4.278041749190229 4.8825499402110895 11.583772480659684 -1.6796906395244815 1.386172217080503 -0.2865885280933645
