# total energy = -381168.1985838915 ev
CRYSTAL
PRIMVEC
9.24351514513157 0.00000000000000 0.00000000000000
0.00000000000000 9.24351514513157 0.00000000000000
0.00000000000000 0.00000000000000 13.52881876372884
PRIMCOORD
 96 1
Ni 0.6490814770928166 5.62061177497441 8.493108031869285 2.727474570231509 1.3072540053170454 1.1381031852185755
Ni 2.067478529232274 7.522363322472125 9.987704924860267 1.2557054438157922 0.2826840508326357 -1.5001309653878614
Ni 7.1634653627528015 7.645625595963694 4.974749814181339 -0.6516350404843165 -0.21795112943062467 0.4946493949934707
Ni 0.11731129848790453 2.03560688926235 3.083894522251069 -1.0079362025824705 1.351065860295673 -2.0318548966361267
Ni 3.4546898102201857 1.4113830729024563 5.019678843542654 0.34584628531341727 1.0313301560263788 0.5707406788310945
Ni 4.5098832733195575 8.804531298176332 5.500654982472761 0.8863932141699509 -1.493233209826764 -0.23122110706665341
Ni 6.22584016786035 4.920175176841889 10.38727804830455 -0.5998820762817411 0.356364925456554 -1.282649576504804
Ni 4.675175809845709 4.096291434916348 8.052312528607757 0.10995194114081064 -0.27141927655209386 0.013539943467963778
Ni 2.9492913801170695 0.20329909744968375 8.242784400191356 -0.6507510952174663 1.4110011031987246 0.5959853123304961
Ni 8.533049260497487 1.8325083760897394 0.6710311279839363 0.16195224546750175 0.04396714960956944 0.14993388085038692
Ni 8.539741565409965 4.934105154056122 10.431544317635165 0.9827926134373076 -1.423194559941123 -0.781305543099977
Ni 4.6645827415726435 1.680942459446225 10.529222390109116 0.14318010706632117 0.6942796146277205 0.04660458723241651
Ni 8.26535706399836 1.6303896755148117 6.92219575408837 0.07694874674191264 0.6670896844764899 0.7396063635889778
Ni 0.41485080515608086 7.13625245437941 4.344279230335461 0.3609463741796493 -0.21820412598169514 -0.3804258230604997
Ni 6.925842320784464 2.653665281068897 10.700159016938525 -0.8289169743303532 0.29730077230454605 -0.5839692617062265
Ni 7.49767389371352 3.6358996797011547 2.776897975312235 0.2072782230978108 0.11573486637117487 -0.17434881935964167
Ni 0.8668069285161256 8.808894237290543 8.138179237522086 -0.7244849345665071 0.44550301517580687 0.322625881332896
Ni 2.496987700590299 3.0277503360523106 3.695383547895602 -2.0337006915956137 0.22272463955986802 -1.862716932053463
Ni 4.861386420980892 3.044360932637564 2.840443444029531 -0.15802334272674076 0.12376802108829653 1.4589953716898163
Ni 9.148001831239679 7.267380959197663 6.772228965552395 0.19759956235746615 0.9981369571038615 -0.7026051037742802
Ni 4.151096235781104 6.350544429703227 9.499706487529595 -0.6658501556424339 -0.9321387958361818 -0.24237815212473743
Ni 3.0372804000920413 2.6200466167502743 9.019338571891257 1.1503002415053993 -2.348614548996233 -1.588064236165736
Ni 8.707973539729167 0.24867828599502773 4.80719538951695 -0.4017842341316177 0.011116678738451824 -0.18284991485211735
Ni 6.846699344733859 3.7457496128225505 6.714974633193431 -0.1661043199626623 -0.7337280504313298 0.4286820869637262
P 6.565548590289197 7.500631818536715 7.156568776157222 -0.43388445710027207 0.49959362637262344 -2.7324596821509264
Ni 9.249430922130042 5.207093884691782 1.5302038374016977 0.39467256278750096 -0.9254181892828964 2.538182242188158
P 3.676487954384431 5.6274334890979025 2.0285513142075233 0.33129692674433264 0.5523835164801455 -1.3915296247376745
Ni 9.132907171126314 3.916116839123497 7.414901913645459 0.9035535279993213 -2.4054130460425154 -0.750881679392481
P 3.4151460527401007 6.964812980330055 5.6617971807313685 0.8579642694052967 -0.7787310975045815 -3.8258058748687858
P 5.768267684742264 4.465412722305838 4.657972703944311 0.7159396160996573 -1.1066920178971458 -0.8881459351949994
P 2.647749431422507 4.7850996910876855 8.844004804941866 0.170844405750809 0.7164394385542113 -0.7165767354630239
Ni 4.590764030203789 8.550001867140423 10.295241293079336 -1.0039103692525293 0.4245462104184818 -0.27704973536499383
Ni 1.599701205474166 8.687406718692891 5.7565931252057165 1.2967659613015279 -1.3432826168058285 -0.4793029944443874
Ni 1.2536702187357405 1.4252206149659645 6.638564040198252 -0.18565550262171251 -0.11516690968284683 -1.3133369782863318
Ni 7.71282595054065 6.294094283155569 0.5057210287791459 -3.1735416854409024 0.2462965133425371 -0.7610280237978635
Ni 3.608751475933271 4.011278826794716 5.280473529094693 2.4222229185110025 1.4787578990287242 0.34206676366632705
Ni 8.265449499149085 5.545739302887293 5.397769113606975 -2.057251225222044 -1.333141928827401 -0.7104369411138732
Ni 3.023553780209403 8.49610293075277 0.9240030267301327 0.6673074569142508 -0.5254566101823144 -0.6228551401381467
Ni 9.050427286134541 3.0827584942486608 5.193280375767462 0.5974814372600485 0.5989554507024136 -0.5305952169604604
Ni 7.771023121437008 5.81555750785309 7.7248332766198065 -1.9823411061767149 -0.8249183946939211 1.4721470785804258
Ni 5.172615573471417 0.572124592356854 1.1709324396734466 -0.800108534739093 -1.0179555344916857 1.1928453139564619
Ni 6.655903950122724 0.3667669641005281 10.163227259517138 1.2046731598293254 -1.6653917064033061 2.5311240497897955
Ni 3.1703962606508784 1.8955214183388602 1.3957411966967996 -0.2605769345209512 0.10820050566734268 -0.05465214012724136
Ni 3.0918541130799846 2.751831411138674 12.11611208369282 -0.3976987512083344 -0.8225925747742221 2.5352861515872855
Ni 3.783296771046979 7.267196088896212 12.001807700657993 0.38121000952469186 0.07313297254024824 0.9311918585418802
Ni 7.640116460980494 8.905073011619736 8.240200837728596 1.4933771916037957 1.081767486741324 -0.6053898934738478
Ni 4.981690769649267 8.874800499757352 7.976199576797913 1.9732064908652982 -0.42740399158225095 -0.6443467343530193
Ni 2.4830115058007043 5.574477391247644 11.348595296679283 -2.1241245900058257 1.0112151304440584 0.7187585736056911
Ni 9.066104287697474 7.485167417820451 9.669128102238627 -1.5229592761362867 0.022698470038780266 0.9046318486651646
Ni 1.2080257413078161 9.378008216788292 2.0207858371951297 -0.749490198361593 0.0014817267518490611 0.6774283473983366
Ni 1.9850818358761544 1.2876678671723354 10.63948273529973 -0.25547432318706326 -2.3314730042199394 0.30805569682820494
Ni 6.589748112748959 0.9194949644292824 12.824196766196312 -1.7287619431298356 1.4487906632426728 -1.5377145800685905
Ni 8.552026196941297 0.10047793318940457 12.144143967501632 0.9200800648994347 -2.0851448663085184 0.35271678718100546
Ni 7.374365402646589 3.737116169744851 12.910375905920093 1.9297255368635284 0.30601089848403423 0.598316274456518
Ni 8.28612724236623 6.653056947480399 11.77103317900686 -1.3382319417557984 2.771848982581826 0.233313727929624
Ni 6.722438771614462 2.513487374994683 4.8017971767146195 -0.37478405139369 -1.138200372918072 -1.4454950232105366
P 0.5386039092979993 4.768655477773737 3.7305985672672426 -0.8629411537945978 -0.5199266815030207 -0.19876787163395446
Ni 4.0913461543525695 4.122579991782492 0.38570692648404714 0.008021327642579734 0.24488240660382987 0.10154983312004445
P 6.165470770921959 7.545980503482321 11.475251788905469 0.097549967932032 -0.2427594467235561 0.4052220561685731
Ni 0.6229269511952241 1.9207654580018132 8.715183481485704 0.09715196116266495 1.0704826578561242 0.898086077126847
P 5.458720851994932 3.429381065951725 12.353232278441212 -2.2430687073429176 -1.8161655666564849 -1.6152924757540696
P 8.955866126943034 0.7352781794952339 10.161861067989426 -0.31525632834170225 -1.5702989417625148 -0.41435435748714444
P 4.747358419046735 1.9906371884347172 6.966394545758958 -1.1971164305279898 -0.04121581211667741 -0.6027416572177232
Ni 2.381868963877588 3.213720615795609 6.88393684520336 0.17601129466372914 1.2701820401654123 0.9799798265788606
Ni 6.629356574834551 0.4731404112031628 6.066403398132616 -1.6505798382014543 -0.384777415160976 0.0912106559775655
Ni 6.308994829452413 7.178763380197762 9.20109843051904 0.42434155060684337 -0.8651556449474131 1.836429973332476
Ni 5.558245778780363 5.632092220694435 6.427568792099218 -0.9519617440993801 1.8446510756906875 -0.42372422873781856
Ni 5.580273075198091 7.604399518740417 0.1264706975732286 -0.7905057215420064 0.23232796697758695 -0.20848767002487967
Ni 8.909084697161195 2.3050553536252485 11.664128229787556 2.0398924222286223 1.4395570604595467 0.8548614621102568
Ni 2.8821279996004034 8.282383618761875 3.597840430741711 -0.06809669566792143 0.0005995812572118706 0.20367996422359114
Ni 2.534923086447772 7.064337907115488 7.377048795072131 -1.293365163150095 -0.31498661962008334 3.164737713996027
Ni 7.199561289110851 0.9327815929944704 2.7308597241422228 0.9508574552916076 0.2731614560541812 0.18669911339487846
Ni 4.886787600400078 6.2350282218423985 3.7788016496672308 -0.49894236594186975 -0.4573804833396833 1.3608095699459983
Ni 0.07908566625715564 4.997866921026114 12.815052156735105 2.147619330693656 -1.1372835175307574 -0.8286524078150568
Ni 0.27913197075283236 7.459063731255756 0.5246498989445779 0.6241957133264411 1.879242183401996 0.4534559514742965
Ni 1.7752170696704856 0.9360075797547672 13.246567170863859 -1.4008537303520776 0.32674170327348245 -0.12944321709620288
Ni 7.474407966276079 6.1017921955876195 3.1080163991842227 1.5824191220648167 -0.7271820217826961 0.4290068172929966
Ni 1.6608100836183555 3.555887813233736 10.420775622575723 -3.348482886968904 1.5777993639046182 0.797800969651839
Ni 6.1419552685775605 1.6848432228068129 8.501211821533332 0.5267910127230218 2.099731505873442 -1.0619157421227197
Ni 2.167382440135677 6.322712205819978 0.11232719516082135 1.3749526942155998 -0.758223721579849 0.5227808631223642
Ni 6.053846082906646 7.749716819194933 2.6491858736647718 -0.04670383181444215 2.587165614065396 -1.1561626138234475
Ni 6.007295741001619 2.6606533784636945 0.9145441377564602 0.5558524488653523 0.2622252687576516 -0.1397368857127271
Ni 3.856015504122208 4.09667041903432 10.602602958863534 3.905765897633196 0.7628565923661701 -0.762664530960022
Ni 1.4326708881143864 8.120954871536021 12.008423284395368 0.00912098846466171 -0.22821317347826503 0.7491886079607742
Ni 2.522934247398761 5.738272478332055 3.857215312378617 -0.49728297596157583 0.021134982206402312 0.119774069437555
Ni 7.363809308433812 8.799826349004437 0.848512163484666 2.05871058337639 -0.7786673341461816 0.7076285251308007
Ni 5.748431101396714 5.4909807195979 12.591650262705784 -0.13173021335816668 1.5575688957903562 0.20083812389942185
Ni 2.050914150222383 4.215384883110228 1.4761967518876975 0.05967658992502626 -0.5067382078372047 1.1207119863253214
P 5.335865293166551 0.889898153518697 3.631311198819174 -1.4171563241668432 -0.13268357841037148 0.5508943335291286
Ni 5.9068464627089385 5.297218156648497 1.6095501707838973 -1.1672427828970091 -0.27219703525838285 -0.10196995137659857
P 1.3483330565930456 1.1587947800317682 4.367508183712613 2.3435520468716606 -0.7290051910343638 0.5614929349805814
Ni 3.887360263733 0.47605489150551683 12.331897321302412 0.11748295941053315 -0.6491922353707787 1.1470619370737598
P 1.0272780475804708 3.0380568553581297 13.512029831527503 0.012693022086636205 -0.3640137002510634 -0.5555506013542173
P 7.586624239256031 3.762609784314761 8.77185639674661 -1.4846328697522626 -0.526589695345493 1.6795155473991976
P 8.668512973884734 8.040471585799907 2.696090242197075 -0.7825065053866136 0.7249472189149063 -1.1357524255982119
Ni 1.1313877578418543 5.162715768828788 5.960945983373664 2.44694253274487 0.6308242743865523 -0.25160944091501825
