# total energy = -340895.38815606467 ev
CRYSTAL
PRIMVEC
9.06212941821385 0.00000000000000 0.00000000000000
0.00000000000000 9.06212941821385 0.00000000000000
0.00000000000000 0.00000000000000 13.26334241764237
PRIMCOORD
 96 1
Ni 6.333703571075112 1.858207784376029 11.47720789258405 0.48042939473934687 0.830072685201351 0.12372405522423853
Ni 4.689325795087868 0.5881077387442525 6.035444420494612 -0.47155137552342663 -1.4996028607985334 -0.1823524063904085
Ni 2.805173133867582 1.7379895740316655 4.709919484444687 0.6787015576838054 -0.9300849986309465 0.34754501317207886
Ni 3.300300704995652 4.348218177450887 4.836291786952842 1.498789877978935 -0.8728021057490776 -0.006633446156117608
Ni 5.077366181560477 4.555894999888832 2.923386801159919 -0.3389811827624678 -0.2928748753227085 -0.6456965635126944
Ni 7.424684283056687 5.998160100969524 2.4508402443945867 -0.5648996466692852 0.2044512951719769 1.0220968103535688
Ni 5.108703025475056 4.598550443586323 11.447007439712525 -0.24377966045795435 -0.017718243215369488 0.22090738384547115
Ni 5.646812276963695 7.942575923564 12.372523634819633 -0.6034417686085414 0.19321068926115112 0.77614508194496
Ni 1.812353408954464 6.499857716006811 0.33377182378248305 0.25296492650164826 -0.0877743766025069 -0.04263146151728142
Ni 2.7704017428611496 1.530811168717868 0.49014249367364293 -0.8526991643516154 0.3716300791457406 0.13180194713636656
Ni 0.6162538068513351 0.13587938259802904 4.878363629508604 0.4442598867973252 0.039073826073010125 -0.3273716235479975
Ni 8.611071094729612 2.458863853880408 1.343510544528024 0.28912929223734724 -0.6732047962352922 0.9540548791829827
Ni 6.864490621903551 0.6580782532709296 4.881559842593818 -0.8151374040477574 -0.6390911423810349 -0.6623891936770269
Ni 0.7347239324093705 7.233119926923 2.4429616289812457 -0.041671154486541136 -0.4983497266631933 1.0436642521116994
Ni 7.62689664138807 3.794340820580128 3.7098228695190163 0.801982354723038 -0.4098852659721974 1.1769672092736247
Ni 7.489804745858932 3.8540421299234615 12.899621492716426 0.2983181578254669 -0.2466119877004269 -1.1903014644886856
Ni 8.096197143355774 8.979011677904785 6.901619979013676 -1.0687759595776625 0.5824014029984744 0.0745103125037491
Ni 6.94625821665232 0.6728730859415317 0.44722696685864205 0.10509101350408352 0.5405333020097788 -0.5721118481470083
Ni 1.973795246530586 6.476151185156453 9.195621041420406 -0.19763787179456932 0.4281868924948626 0.06430663249786989
Ni 0.18935682138019075 4.870441515873518 1.2624461710307775 0.3626186196757497 -0.5874150541629818 0.2314854164716336
Ni 6.415335233880934 2.018444358724667 6.992301990581062 0.40408999944665897 -0.1444728577358157 0.4948692243137607
Ni 3.384397267033621 4.327683391936012 0.922152332625587 -0.08242622491671611 0.3773245584273566 -1.220272556929479
Ni 6.1558774033088355 5.674723635915953 4.750425391017673 -0.12013608076266406 0.3157180984694692 0.356622807103631
Ni 5.607754498689597 2.9410778904282946 9.075707318628247 -0.5886209015456251 -0.39900924248964187 0.47297936621920483
P 0.08144135808569226 5.587926559278058 12.325637082844606 0.44731358602198446 -1.1794483238242657 0.5210062877204447
P 3.8063118936891964 5.966922940479774 12.694822802617194 0.7692648098853591 0.5204262468472586 -0.1088715635924383
P 2.264535548240085 8.422914099299188 1.4878947356899144 1.273538101121839 0.26794211663677076 -0.3222031919731806
P 6.179275821755175 7.621078754229839 5.865355498921009 0.5361606268633798 1.3552454455946594 -0.5464735787536137
P 4.486098478249129 1.0657608054997134 12.581951260682763 1.8931019721032234 -0.9072068084811925 0.20122404648393086
P 4.028189073100578 6.190503800242787 8.325320401539305 -0.3961332064934274 -0.6680368788811075 0.5499301698436464
P 4.8572379931483765 1.07619131658869 3.738777279580171 -1.1214653195515782 -1.7878304671572178 0.5391325650075102
P 0.06830851997088362 5.511822795485509 3.8440882868477604 0.9451935721376109 0.8767225238494062 -0.5772923639066833
Ni 1.5494972798086322 1.096680791455915 2.704660524186102 -0.8344111646757049 -0.08195391326598789 -0.51713009259449
Ni 1.990732366622069 6.250295730881421 4.989762575394416 -1.4615579902106701 1.4257651488817769 -0.14823489588140923
Ni 5.967611662324051 5.578610690121266 9.160923959876117 0.171176335168931 0.5249896978482249 0.06877212446839125
Ni 8.76767375513674 2.3414186551722103 10.2171903722673 -0.24964640365137653 1.2425393387474795 0.5405777820944689
Ni 2.283112913776489 5.209664210568269 7.17191339786474 0.7014823030237467 0.4736931044567777 -0.759063443872325
Ni 0.619977435875193 0.2775648715858993 9.08590674541421 0.11024530401151336 -1.925314809390342 0.8435354955744763
Ni 1.3791745552931558 0.9495118078894697 11.416687366731209 0.5977765999029641 1.0055268218100297 -0.8023466800409924
Ni 4.0366621642110845 6.740203515400238 1.514461274619926 -0.3479833862610781 0.6642799829418367 0.6130726068300861
Ni 5.691117028235639 7.960482691515189 8.017014067948946 -0.4395341991868818 0.3744284678264842 0.44360194149835214
Ni 5.251286571499345 2.865327549687413 4.875949478201824 0.4161428168461349 0.4857194394936925 0.21893277661760357
Ni 0.8057927770350779 7.559284092965086 6.923862975944947 0.9120757065377195 -0.49921978797297245 -0.20507658746080165
Ni 5.033242672879133 4.814392244730755 6.820329052278181 0.6453492074756046 -1.4646181171932324 0.5526735369167385
Ni 8.14726224325706 7.400986814335859 8.862154611403081 -0.24883033550798433 0.20378795055636517 1.1239310074832514
Ni 4.617019063568367 0.2763179225625777 10.457601418993342 -0.149490108444749 -0.012942933313913193 -0.6994981827141823
Ni 8.055245380009913 7.503407002283392 4.645684391697517 0.02391897270944268 -1.2791667601625258 -0.007193689534961804
Ni 7.367049139246183 6.138432803963674 6.88826421251243 -0.6560329124416959 0.0325265118727956 0.35923710479802645
Ni 2.2585726670093753 5.207652417812619 2.8076244399054344 -0.49303551353913155 0.22352168153986665 -0.4857654622402795
Ni 2.271449953071439 5.302306360752984 11.304187372107505 -0.47285389638493397 -0.7906638443864255 0.46669533298270593
Ni 1.0950042974928733 3.2785787805123534 3.924092391190002 -0.8053805817713098 0.3457812364034368 0.026455108867735087
Ni 3.8773046164268523 2.493336194612351 2.436648043337727 -0.6325985926781558 -0.010912533147445723 0.4538824974887538
Ni 1.1852631076112103 3.4906235493837356 8.25296926558511 -0.8504743887861547 -0.7184405281446402 0.4221196032548601
Ni 3.7513500780900286 2.66514510837074 7.137190036144817 0.1635360450148538 0.8557153254701197 -0.17463035515580247
Ni 4.040277953893536 6.818817489072584 6.270192542477386 -0.17294833946768925 1.8078020251831382 -1.2202805273492792
Ni 0.8012943359364089 7.365807627500579 11.387402188942211 -0.028534102883950856 0.7057840157228942 -0.5219174866808044
P 0.15007702093260722 5.709694393772043 7.967250289848158 1.1477751610907008 -0.33652706479502037 0.2317265859481622
P 8.66008815335713 1.7320901277076657 8.039482711905512 -1.4248084413954623 1.1437616690559333 -0.9420619684871646
P 1.7719000627327515 3.277491324968759 10.457111157785773 0.38283674649483745 -0.032701346887763036 -0.12941904872648677
P 4.057496000000448 6.185764306498621 3.9624106996944577 -0.3747416281915288 0.19657086398263565 -0.5987307362861172
P 6.9693757090832325 3.977404899214719 10.43795925323717 0.38606270963130285 -0.22355819120475692 0.27142364742746805
P 6.415770216098372 7.751401239000101 10.278878100403599 -0.13890976182574138 0.31431350481245873 -0.4791415291658586
P 2.618710756659258 8.65643611515656 5.770495845640314 -1.0825421601238194 -0.12209577559219618 0.14752629985015883
P 6.819116539347073 3.912438492614482 1.7838403246014183 -0.346969343174267 0.6810160647495949 -2.4457886216460842
Ni 5.191322460399642 2.9648387940558325 0.2610409846009821 0.5148505525316939 -0.4697940265126877 0.4164503207842247
Ni 1.5087267590533713 1.2090058869796887 7.008589355985247 0.1751461184499564 0.7629751202219054 -0.7017502119731527
Ni 7.061872865195467 0.792119836000284 9.370830066178431 -0.7486391632152074 -0.8185968233512676 -0.8815065755016109
Ni 2.734950692139972 1.6461902018932364 9.249868761212612 0.12379553189212228 -0.1268497453374138 0.5525691501283903
Ni 6.340581727388348 1.9286658414714173 2.5454878438442807 1.1231288232969303 -0.05564741416097513 -0.4756445717561937
Ni 4.126694421091173 6.8955918504503515 10.546200953194745 0.29253317571257365 -0.27029750424282484 -0.07563337036459877
Ni 8.300520977867635 7.006693558487581 0.4692135055242153 -0.010027045218698861 0.9245524988484914 -0.9198838897282285
Ni 7.707187109023458 3.917721714130445 8.194212230138797 0.3519498271079939 -0.20878720354316946 -0.36628886943848527
Ni 2.9863160410418224 8.483122887896197 12.467502001997168 0.5981170139615183 -0.9299227620214693 -0.08540793325285936
Ni -0.03526165221400213 5.083011888257638 10.073999663564505 -0.1316340540999346 -0.5204254755163101 0.6365694044004456
Ni 8.5137710099665 2.278337171514204 5.691473169926166 0.6988068130741126 -0.013823793256969742 0.2072936497167785
Ni 3.7340595349468773 2.696472890155789 11.491400093640909 -1.1249805317936883 0.2237404824188921 -0.555497636629095
Ni 1.012828906915255 3.291129829911339 12.583132056160517 0.15345114997502604 0.5116983800559575 0.06440767685210844
Ni 2.937298982414304 8.55288316101778 7.994227343245877 0.9969064271308703 -0.6666469405121164 0.027200728784507994
Ni 5.570083226233579 7.732370766987199 3.3938110071893366 0.34394392608438185 0.7342237591208259 0.48067699197377867
Ni 2.977697955858837 8.138644158074074 3.65898522906893 0.40500042707607026 0.37472208780750305 -0.49874541943971523
Ni 3.56581203809376 4.133527266756758 9.382024514786783 -0.37432588081034884 0.7992526144967009 -0.35545269805492974
Ni 7.062561587039744 6.050185786600987 11.536508655802159 0.930201469604153 -0.01106988466091642 -0.28293061962580307
Ni 0.6799288599935536 0.07782103733847583 0.1814283642544344 -0.8965912377488753 -0.7608837849105153 1.0995700621403837
Ni 4.713566991580493 0.10868393187863853 1.4666866339509639 -0.7385272715921861 0.42655861286282015 0.09311250098596867
Ni 5.875576674817843 5.51167780141303 0.4922594071318401 -0.06099890828087559 0.5366036279380694 -0.2876470512648659
Ni 7.985530417535981 8.896211000389599 11.514915413558187 -0.1762141547031546 -0.6329207519042648 -0.4468096498023724
Ni 9.023751411394166 4.751202015518389 5.901033102880435 1.2265162238463456 -0.49932031810657873 -0.013525031069628319
Ni 7.970387599091428 8.69900093755875 2.4861472072562387 0.016660748485132597 0.4998661633077197 0.2444679447742306
P 8.370997159222084 1.496547256965114 3.5033259363458713 1.0490676825154577 0.5821828592297651 0.37359234507843403
P 1.7326791661271128 3.153122659299677 1.7426837571281815 0.002720998475588862 0.1450935220389501 -0.25280783209849367
P 4.62048079704881 1.037786011640747 8.223948701978387 1.3738944281544148 -0.02002863651610099 0.7657979343826812
P 8.551677897790295 1.6803181817030413 12.452766979381465 -0.8562128339318286 0.5236802350081821 0.2392180092292009
P 6.439213945192361 7.7708848174895016 1.2636287789344365 -1.1457627586463621 -1.1647264442330585 0.09431809125829563
P 1.9625491437839138 3.304324290506951 6.081176457167523 -1.5754007817654547 -0.6357692770966534 0.1368006859025386
P 6.990517657276613 3.9180298265344637 5.956500585307375 -1.278844858046733 0.3654666306475061 0.2894838473632885
P 2.3910972492554152 8.456779277352624 10.156444199389162 0.320782400366254 0.12396728158329619 0.9317461883834534
