# total energy = -340869.2356791202 ev
CRYSTAL
PRIMVEC
9.22563684931299 0.00000000000000 0.00000000000000
0.00000000000000 9.22563684931299 0.00000000000000
0.00000000000000 0.00000000000000 13.50265207063484
PRIMCOORD
 96 1
Ni 5.153440727930981 1.8420090988545572 8.991780765555 -0.7107819831581178 0.9955298584983179 -0.41052958442441556
Ni 4.066171751724662 8.003950315818434 6.034078503450165 0.6322630637156079 2.107179734621371 -1.6516715286037362
Ni 6.510651837505114 3.7418168123895432 10.34462445865831 0.15874839381822337 0.49509136762689576 0.14798215644065482
Ni 0.8000832050573106 2.749479639066163 7.505773308020921 0.09766772445681889 -1.2885687702027162 1.645171265591373
Ni 2.386506184000434 2.9564844780445294 11.651235717963047 -0.2921130574560195 -0.42235820162822746 0.4829876423848263
Ni 1.7119645222327973 0.42868489844710084 11.70247859511883 1.895912187858509 -2.943942430248388 -1.606353521393227
Ni 2.336254140239173 2.9151443994518713 4.560912209806539 1.2683583566931123 -0.1693271977753342 -1.4754146935881043
Ni 8.710689450089614 4.874199152648105 3.275459948549615 0.6151508295153535 -0.27305604082456847 -0.9530161535058231
Ni 2.2528636090186787 4.066596131018406 6.621741420715476 -0.48580737122180845 -0.4264850793124074 -0.43459948088942574
Ni 3.314586796869035 1.8392598590820484 6.518013895687873 0.3469140644562993 0.23540249213785264 0.13810037855056861
Ni 6.982699996699608 2.678377656090574 2.7400252064525157 -0.48635912996022046 0.17563874181565878 0.5637148823325646
Ni 0.5487141237365266 1.7068627450710612 12.891467597780613 -1.5882298152093228 1.2684545159513445 2.62391541999092
Ni 7.647444032163874 1.4903185976202984 4.73895869736904 -0.4540676169163664 1.0677770859995028 0.12863203404881715
Ni 7.499363335558038 7.532824720305989 10.564758301395928 -0.36485625075701683 0.9502571027034472 -1.9450356848580372
Ni 6.264207401119114 9.482478549582135 7.419572647824903 1.8307144110049371 -0.9083463214022743 1.1203024095917287
Ni 5.749250805072476 2.3768469422493705 0.5940129230888609 0.18081308692774664 -0.8755662987577759 0.9125616450352024
Ni 2.6141579981830776 0.4047674349899561 8.71174947576029 1.764259107595181 -0.9828545770234942 -0.03959267469095762
Ni 1.182689737840745 3.8959864292969093 9.529307882082989 -0.2003814959779775 1.5423340811184727 0.8687647024549101
Ni 4.986152255464866 2.1863559931796983 4.167364071753992 0.19551696879682456 -0.611389048480076 0.28771081462326575
Ni 8.208067530471984 2.761408387475069 8.979952576587438 -0.7738313462101188 -0.25390132227298856 0.8562889385854027
Ni 7.8309327228867875 7.43882470674192 7.157486144209744 -0.5081039778364798 -0.8794419796630983 0.7974677546821363
Ni 4.335772536530117 3.871261722617971 7.815618165764758 0.809312055615232 1.003212828964872 -0.07367727507949247
Ni 8.718152990277398 4.046161345460999 5.720789715481235 2.669969019815873 -0.10775467637917573 1.0765694874801526
Ni 5.412432030392862 7.17224993081359 7.687208371987591 0.5286753742299282 -0.8565079965747442 0.35885143932383357
P 3.0890476535182856 0.8549250031367693 3.734374491166446 -0.47457524995141487 0.20439653067464156 0.377899199983904
P 7.89045653165265 6.336471814334085 1.2157230530402252 0.19023772267575623 -1.773235085841546 -0.343420449480744
P 8.865864661410415 7.65658663825299 4.059005277042498 -0.7222830418191818 -0.5888240186953665 -0.898460172636814
P 6.607788567588153 0.7295569018193206 1.9541033539146715 -0.07404597127282087 -0.8680393942531115 -0.8441744147100558
P 9.352489326781296 5.549700280645073 7.6402729446633 0.14741831351738482 -1.1031109854141068 0.7727129163349596
P 2.9562630627608373 5.961698769774936 11.558634310940967 1.2712359353512235 -1.8472653733850832 -0.1267834108758526
P 1.0166375007085757 8.999627169670834 0.8410533356134665 -0.15174033793150643 0.4138308808835066 -0.3831848738628756
P 5.802362796248091 5.400180384695239 8.842806104741257 -1.3288106484418987 -1.0058494952567711 1.118909385898944
Ni 6.601653519102521 8.585737424992768 4.8766854617712285 -0.8200186433994588 -0.6823124149635152 0.6646463651423199
Ni 0.42892476500443383 6.177237322812265 10.876142917925105 -0.197221353082441 -0.6312451639740548 -0.7738889389209317
Ni 0.6685846680726398 1.7706118955007122 5.525109345700032 -0.25061031022654257 -0.34809162970416824 -1.2615302780276854
Ni 1.607871661987102 7.2011077227881115 12.60374028175024 0.06528365169915855 1.1472820235043661 0.60578224381626
Ni 8.919253421690645 8.954845928544131 5.759070572904215 -0.07671606190581627 -0.46127236219492174 0.2150612094773393
Ni 8.442850761916874 1.1238117236523175 11.132841649637093 -1.3012329959339461 0.20827272580059614 -1.7194041560640196
Ni 2.5202502409872136 7.423371765067584 10.059016271405605 -0.7213818701611512 1.497396597175834 0.35505880505062076
Ni 1.8662356211451887 9.195016931892193 6.6304098290720175 0.2614117717174208 -0.3883116535664796 -1.3747673176776711
Ni 7.57512426512798 2.956087775661248 12.69176392778199 2.0041564022795937 0.41670871665193393 -1.420780808293308
Ni 4.909644049312464 6.078015598807793 13.09734321881215 0.1543826606503599 -0.8007875630839886 1.2406727178523858
Ni 4.928824148262282 0.1556623249449228 0.10392034083715172 0.728959425398093 -1.1462335276351936 1.3049922058660623
Ni 8.171358721563218 8.380762226114912 1.373489745743904 -0.4916242350139016 1.6931706762887873 0.3804106535518481
Ni 6.949570734877195 4.9610769745867485 7.131682038022808 0.22093618020087757 0.7402439971729767 -1.0656440988169003
Ni 1.4534898554328646 1.9430390476758463 2.0667695984576566 -0.2548192061015676 -1.2022164707587166 -0.8616008377166194
Ni 2.71598135177093 8.46680051510289 2.2428980761251753 -2.0280416935376233 1.1181444827084612 -0.2218394087414373
Ni 6.893977047396866 4.127983518422008 4.606470249553529 -2.4604667924835497 -0.05978971846412284 -1.9645449585355588
Ni 4.061927958787233 4.133343613414718 10.40093036530118 -0.3245385249745766 0.6498110999017002 -0.2314872162438465
Ni 2.9805818414196734 6.0222927524119765 6.122763627641945 0.2785507453905525 1.4779719127923192 -0.5554454432349208
Ni 3.9658614025753716 7.902671274802991 11.97288293289135 -0.042786499037906954 1.0364186262928796 -0.2551591059394896
Ni 6.060247022291512 3.037550148786258 6.327680705007831 0.14713266395616595 -3.2643839023354553 1.465852503820966
Ni 4.780937190029676 8.669653817512032 9.608419562946136 0.36310532950418106 -0.1330687296639321 0.1776647711067521
Ni 0.27563342872237945 0.2469988971589133 3.237679120642306 0.0486558133344904 0.13671018307126132 0.2517354249699213
Ni 0.7546810785725867 6.784680927984408 1.3229212626397004 0.08756328903296531 0.27392944456845725 0.9632964523859088
Ni 8.681933140120115 0.211304908300401 8.123181523522886 -0.17809954465132552 1.0726488122695075 1.5372134720624557
P 1.8878420625787984 5.069985617252744 4.4123287159939855 -0.12943216135260935 1.227038414898403 1.1668920844258097
P 5.184199001090527 0.8285553654127359 5.858152989792697 -1.1311411520784456 0.6320298646588793 -1.6949773904802228
P 6.410719739465464 7.586056644760271 12.485348606996451 -0.4256355868279186 1.9196126167992424 0.03522462753024901
P 8.819367451835097 3.9189213624326706 11.174997274524683 0.15953258028241554 0.6002410022830565 -0.9553322032335093
P 8.070439480383774 1.9495984754552216 6.986164223325706 -0.6740126368485683 0.4288749197008227 -1.6546820332952858
P 5.729969224117632 3.6653086062371414 12.33525303130902 -3.1363511924335343 1.7515187772103773 0.19655029515734537
P 5.175822122857514 4.184121518474748 2.9469267182984917 0.2835785376224471 -1.3275749762625846 -0.4169563138863658
P 0.32754700967501177 8.600692182278799 10.240033414024305 0.7890821017216023 -0.7737418718201061 -0.5499988182980527
Ni 8.561261810507984 3.0425043157588663 1.174818424505495 1.826149160231758 0.43788740761207806 0.8310779865374138
Ni 4.105233098022657 5.989809285166998 3.444621225290293 -1.9610066063649967 0.08869688841677628 -0.36116800327215215
Ni 6.5960166550051955 4.64726693813746 1.2165164578067882 -0.647137409724279 -0.24286511906348493 0.35820969197477665
Ni 7.582938379514942 6.245719224930832 5.02263503627153 -1.659966678732993 0.15403221928947666 0.9487283247637467
Ni 2.7599784137678913 5.873861481606961 0.5889056105450324 0.4523076968024662 -0.451111619611836 0.5902044439826609
Ni 7.167526404761494 0.6726264195637006 13.070904388811961 0.9154356241488879 -1.3460046437226818 1.2740721192484379
Ni 8.758736566650773 8.164559427226509 12.277435042791266 0.13714418528488637 0.5022215509137737 2.0057718263958293
Ni 0.9434043956274513 7.675037911893988 8.129082240833277 -0.15597185951435072 -1.7769505870199203 0.7289853935400219
Ni 0.42231644134991014 6.459551035156368 5.810096647594715 1.6141167102784137 -1.0622738967930867 0.4771710357030491
Ni 2.685269206795487 5.5424028019200575 8.58695797674412 -0.26532396228763344 -0.16821313877554903 -0.3900692596875347
Ni 1.1490622916300244 1.5868741125836454 9.799428070241438 -1.1407118264860159 0.5986507749778013 0.0836690961848817
Ni 2.8654551195366613 1.2669567045591867 0.1278119725111991 -0.912808728049002 0.2609343178603699 1.3039323971429801
Ni 4.48435141752426 4.354011620524244 5.220868139760966 -0.5634845114893134 -0.49473501272874143 0.14345161556015296
Ni 3.6828004136488084 2.2812508935153555 2.137173200725934 1.7006135057200775 0.4067258944076092 0.5821975145177845
Ni 5.712117616869965 1.4283776720074652 11.351787230352231 1.684094167908816 1.0317135075077264 -0.5172753599231027
Ni 7.297045120084486 5.643967837676937 12.502658669362756 -1.2127729061183243 -0.3122419669954106 -0.7453214116958841
Ni 3.9816833697225285 3.7776768627108246 0.38807456772694443 -0.43394796334835584 1.067179304514504 -0.9123772969385384
Ni 1.901745097267291 4.347000136540665 2.4440612418688015 0.08015439816340389 0.24857193964027516 -1.1169628036955344
Ni 1.7882605387383275 7.6754899680981925 4.596707680670077 1.4960596235319656 1.385472362800001 -1.4575966915700769
Ni 6.623638211645771 6.775224650243397 3.004731790924695 -0.9412947513038369 0.32913385765474285 -1.1946304308813425
Ni 7.923456634559576 5.520408883739988 9.190026784935984 0.7758943993867347 -0.2777848137588055 1.5352465781440723
Ni 5.460479146954023 6.379887661211355 10.818608156457744 -0.4793091650919746 -0.9906015679587651 -1.4185004968995636
Ni 0.06531843125281801 5.07156320114905 13.138201719162776 2.420641690066812 -1.2049130437542732 0.8519057219160425
Ni 4.939968717541445 8.948489464774807 3.0364227759667926 0.5395156593785418 0.16050445727738163 -0.21509566225970053
P 6.832709593271929 0.6044000675850613 9.555651688023925 0.1815957307300421 -0.4857351232229764 0.3823006714857093
P 4.249595862989832 7.2227787436794655 1.7172535798219897 1.422376692025518 -0.7288393548804608 -2.216717985263531
P 3.8688722826814614 0.8902665726687385 11.852006794141802 -1.817655263828134 -0.7137001852461773 -1.1624389337504626
P 5.309990559138036 6.319921021878108 5.125998148644724 1.7498002518573736 1.4217398297724677 1.517571272351496
P 3.216795046571741 7.559477585080412 7.963959025328933 0.15765824607783815 0.5711790519200938 0.28703769981564115
P 2.8934364760132363 2.575936184835748 8.734865231377732 -0.1582172039051017 0.6154984426627593 0.4455739776230584
P 9.290493047347542 2.614591603113641 3.419614214124647 -1.6430143671493702 0.6958485017767371 1.0757516195645473
P 1.7745051142389627 3.3016801309571564 0.3625795203734942 -0.09631455286303413 1.1977046989312923 -0.3903479672702181
