# total energy = -340864.14981922985 ev
CRYSTAL
PRIMVEC
9.30803707701075 0.00000000000000 0.00000000000000

0.00000000000000 9.30803707701075 0.00000000000000

0.00000000000000 0.00000000000000 13.62325313301044

PRIMCOORD
 96 1
Ni 2.6198308198484264 7.611126105063755 10.13256724933554 1.1954835229102574 -0.4557969409026473 -2.7419401108375356
Ni 1.861998361623252 3.3032920614822356 10.059737443691299 -0.7529298201707614 -1.756057031400363 -0.094344830731173
Ni 2.47698968219998 8.86949825943419 6.8076758877155985 -1.083132999630283 -0.2466703517421881 -0.31152308655151506
Ni 8.991396313561914 8.134684577007569 11.13666896127903 0.44181425347031 1.032568399308854 1.5338234725443003
Ni 4.54712506187073 3.6057194955585854 12.124287070286144 -2.2114081430148427 1.7804241473908176 -0.4554539557409317
Ni 0.7241634263535492 7.614970324394447 4.921890837231366 0.5658987773577608 -0.33006922498481867 -0.1953840427633861
Ni 0.5546435927108392 1.0325498657943282 1.3819568248243614 0.48648100025006535 -0.7417982290339741 -0.6963184994346201
Ni 7.17838615130291 4.736236452044292 9.412114937381862 -0.6213772700410395 -0.02801628270726788 -0.21122512356070072
Ni 1.2049160971884323 2.9055596353309197 0.07616208293331449 1.1243670665794057 0.6441518447333939 3.4119837357360265
Ni 8.498191350667465 9.155953101812068 3.00462228199136 -1.4271283477778907 -1.5693486620341037 0.15494110425699123
Ni 4.090221443745533 1.3178039713836853 6.832824342407282 -0.02324585790181803 0.7558464795969241 -0.23076627891742194
Ni 6.399405832740367 8.088693565596063 11.85592239805161 2.233144763360986 0.29080282328502816 1.1745783973264738
Ni 3.5936935115991306 2.5608550966540724 0.7335859523304501 0.025286285370614513 -0.03865705025056568 0.22638486202027464
Ni 6.969215941135058 1.3516759184645335 11.653358101828049 -0.08664386254248949 -2.0379653804092386 0.8013578337651618
Ni 7.0835837932324415 6.160440595750367 7.420694835226531 0.5675447976016161 -1.9068982545563675 -0.9078976639006299
Ni 7.776343763949451 0.7627657178989444 5.585955991113851 -0.23397604410397121 3.452038694775384 -2.5056022513696075
Ni 4.571642431645655 2.580318202272664 2.9528398098835904 -0.7072323181336465 -0.627986547827441 -0.4175060157422487
Ni 1.7050462397003996 9.074889406531193 3.1747899550176446 0.20520591394981436 -0.5515540786003146 -0.32354762181621693
Ni 2.2889766404066165 4.971673942965691 8.62023647178169 -0.9925494357137551 2.1363471002139462 -1.216933979474549
Ni 2.976579958558969 1.6225491067029945 12.167581543343895 0.1548338892551656 1.0553110923220084 -0.1504020787360571
Ni 6.961918440032726 3.6593151732973936 11.78098059878477 1.7872118597366125 -0.455856333385673 -0.7635459051237109
Ni 8.259002720786576 5.8597444565783965 11.465534013188227 0.307895774211573 -0.3450443582374122 1.5015833815636719
Ni 4.573932208777254 8.990595822369565 13.44203705505453 -0.19269004087099073 0.8014542501337101 1.523968948347724
Ni 9.22242179488828 3.696947567374851 8.060701505564122 0.4343706527080713 -0.10528101802770255 1.0453822632440706
P 5.074239203994508 4.572712855914492 10.133548316448023 -0.01936014969416666 -1.918429909345051 1.1582971436679472
P 6.319626646582096 8.73785469044149 2.2376735322105437 -0.39867037109298437 -0.919708540492629 -0.7535458564882055
P 0.29033163983849225 0.05790809133665299 6.337142510835116 0.7158033476321092 0.4896632546327889 0.535843095622961
P 7.801875709770492 5.622063728711 13.698453930841422 -1.4414555630338401 0.33510164520240354 -1.8368063828352883
P 1.961343041808438 7.120052682669859 8.04874067786451 0.5760947440541563 -0.13858657415836775 -1.1030603346818293
P 1.6091734573610934 7.115966454374038 11.911723149784223 -1.2073748750312046 -1.4677134682891044 1.3469775491589124
P 4.513569588051973 4.824476643944935 1.3778696657248286 0.4151498568052463 -1.3032286862077362 1.6418887381853595
P 5.708004835442924 7.495362047398322 7.977477414867621 -0.03885579652493308 1.7813014077894485 0.9820333666737797
Ni 4.886309934535227 5.1121601472226965 6.376132016724717 -0.6151243471527922 -0.8766667309108064 0.5893454384164754
Ni 6.045207096200792 0.664801419618702 9.039518865473973 1.2318322367426204 0.4251131386655453 0.06288558378062718
Ni 6.786275779572268 2.673724354775085 3.962595223573964 0.07925759738074738 1.2215714782465608 2.4443904557469773
Ni 0.6558228870124404 5.284154057131987 6.155626478951737 -0.4626018796396227 -0.05622874058574187 -0.013932293810376006
Ni 8.057251016203619 1.2707518437404626 7.696961100172506 0.5700192272840378 0.7313186696588889 0.96574234282324
Ni 2.805209687136739 1.4196804376655985 4.6835520311395635 0.0208030527882803 -0.6907510326491717 0.08012225937388782
Ni 9.229067733392188 7.520791604811039 0.08900717415935747 -0.2687872382458855 -0.15121171912154602 -0.16346071169222817
Ni 5.778541140740717 6.821218150921953 0.4822047246256531 0.8506672215232511 -0.2742706299579599 0.668779670584403
Ni 9.170808729056102 4.178917729465073 4.000100097542874 -0.6578740794154928 1.0396479318634546 -0.050210559416119974
Ni 7.492001845997885 7.2538743323487145 9.748105291706667 -1.938236402548017 -0.31043088192860085 -2.174564748934248
Ni 3.104621317186105 5.434702249516058 10.88863024970414 0.5761790762378465 -0.43905494555761804 1.3758065575754628
Ni 9.016025379782283 5.499784045061342 1.713737153959643 0.17074438983783496 0.18384775998901243 1.7804496013121145
Ni 3.200354478968606 8.004576834139721 4.771939290026706 1.4754506890323622 1.2539264975384985 -0.7691159430123206
Ni 5.92074002382786 5.63888335178742 11.888345083752824 -0.5365599191843275 1.3017662427295968 0.12365926342457413
Ni 7.046770506421572 -0.01492916073728284 0.1831170142680749 0.49782727850082 0.12706623222359406 0.626780700444798
Ni 0.4596848596167485 6.482647608707397 9.38836920388421 -0.31056046552792965 -0.02596197128140045 0.851018691325399
Ni 8.952265325508083 7.402142055638307 7.333519482772452 1.311329975158632 1.0817348337311756 -0.11484423623610546
Ni 8.227029613278273 2.541336142812759 0.12499763048879062 -1.1101948888440816 -0.40187447985257885 1.3402931951602015
Ni 0.9882529171387204 5.342897079398333 13.08961708440865 -0.7399827730917901 0.0862204018518257 -0.24542465226054508
Ni 0.1519332283075755 1.8037579733614038 3.5863485395074854 0.25185729525976625 0.4946874473202576 -1.2313552971062018
Ni 6.449790237672664 4.830666488629949 2.1671055795865417 1.2296172313691727 -1.44151932639224 -0.39946998417614427
Ni 3.8998441605236085 3.3526618903684184 8.249465705953096 0.2572792376062859 -0.08317775837075997 -0.3901289092808765
Ni 4.53494084128023 4.719910154935248 3.854031863424812 0.02372511153108172 1.1533840226370458 -0.18067450446735336
Ni 4.086498228897405 7.3236939187882415 2.13706575138813 -0.4482111581355893 0.16558804244787612 0.7805203281945203
P 2.818371251624873 0.8485774429148957 9.678544468699082 -0.8317408169323933 1.3824741994036256 0.45535034028353194
P 5.228398914781264 6.888924812935168 5.065657193769573 -1.3120982207832241 0.7109596463865627 0.20493980477262122
P 9.199952193279826 4.5257910407909545 10.121109986444136 0.8853773713109268 -2.2572869078248288 -0.12027749143653478
P 6.07789692256736 3.343456241656421 8.062214061596174 0.8046958969994593 -0.6203074340156285 -0.4138146829335905
P 2.8921746779518984 0.3877979581327974 1.4478251495063132 0.279023571261913 0.7837707168110178 0.043387108736383344
P 1.8160725064715884 6.725019587283437 2.617380944478358 0.13307927118689342 0.5757288760743052 0.016045740608953012
P 1.8196747168371525 3.63369945514227 6.993946464960038 1.197364284872738 0.40124970178438635 -0.6162175802169709
P 8.066605593509541 3.276028820756816 2.300940260517365 0.44902079852107835 -0.43435805430258095 -0.6730618428995248
Ni 2.7892091713269074 5.919669599559024 5.2914078104598525 -0.12179032853663539 -1.0304757784458833 0.08418665925124857
Ni 5.498480919864498 0.41371060267205906 4.107069921737026 -0.005316784227223101 -0.2881317042107683 0.3165377661572871
Ni 4.454072614778881 9.289216269263704 11.07913784544575 -0.6161036803469261 0.391373580321255 0.4963872036201838
Ni 6.276111573044595 6.779201671360824 3.119915352978504 -0.0830376332484699 2.2762189688426413 0.7772678826954936
Ni 2.3228672035617053 3.7985634086173956 4.218249771120701 -0.14169143833593661 -0.16087341058102617 0.5651187046586267
Ni 5.9738144514879306 3.3975452453626063 0.2239076253404576 0.23632011885611562 0.007288820351929383 2.350392466832262
Ni 1.791033886617925 9.153663324680469 11.426667373388616 -0.973072557936066 2.299910656032626 1.4496923491213356
Ni 3.2283809787378925 5.694908427214632 0.09810857285560733 0.5212911659507151 -0.055322683831704716 -1.7533314049390838
Ni 6.615668767193905 1.4659413821535938 2.1221486910991034 0.4545862084239977 0.5833380558801308 -1.504062182121468
Ni 7.707045427588662 8.006633910343313 5.299172575025625 -1.1655008605052377 -3.3459554925613597 -0.5282979362858514
Ni 7.967065444544828 2.3280983204233254 9.960123761233337 0.8897554457739645 0.7075601337867105 -1.9681308761146044
Ni 0.6935883860207188 0.081860463258375 8.9563357301408 0.9250867740854068 -2.1866533046676664 0.8861011368508287
Ni 4.649708938973788 2.1475782485118207 10.293771282614955 0.07355694745154429 0.7652896272876949 -1.051001666313377
Ni 2.495131046547486 7.837004241862583 0.45323904391092623 -1.474822054309428 0.3029502572808396 -0.5619439064750709
Ni 4.119085666855649 8.948867891959166 8.54687517721788 -0.7784855571526785 -1.326122045866142 -0.839430215156851
Ni 1.8493673552509764 4.554720420160912 1.7787333155634206 0.820149255440052 6.076028676757981 -1.0314602538463398
Ni 7.595702687555383 3.8457272327060616 6.491534922549881 -0.6708776907640124 -1.067699181573716 -0.25626879406390063
Ni 5.839434319581856 9.052075407549285 6.502487689829361 -0.5414702120017513 -0.6936219264390635 0.3239474283577969
Ni 0.27688059539591636 2.2333145784270974 11.94406485556249 -0.7591485473869636 -1.4802504244138506 -3.4152840037538543
Ni 0.5495679200691281 2.5028753334315934 5.595233311711675 -0.28480032584469017 0.16107549928950324 2.1380859372819243
Ni 6.644179284893448 5.228752620191836 4.918539013064339 2.1816288548698815 0.48374688914835395 -0.80617685242036
Ni 1.5194346714840785 1.661912795684832 7.766317146363441 1.2551881378597416 1.2421930111516544 -0.6899421635946311
Ni 4.547785932506273 5.854857737090228 8.624786240326102 -1.2451541506625072 -0.4289014020633839 -1.1037504187703184
Ni 5.146981514089817 7.377345444749772 10.227793123094983 -0.8281703259723157 -1.3275106986835525 -1.2826729735435718
P 8.061514097204725 9.272117405073674 9.491402659180181 -1.7484740768467821 1.3637228869380513 0.6329217803455294
P 2.1669855059076895 3.715963887211667 12.089806377577627 1.23828956233219 0.7001826103757167 -0.31852908555570303
P 5.2065994918454725 1.674385565426062 12.755166279423548 -0.38211452361683224 -0.8875134438173231 0.10315600126489975
P 9.138230599134976 0.27852904876992524 12.99361398954966 -0.44168209876782 1.2077445996657974 -0.49226443970106193
P 1.9046198635972018 2.8116322327497603 2.3495756852747545 -0.04135799412149651 -6.519329284965831 1.8506250338859356
P 8.328301057147366 6.412371928448975 3.8721099331198996 0.8830541224943889 -0.6083163230920233 0.06043352269570882
P 4.384057559559826 7.151830321398634 12.403972177266414 -0.18189937801338996 -0.15698204594641996 -0.6205030949662024
P 4.723810222488663 2.5369241332177275 5.14281895988961 0.1443288759587837 0.3277344062040549 -0.7880063521589202
