# total energy = -340869.57698783453 ev
CRYSTAL
PRIMVEC
9.22021938457067 0.00000000000000 0.00000000000000
0.00000000000000 9.22021938457067 0.00000000000000
0.00000000000000 0.00000000000000 13.49472306338076
PRIMCOORD
 96 1
Ni 6.479223148712643 7.200161300692296 4.364449722394416 2.6968691866408263 -3.6910638712674886 -2.357139298637792
Ni 7.759837820538788 2.0289553149836004 9.940711919637224 -0.1543078415483665 0.12128510676544273 -0.32237905542941253
Ni 1.8342888290357748 0.9998036787874018 11.823131214419043 -0.6953967589512992 0.31326835137739595 -1.073403431047345
Ni 3.636260790111187 7.342254097307744 3.173013931766394 -0.030277825047934952 1.038798953599598 -0.13947771851406948
Ni 7.769426848407198 8.035596133508408 2.777578096845646 2.4622120573094306 -0.13242338277044935 -2.070530201719137
Ni 1.4317801640401644 4.728681569800683 0.21518239547667067 0.3418520765523596 0.32449738732399597 -0.30154514940319677
Ni 9.085843631015107 3.337202983465153 12.090515724398191 1.1082128254170462 0.15989202050436332 -0.06801750569055383
Ni 3.0228949344207052 4.937648615579185 10.453551570477995 -2.636104248747628 -0.22852633384330964 -0.6211325010200851
Ni 4.603194387791973 7.892525993667911 9.969374814766576 -0.18883467168064252 -2.398161506686425 0.6818385606508902
Ni 0.508328197633066 0.6195415584465023 9.536356444755034 1.1719000791633623 1.5022804076306966 -0.10451277240311031
Ni 3.6597907892652084 8.584614080070395 7.456657653931248 -1.734123207441749 0.10889676040341892 1.437975832015356
Ni 0.6182507277719086 4.412953607014183 7.148248701069693 0.8637914176100349 -1.2762662986862794 0.7327255773087445
Ni 4.79182163022652 5.184169613769258 3.897599602423685 0.8827581885205249 -1.128943115985862 -0.10011824287984047
Ni 3.607272421247456 3.3229393045108937 0.02561376867157957 -0.5880776274476452 0.31000767834825316 0.2406529419035146
Ni 4.671193503685744 8.25202233654224 0.6705570307502637 0.08066039126554496 0.74870009836013 -0.27287606360327843
Ni 6.5775199045829496 5.428551521127147 6.928541022056661 -1.1174546557302882 0.623733686088358 -0.07146484080920595
Ni 0.9662513014670713 9.271391320268838 4.480450220966774 1.1435459535007015 -1.4446298469967638 -0.026462307956586682
Ni 3.3628812936704624 8.600592719778044 5.087146170157248 0.5269501640087054 1.2409995050641855 -1.848029248134301
Ni 0.7413590932517251 2.2886427860545284 5.540757899538111 1.0697689196185511 0.725076545403919 0.3986279478908231
Ni 6.568714595338399 2.1508650519798658 4.5826591158030086 -1.60602724840206 0.652849886728024 0.02314404221663111
Ni 5.518439437174386 5.455161073461984 9.347875803804245 -0.046104250557230275 0.17236752726355475 0.037676688615167375
Ni 7.7714921774865475 8.90347691735234 0.3174779603724856 1.7149852010607174 1.1749650912419314 0.7471839188259196
Ni 4.681603131054432 4.054840297005488 11.416819209042934 1.6351069393768358 -2.128391592812296 -0.0736901305952989
Ni 3.5206576829822223 2.249134147192859 9.660170156996326 -0.26740218497290075 -0.5896429150522361 1.1236872669035614
P 2.574497238943291 2.9339935818176204 11.665229430127466 -0.03566582883272568 1.1736394304519724 -0.3087537513364941
P 5.477142075806494 6.034264594961111 11.541739347576733 1.5710039382493395 1.2954130468180594 -0.6024326106177367
P 2.350307611423688 4.649562869667197 8.453175246629899 -0.2224384757780169 -1.4661301829623847 -0.16735516165062791
P 4.534771141819405 3.681080275176899 1.9996479265388623 -0.16504811078400608 2.2222402006333404 0.7014275385264114
P 6.475608822823781 0.5649569393274892 6.143216236028276 -0.10438987367200087 -0.5556408470751786 1.2406755460658634
P 5.769911693023436 7.367268551737548 2.3397421623521386 -1.2018369759321108 -0.786292197681291 -1.2000336041747848
P 1.9677238399123405 6.661469999527058 1.951511928661355 -0.47356866306377154 -1.3357708818098155 0.33615374061600173
P 0.8922913139224077 9.255901352173716 -0.061373466445465166 -1.3324001655653699 0.17362942469511386 0.889332756414249
Ni 0.11643292684834658 7.793629923555828 8.960023599096735 1.2409015460337405 -2.5369604539659147 -2.7970540210925443
Ni 5.2039654241860624 1.70442204295255 2.024977712462031 0.43001340418064005 -1.1586910366722563 -0.5118505893631056
Ni 2.3797201103662142 6.7296535198029135 9.24221209286965 -1.0961882901523445 1.4758913761142067 0.5168935511036518
Ni 2.372758844942513 2.5193418882617253 7.658309377872446 -1.1411671688558798 -0.3832139273285981 -1.1580485179922506
Ni 7.947340196242619 0.3628598788035564 4.6663667189846745 -0.17164144773080764 -0.9064038529639229 -1.3494303815747792
Ni 1.6882589988628167 7.436650700496957 6.101085366853361 -1.2399630933798709 -0.9667479012696188 0.8611938320861878
Ni 7.644354576258178 6.873719443306669 10.066334638866767 -2.197159089294997 -2.006702822850531 -0.36654289443082033
Ni 7.742476147965504 3.4935225781584434 6.227558190284314 1.8139554463790437 0.19332613179309285 -0.3035446963317288
Ni 2.614881798619863 8.081337640484543 12.877312057395613 -0.356079018785019 -0.12327925437733606 -0.07943397505761159
Ni 2.981440829328041 4.183951025122166 5.731640407565556 -0.5225368654323581 0.662583311965704 0.5415645714877706
Ni 9.010394578085108 0.4860853410659968 6.754217105518521 0.9701756960042452 0.3219800202187809 1.3679963175024246
Ni 5.331739220532624 7.761829387865304 5.827358268152405 -2.3082088914856764 0.8655685641151158 4.559432109614928
Ni 8.312009082034427 6.645648103544181 12.231575856473965 -0.4747698824607243 -1.0298813393949942 -0.19755173983866622
Ni 0.5626251459160269 8.162715294298568 11.211023918636291 0.7895636693437111 0.5769462934211741 0.4253424810675319
Ni 2.5367404417114265 4.970952046983701 3.382020624487044 -0.7388219200144694 1.29770955616172 0.09274817566801447
Ni 3.889503328028252 5.998785191847993 1.3081342597865704 0.9901691084070368 -1.778826978107027 -0.16804730262164608
Ni 4.010039252377985 0.5499381244285921 11.441068385287085 0.5367296119929724 -0.2687944373347371 0.48462543509856537
Ni 6.668532687360905 7.020901800867657 0.25643181170522095 -1.4477172276728358 -1.8198741258563238 0.23199038113251014
Ni 1.3469449280620491 8.852000434093364 2.0669997830515165 0.47558595060411646 -0.9414942689091528 -0.44255807361487004
Ni 7.980551425456092 4.315652634807134 8.91478920417133 -2.219332540068242 -1.0929836671721178 -1.7975831756686074
Ni 8.585785047896634 1.0642161294496244 12.074875466731669 -0.24769982144796693 -0.7001895523542522 -0.4752190541830009
Ni 5.575401950800384 0.656725780071993 9.612790217085365 1.0082701888831216 1.057511699517753 -0.3415818536101085
Ni 7.262637505342629 8.762693391849693 8.299928750964051 -0.34797284473811685 0.7707467937475242 -0.894761383628988
Ni 0.14238507756105176 1.439792534441749 2.8472110355646896 -0.886631555433002 1.7767225301695144 -0.5116497862062092
P 7.815066932973187 8.897437673839061 10.462687885588387 -0.4033850029598343 1.8826182989630802 0.0696000196863253
P 2.9971428624625625 0.8149843868429049 2.843621604267409 0.4292425874528865 -0.2346144490189185 1.0812501807852732
P 8.672141620026949 6.8146823803822185 4.349443815802265 1.0581524184255453 -1.3741919047901752 -0.3081773100077338
P 5.002199369527972 3.3107132939786705 5.51294510861017 0.37376460899024017 1.6401100490183818 0.5458567711052212
P 1.277258512072201 6.3688018047202615 12.034458636288232 1.4138380584268875 -1.9286888680688974 0.005387746674474591
P 5.378688576211417 1.0198299946818117 13.17102490302692 -0.5648045158523176 0.32550577398385233 1.161432603973135
P 5.575632456277988 2.8280901451863163 9.611657052157454 1.0642189363345995 1.097259668839652 0.6574498473938807
P 7.338077338053524 0.8091120292954141 2.251553532685812 -0.4926691313386483 1.591737057031633 -0.07721408458815734
Ni 0.15777454526793927 4.878952700761592 2.4700874778068735 -0.3242130233143578 0.004521284909121246 -0.2476697395409799
Ni 7.305797350969579 2.3477904916082304 0.399578479364283 0.7768264242827008 -1.5932254686517013 0.39289181673799434
Ni 7.082981536096507 4.855616326208759 4.392896864396729 1.0878154927076167 0.22269969985920354 0.5281493265231291
Ni 8.09461475599465 7.581869151388741 6.217099695754375 -0.26004677304909407 -0.11890632212062101 0.8859664110451775
Ni 0.3672892720612334 6.877573494892242 0.5938595601535513 -0.23036235861078388 1.018074062347421 0.8971823343656549
Ni 7.363764868477936 4.56754902073498 11.40976113131864 -1.6083443265710107 1.3247097388996476 -1.3706815776440717
Ni 3.50490954875218 2.609773797236114 3.986907566689267 0.7653294793866948 -0.3803710585631642 0.07799312884602697
Ni 0.3137317853504328 5.053666632567841 10.15877286751824 2.074857625449898 2.909730046032737 1.9595840149858577
Ni 6.470427059687197 2.344296028567723 7.607366745299608 0.5056267199405807 -2.0493908486373607 1.0126899152173718
Ni 3.6227716095616835 6.000721437859884 12.520741290043059 -0.557897247209523 -0.2966543969697988 0.21541216505885485
Ni 4.611824512873541 3.632711005756055 7.762529202495315 -1.0822621669895554 0.9812905749704841 -0.5617053081017036
Ni 4.394098258946011 1.3665563340967686 6.362802208149132 -0.2027147720968444 0.5966951939133271 -0.4174013718435844
Ni 3.2557976689938157 1.0000341842650078 0.749232238344836 -0.9335865840263019 -0.05870702692290535 -1.2393066907427945
Ni 6.619278276906053 5.371644328815776 2.023236935095151 -0.2070409102760241 1.0750337675619164 -0.23751748159832645
Ni 7.082474424045774 3.2619383349172395 2.5352264817345103 0.7552299290588477 -1.2454513701879517 -0.04334931351991244
Ni 2.0932110219210514 3.1269358867929533 2.1739727650989127 0.42217462486251167 -0.7271326566019993 -0.25274355451946146
Ni 6.385186134068497 2.4510938264521385 11.801067230102598 -0.7771210727049842 -1.3007596558419534 -0.47711961363982347
Ni 5.343190732660091 -0.14283686829715955 3.705745283302653 -0.12113881099556556 1.676608401054732 -0.49582644602070736
Ni 0.5873380991811221 4.770965494612729 4.889246153369566 -0.4071881787560084 0.6218662938623162 -0.9271860798165967
Ni 0.9342110400798361 2.263416266585327 0.45174924512180586 -0.5220193023659913 -1.1194338909438464 -0.5644533031604859
Ni 6.187845784580441 8.663520715164484 11.989345948255005 0.3500713791383584 -0.8320568055109154 -1.0279589255613006
Ni 3.625233408062516 5.944745487678041 7.439910047950306 1.5765161263168201 1.22607296566134 -1.4629628409779964
Ni 1.0778620537239003 2.9145850206031945 9.937257103538865 0.4383574052699612 0.010367459277253112 -0.05027792231894567
Ni 5.893112260694296 4.27115585741007 -0.05762360333577064 -2.659524941664413 0.7208113423696618 0.6458893962497909
P 2.153880063626952 0.6094850654695073 6.195116849366045 -1.0269353693927927 1.2182521840653406 1.6833776014577655
P 3.503037844274019 6.408817555632664 5.160921753319827 -0.815830316349724 -0.7388545730246179 0.8550686930250565
P 8.611380376130006 3.0721309044373486 4.114297801921093 -0.30655211569948493 1.1255705999692036 -0.41198328615180657
P 2.7590399243146604 8.852461445048577 9.497882314476861 -1.4739550783234423 1.6774051859244143 0.6250863434615105
P 9.054439564746065 2.2716868031218307 8.172444469497362 -0.17008284499443613 0.5957865660561288 -1.156749596675169
P 7.872850046099461 4.506603372455951 0.062022569870403686 3.08394131137325 1.2771384168785875 1.1131346881986957
P 5.428782026604753 7.635272660440501 7.974855174093492 1.6193095673332627 -2.04024389203077 1.3008205909868757
P 8.566192082300123 5.996387934880891 7.609606336520028 -0.17723154022407542 1.013217762696384 1.0673829358848776
