# total energy = -340898.68940877373 ev
CRYSTAL
PRIMVEC
8.99334630036800 0.00000000000000 0.00000000000000

0.00000000000000 8.99334630036800 0.00000000000000

0.00000000000000 0.00000000000000 13.16267137196797

PRIMCOORD
 96 1
Ni 6.379304091064699 1.9586608292727015 11.408994731891575 -0.059400967666136416 0.2988748016598853 -0.5111741321213713
Ni 4.5395442894967335 0.3535931840611628 5.937720009562864 0.3968875681609488 -0.624235565425441 0.2040067514353906
Ni 2.7235988681845837 1.4784970920226035 4.756765072543881 -0.45292707555401995 0.4248192615742103 0.6172298235315693
Ni 3.306268763348499 4.236207721653679 4.831384663124906 0.26447961200946707 -0.09666499422391739 -0.4001562116098915
Ni 5.081735134233373 4.444439655355778 2.6664677382702733 -0.2619049093037554 -0.13946152056415337 -0.288592960117903
Ni 7.1305632506831165 6.043150803601754 2.668310474869373 0.5396146468502513 -0.44601492181521896 -0.7793453340498127
Ni 5.190743481318246 4.5241296944217835 11.456749399247458 -0.19823899571367792 0.39144557120977097 0.5813323383040117
Ni 5.672094340242727 7.834445463478408 12.315679595397864 -0.9898690606681144 -0.02337749838367587 0.41962177653367083
Ni 1.6484533450718506 6.622079466822156 0.4659668412259925 1.1077207162719762 -0.4434132225263137 -0.11950101828182647
Ni 2.7864353768127503 1.7223876426862996 0.23593413744152086 0.2604514646866805 -0.9276442503999379 0.769458928174036
Ni 0.4833815564553587 0.09919750591377392 4.770139077407334 0.0691251369324358 -0.39416297014093404 0.42021981512898593
Ni 8.683102560472387 2.34169642952778 1.245880599927144 0.31468142967483875 0.015178507512651276 0.6259852011266961
Ni 6.834511293114688 0.6061317362558228 4.748420146773726 -0.44615967492319936 0.7438890501247317 0.11211912399545852
Ni 0.7242773228950419 7.474945449752585 2.642024723127795 0.3970048104651034 -0.22184995026439858 -0.3722648845162621
Ni 7.749674183912201 3.9325204133159195 3.8701407666654704 -0.2123957468300342 -0.6487176097272054 -0.4923261461769327
Ni 7.521000374711057 3.838459007313058 12.639915800052282 0.2598297719422815 0.3015932290323129 -0.6488785607851019
Ni 7.840497985348561 8.805537973162219 6.879930388509683 0.09521129249652634 -0.1088481665536706 0.13552490451390853
Ni 6.818413203742366 0.7762067014725083 0.3282760156857297 0.19585301198000465 -0.7707758472132467 0.7015252404465402
Ni 1.8806885192961444 6.424459681421365 9.320697517772382 0.33111797796430714 0.15369283367218692 -1.489390696152222
Ni 0.012956713608215166 4.9715306721280985 1.3239014739721986 -0.25850488248327097 -1.1216535243029844 0.3564117195340894
Ni 6.337143284932047 1.986369328354336 6.82443694690526 0.2102049098263025 0.3571696807460365 0.6806741080291439
Ni 3.3947632881661827 4.253717766350836 0.5510313038723894 0.4088216005943733 0.5630924182572173 -0.647309416525769
Ni 5.932047006894673 5.583006254587851 4.781616385595579 0.13994565928942349 0.1291161727740873 -0.37315808575449283
Ni 5.14720669324483 2.8370049614722865 9.4129944292865 0.43900712303881806 0.33101796205133316 -1.012771419187585
P 0.2573706770101623 5.514288097663876 12.345611249615162 -0.061548867247074646 -0.37860213958819955 -0.0299698068892129
P 4.042580981884905 6.134064538498294 12.619223909533936 -0.5915745848573102 0.04916540598105726 -0.5454703343000799
P 2.3506897755458374 8.492317718045319 1.403272249254563 1.1121088180373426 -0.1975882495035565 0.6846204942714015
P 6.289352644192091 7.648283200904622 5.645679983653091 0.006806995619504407 0.03857528917003679 0.7128056984563659
P 4.711317198441628 0.9339769706672877 12.493099426307497 -0.012806664846365041 0.3262735053878123 0.09173978900815814
P 4.021482592126542 6.131933115492016 7.987648012230617 -0.27484887105893313 0.14656599281941854 0.9557710905431409
P 4.711038404715068 1.1337371724203766 3.830916288007714 1.072211981842405 -0.447138751007017 -0.07716420518682839
P 0.2433464532296037 5.508523362866301 3.5363617225512916 0.13372898895575033 -0.14480890091899576 -0.36569545882886045
Ni 1.4522724950339483 0.9355148328363755 2.6911607684320527 -0.17156688573913034 0.7089678127675144 -0.7892844475403955
Ni 1.7918882207138467 6.449721990386088 4.779378841106286 0.7827559023932583 0.2647804310793375 -0.3183102846766776
Ni 5.81938736132647 5.521896468395152 9.24452567566864 0.5847717030028639 -0.44387447843344846 -0.7993559728437846
Ni 8.633468283798727 2.303231888608549 10.111669494737338 -0.14860950561200859 0.8561418714845772 0.6317295598096411
Ni 2.3413996491091846 5.15794474839039 6.938939329072564 -0.5464573808036975 0.27052196154880503 0.6216986579362003
Ni 0.16179838887626724 9.084358679760049 9.294082609566544 1.327103950163437 -0.649718540187894 -0.1036195711648796
Ni 1.5495085521811842 1.107917276002534 11.330374901001719 -0.20760038232391992 0.1857100100087318 -0.42731760251603185
Ni 4.026159132055932 6.7555047483460555 1.6269322680506395 -0.09811252530372135 0.8665005890110818 -0.3624507266393177
Ni 5.678740422950072 7.71893492722248 7.883623777508951 -0.6838126536581256 0.3502359297406807 -0.4601079095731754
Ni 5.447143776293059 3.062126398996297 4.72293750083156 -0.1705898665378417 -0.7068641361609503 -0.0904542374275152
Ni 0.7599431345334534 7.3277513554750415 6.983099356025031 0.23272854485011532 0.2616100037711559 -0.2443442747121727
Ni 4.991531873672258 4.4789830974111355 6.874520890879822 0.4043568799548004 0.24158625235106138 0.17853586085779574
Ni 7.908991308622085 7.14327984195265 8.91723533070649 1.0210287741003707 -0.30958730298138293 0.20518817333800143
Ni 4.506214949153813 0.29055882182059917 10.294143586109119 -0.061216680718636514 -0.5571277160333501 0.35602091185357393
Ni 8.207714289957877 7.085101886561837 4.608448608683283 -0.49480957472041875 0.5169380311883419 0.9294645914381283
Ni 7.216737492228142 6.046379414822236 6.906572276753575 0.43046180457196836 -0.5275199204692463 -0.07259715464143626
Ni 2.227139187949766 5.206014182856907 2.560652928356413 -0.10309069524460311 -0.10506864490658033 -0.035829350993783454
Ni 2.322828389581896 5.282502590740484 11.488299855748007 0.2891827711831019 -0.49003529326022705 0.07973942211317235
Ni 1.2201272542698354 3.2154719419501925 3.6931427236840846 -0.4829534467127812 0.2248763957955482 0.30504030704064883
Ni 3.576320957578724 2.4986213241968622 2.6258340022914863 -0.16954394177183058 0.7364716746147381 -0.41997196078423804
Ni 1.1104803796176805 3.2136013259784364 8.2194299218156 -0.3330115954425942 0.7057876152673199 -0.2410000408302882
Ni 3.4627439907166777 2.765804641047327 7.252671305577891 0.3485225465939998 -0.13963686979975307 -0.6869663687957589
Ni 4.066863016133659 6.731843254972546 5.828746736527462 0.05545843807862062 1.025206302516828 0.3549711304328209
Ni 0.7039838376052955 7.389337789006698 11.216030801724331 -0.7689544777337919 0.15884532440740384 0.9380273934064749
P 0.22934111547568306 5.541124242181758 8.052856066203745 0.113111826926031 -0.5421862642321694 -0.3894653075549486
P 8.511401598295636 1.6148542043483884 7.9410525871764595 -1.0508525423300223 0.2732154492205682 -0.0578315662964875
P 1.8895199850858768 3.207863571218916 10.321679412947207 -0.7101047545854351 -0.14882907782198238 1.0765502042064428
P 3.9649594124030525 6.0466312285107415 3.710056509540245 -0.1251528172509651 0.008552260445385271 0.10199283419473401
P 6.904956172474131 3.8650253514503996 10.321772044411192 0.4714624153540461 0.4586485514188295 0.1477247890142101
P 6.225553847539992 7.616356822540518 10.054872017960298 -0.97575139031981 0.5610702456208659 0.9355401082082467
P 2.361868504646283 8.331049037249514 5.700318158051196 0.1910108533963549 0.9322475534999041 0.8218693234549523
P 6.930910969082245 3.900063427536751 1.6180999029263055 0.21971336353736998 1.295258009297434 -0.4101197505805066
Ni 5.322531973866857 2.7927756857554806 0.532548179136078 -0.5454986164348541 0.17761232060226187 -0.5263690946942547
Ni 1.4646113657707232 0.9676660448509303 7.025733212158234 -0.10227051333615289 0.2226667897387391 -0.23540429191006557
Ni 6.6611825353086696 0.7182310963671019 9.125889951671438 0.367004150337955 0.23090049050244105 -0.29850790523876974
Ni 2.784223013692308 1.5544818725291698 9.166734131947047 -0.6858206852270898 -0.7263153029070265 0.26674423967392774
Ni 6.526291338383828 2.027972547033869 2.5239555799297295 -0.43176561098505645 -0.43423104180641336 1.1560129756194608
Ni 4.161050328980774 6.753472252145974 10.404235631389167 -0.7306658665662384 0.5635133078447199 0.22450178606494883
Ni 8.232850692078348 7.142038760202158 0.26220999650247895 -1.088694038657828 0.7331991745110534 0.8415891704813829
Ni 7.604800372907315 3.795533766768871 8.219495573241533 0.2818332727965662 0.02623013734112257 -0.43238113308186826
Ni 3.018697531075098 8.28653197446013 12.457138632919692 0.8479433948341849 -0.15322643555872967 -0.6818989815751805
Ni 0.1403402652771825 4.897164693904783 10.2015966595757 -0.3621247107584667 -1.138248195436872 -0.25368483538680825
Ni 8.59217083888381 2.2321574750278423 5.701016041702197 0.4419572068060776 1.026871863144709 0.6650207177626031
Ni 3.810462721158846 2.665816620018566 11.333796869161588 -1.0099933422218155 -0.38123109257061444 0.5385427539423112
Ni 1.0155556123970855 3.3038315665776055 12.456980350029774 0.011455807245425432 0.3272618374430106 -0.1971118240877702
Ni 3.2466608659408154 8.343315961218146 7.897312549483036 -0.4258225060277441 -0.5433442890960126 0.4612114270499992
Ni 5.668910695752335 7.829786910241054 3.4903193882772454 -0.6259885435608058 -0.0745049131871104 0.5439816655696954
Ni 3.3135443802771074 8.269462603717859 3.617905290231619 -0.8873890024243168 -0.05172288229558834 -0.15912917419640982
Ni 3.2872568298663256 4.389787091604044 9.227084879735823 0.958290257420569 0.25927775609355347 -0.09445538816710829
Ni 7.3661799230102 6.200453418803594 11.374574498676665 -0.6734387666229693 -0.8275139233352393 -0.4422575116553158
Ni 0.6515571269930304 9.092902358477202 0.2311505766945162 -0.5528074913914415 -0.1490224247797111 0.23672429627306973
Ni 4.754422305906178 0.39808686415089956 1.637817814070896 -0.8284312929431863 -0.41807062999646716 -0.186076392209215
Ni 5.921281971711059 5.658352507527136 0.4613685434069599 0.7259178103582917 -0.13020503496289187 -0.045510582837289364
Ni 7.637122458496212 8.804063064415256 11.294993279097477 0.8831621088271628 -0.28795558364422025 -0.12302085850962684
Ni 0.2189573981632341 4.917858383092333 5.710032770419902 -0.758953400657022 -1.0599946138406064 0.8130506967220578
Ni 7.754116896845121 8.818650271656546 2.624018245730441 1.152430400474525 0.16545434508348925 -0.3132133297697444
P 8.492092884394866 1.7077734554069566 3.5708089358042567 -0.22000364108427917 -0.1631519222025577 -0.42038513706225666
P 1.7685325011049517 3.19034453317574 1.4968848872911236 -0.3615683240343644 0.2376799753181197 0.33876032500091335
P 4.711685925628369 1.1707357979386643 8.085867941432227 0.18112059086583646 -1.2067819786422118 -0.2127580152654594
P 8.456182453744765 1.578700953355798 12.287406314186295 0.32987484958582547 0.6890839293593939 -0.1792719676928719
P 6.368521069189049 7.735374763743489 1.428781875234783 -0.41696248453395285 -0.4822728757059888 -1.304660019337624
P 1.754916575233613 3.1723308611015715 6.024923089892354 -0.3274857805283586 -0.4562024038711821 -0.9767793173636918
P 7.0042606992055205 4.032796221417258 6.004034245096213 -0.08893265857666618 -0.4746768085262858 -0.12060093621422457
P 2.1714883627900274 8.401547876685067 10.095978803939634 1.839515040015703 1.0806853094207387 -0.5736074588559282
