# total energy = -381177.5476585031 ev
CRYSTAL
PRIMVEC
9.14298258664037 0.00000000000000 0.00000000000000

0.00000000000000 9.14298258664037 0.00000000000000

0.00000000000000 0.00000000000000 13.38167920240220

PRIMCOORD
 96 1
Ni 6.167097137487011 7.964698929882637 12.156439151800134 -2.3474611521180795 -0.5261754906262099 0.3878547685347191
Ni 2.630737788166273 5.012128157166615 3.3630029150351137 1.2100081988889935 -1.3602727236059218 -0.7350704233918373
Ni 0.5126077148258762 3.4080924476091345 7.286150653889554 0.5845508452413095 -0.21516405360379076 -0.40285149905386747
Ni 1.5628648592896541 0.7922348634870297 3.7800298906427208 0.8921833384891666 0.8434318801170764 -2.8765481599641296
Ni 3.3573946095600333 7.702112472034093 11.127668930546308 -0.235373181561814 -0.5953463931949166 -1.0260707073996522
Ni 1.5704261058300701 7.43977287471347 3.9276963726559617 0.28821063707781974 -0.7006855181540642 -0.08751186696973962
Ni 8.560574529373 6.5384668013063765 1.4895948260059957 1.1114297896924472 0.56695678630863 0.5901941595700158
Ni 5.522571728031045 4.868245041318337 13.423296294953653 -0.7255455146205375 1.6259427563790645 -1.0288657536462862
Ni 4.283523880497029 7.267948804297463 3.9177140643454096 -0.7097262882000939 0.6320072389510599 -0.3339716453630184
Ni 2.9356562550621286 8.8829652358562 5.187421075149048 1.595767775457581 -1.164089324869692 0.5650618832787623
Ni 0.5602929401360811 9.012649299857724 5.4576775810299445 -2.173553019840283 -0.9985825292817124 0.16417393570916888
Ni 5.462612048693623 7.354386561000114 9.86540247891388 -0.2448579811237976 0.15137112751754575 0.08690482951336
Ni 0.8306390472456308 7.832820550077366 0.007938851718310986 0.5162350915840465 0.16526588322176697 -0.8237485427555361
Ni 2.071168972245429 1.8733696885025521 8.752220585882867 0.007592467635277248 0.07277404653893273 -0.5693150021281614
Ni 9.084750859975887 2.8560483062986437 11.30145691360667 0.5927840317843791 -1.160548658706285 1.4198343852196385
Ni 6.990276425298148 1.3822635256586546 12.551105135069294 -0.46646804746324827 0.6020011795072728 -0.24758926401203163
Ni 8.226151657899246 8.56138825481689 11.623822019738826 2.593593886189243 0.886507885370944 -1.9521504415259476
Ni 4.491407873954632 2.843174986916654 10.508859988012022 -0.7068769916767568 0.7921270591955132 -3.728827206059191
Ni 1.4871335351127912 9.286344481462745 10.175830507073648 -0.7333809515045563 -1.0595930075268138 0.8660295629119343
Ni 4.222311612554967 1.9308059046656636 6.9988991721086276 0.3083431461616367 -0.7423831550031667 0.3003030494659796
Ni 3.272264299357116 2.5211682856991087 4.0110776303036415 1.5141877005912436 -0.45972790052593726 -0.10122304590824503
Ni 6.642577943211717 3.393911681727411 10.98848622200931 0.36188919770889283 -0.4068925018924605 0.17063588928442872
Ni 2.719342431725126 8.376206286945566 1.7809807644804854 0.5922235312952189 -0.05385946902261692 0.8273478300710202
Ni 7.222553896107421 4.745198782623152 1.9124559387568185 0.14976573070363883 -1.388215472762777 -0.1838379897969995
P 2.5230334541322947 5.8952671243151755 5.172272981717172 -0.29278051583668935 0.6943091823140751 2.9206184108104667
Ni 3.085445737615496 3.7398638541533598 6.193844018538199 -0.3215478177773688 1.1530029851485433 -0.9263399297662176
P 8.132052081848506 7.2302340014205395 4.71776434928679 0.9682748794371068 -0.3149141145109351 -0.4892858166887122
Ni 6.078730211473564 7.7552972013274415 5.517319998874075 -0.9748365918150242 -0.42786216216559214 0.7871517174681089
P 6.2532971766442556 6.651318634496647 7.909414971803702 -0.3353353584797644 0.24782220595844415 -1.2490732832112554
P 4.754808057247067 0.6846503025240057 11.9207879204426 0.8037219631219641 -0.27241789301993724 -0.7012938411620245
P 4.024777475305044 6.483307187789654 1.9473153881941148 0.36234274030654373 -1.3035374756974067 -1.1742127864569392
Ni 0.9745962212522855 5.319240939866219 12.813666906865047 0.5784743000299263 0.3742765156296522 -1.0117535194460316
Ni 7.672288063068147 7.814525442063614 9.217996115667244 -1.4733639817066624 1.1300859713410538 0.7386892510913472
Ni 1.18235221295467 3.498287970125705 4.801694185885407 -1.2153663778771135 0.43542789032799206 -0.5707900440117911
Ni 3.3287587883211187 4.071927836138085 0.9141199634027313 0.07551355695728285 1.8731625528668192 -0.029213902559794846
Ni 1.4758419517060033 7.6628707910770615 6.976378177576158 0.5631780359924882 -1.1363617770474366 -1.1892542541710938
Ni 5.956488535239753 2.3216044063307173 8.56646901020082 0.12353945001725819 0.07269665633377803 0.36748777484259293
Ni 7.925164673485106 6.334989725421302 12.709490849783844 -1.2549593096783869 0.1847602445009528 -0.9149813102202887
Ni 3.0192231152548756 7.6262531461020115 8.758175410395289 -0.1394152407072502 -0.2081590830408673 0.5801689141235298
Ni 3.280218694145703 6.828500492666806 13.181301662326781 0.16681394443517722 -0.9120283982395518 1.8683718163463952
Ni 4.811576835686538 5.321069536369343 5.20559366719709 -0.8397176644902828 -0.71579332032978 -2.2808870637422722
Ni 5.3660530103461825 0.4431375050757085 0.8899514034209469 0.40129521031034115 -0.7311500052915085 -0.4346622158065611
Ni 8.152376931980724 2.117030172543768 1.2725321924009638 0.026490847201676958 0.543970866936418 -0.7548249803109451
Ni 0.533315655925499 7.138283026260971 9.03314146656998 2.6772987207080665 -0.3053730077897192 0.8119901166680275
Ni 6.307789352437338 2.1075763286226192 2.9879148002266454 -0.6236537247800421 -0.3909706884558815 1.6215253440376591
Ni 7.276616351722269 3.1168427395741274 6.777004472244092 0.17173606432714295 0.2800553549605371 -0.30004285382605744
Ni 0.287456284589277 5.480724297057063 3.432560897417431 -1.0822814502632652 -0.6021557028072663 -0.0008224959012953576
Ni 8.602604819997294 1.7325586147795216 3.4421957723923895 0.9553293750200321 1.065571593707752 -0.4886240147349971
Ni 7.010125840339556 0.8295876042563347 6.78397599641225 -0.5518222446600367 0.4235303675594577 1.9089659357186735
Ni 0.03889790481444461 5.464751506602278 5.907034142812776 1.0581781294571582 0.7369722684002404 -1.4455469594943942
Ni 5.1363447176238 4.376608585488534 7.410827106367274 -1.2069598989809731 -0.9846985722107686 -0.8434979574683215
Ni 1.6582444528925797 4.160313048116563 10.103475686339802 0.2904364410845449 0.14114379336258273 -0.36371416673277357
Ni 1.5090218352551805 3.084558868311481 13.311211557996442 -0.7923864835044869 -1.102275891107321 -0.027566853874675105
Ni 4.588588635113134 2.7621498758632486 12.632385335334886 -0.41391007086087434 -0.01971341926852734 0.7722894556442957
Ni 4.96601095335784 4.331414822913835 2.6384526368129517 0.0535499082019981 0.33641393625592386 0.9034581400720375
Ni 7.7525725925377875 8.662646786177358 0.4309755097334336 0.46931734398658526 0.5346261924967244 1.9448204835234375
P 8.824276431088451 2.034615328147989 5.5903971152266525 -0.20240443994527724 0.4110304353202341 0.8229491867826925
Ni 1.890147061418711 1.5870114761134009 6.041346384563705 0.038498156075198214 1.459172777807945 1.3464571578790683
P 6.193026635901303 5.61313296984824 11.231457325168849 0.05274875245694142 0.46600910554895875 1.1013194407313227
Ni 6.356119158014894 8.631935507907396 3.0171266293640446 -0.7376983479329876 0.042422687940585 -0.546516259066091
P 4.284611895416387 0.4257384093484877 2.850337599419389 0.08374031574244933 0.3348730741313652 0.5989204836994202
P 2.9122776487696935 0.10708718271417417 7.315416426623797 0.5894863348697138 0.5735166989143349 1.3403039937934789
P 3.112362678141475 3.68970545207268 8.393524010128399 0.6575835447582674 0.784848523256229 0.5903551106279123
Ni 6.282152429463546 0.6625517137837574 10.185197492660897 1.089575155711201 -0.3514944847381301 0.7849539384858417
Ni 8.835915447830832 8.482036309563844 2.756692429599676 0.09341254872489073 0.2092530874359945 0.332789195019143
Ni 1.7368923884919245 6.170973762073633 1.6333810262396082 0.32728163493735246 0.18063825191277924 -0.8461001709778591
Ni 5.063264858376467 0.7601777381907703 4.96247536201905 0.6045010631109912 0.7054137768676689 -0.463810298125427
Ni 8.356046010498629 3.036265634663988 9.203999123734086 -0.6647934322431455 0.47354526602500385 -1.3748501071994645
Ni 6.517072222219831 6.186260828839746 3.6882983470635264 0.5098890947613606 0.08869380309298273 -0.5556691292099527
Ni 6.871225649962289 5.241443301640827 6.056119615712442 0.4981460952928195 1.9402919995254648 0.7966339459269313
Ni 8.618632468347174 5.314888880188786 10.612514895089832 -0.37260195614070674 -0.1413440822988469 -0.20015935266484236
Ni 0.1805473900341574 0.25610774043797807 7.87072918418362 0.05705946401715334 1.4984885446884322 1.2251445403097998
Ni 7.994148476565443 7.760408128553672 6.904210787983883 0.41282660798870835 -1.2004925460890743 -0.6543701800272924
Ni 4.04101541225278 5.544962892211793 9.470321404238511 -1.4386929126870383 -1.1707122295028483 -0.19703546232388003
Ni 6.399374608296283 6.91770857307169 1.2204784500447965 -2.750799618110695 0.37007276196094974 -0.08190917607098151
Ni 6.302806426966326 4.830493666511352 9.161485169334714 1.9749191026810313 0.46124562272204433 1.2665709257753865
Ni 1.5950115858145664 2.834480010544301 2.47800609383938 -1.2794174427207514 1.5320388698400518 -0.9637556514105144
Ni 7.599802497684329 4.0032000365681855 4.149324097431042 -0.19695832922904144 -1.188228898230373 0.6452684748363403
Ni 7.614687273219754 3.9134342342298494 13.018727547321827 1.4661453524710362 -0.04388564563935668 0.09633974967401472
Ni 7.580510804576376 0.30934184183691144 4.784579436914422 -0.6886879794725558 -0.7832539250755994 -0.8927284123593593
Ni 3.4095278958640867 1.8418538277712173 1.3078807914028454 0.07039577611474326 -0.9641991667058363 0.6826525719117533
Ni 3.420188613477297 4.898087736249314 11.77907626294178 0.15741244861561923 -0.38839341464700855 0.10039823601410451
Ni 4.014473334009942 6.52423117752956 6.877701624478101 0.003739669548090334 1.6580946585212604 0.6129859606535508
Ni 8.475691079698004 5.4828363260181705 8.050056900350194 -0.8003479044434088 -1.043915191780241 0.7933904992889691
Ni 2.7292077098594776 1.8649032866930901 11.602933047585395 -0.7070924501216725 1.14333486593116 -1.796414095061171
Ni 5.89976547171286 2.8002121120757657 0.9474936781812395 0.4684501108902835 0.1730216159077859 0.5125715266895302
Ni 2.9405934656205623 9.176902980750802 12.876814744205664 0.13150678449345093 -0.6547527601776917 1.781172338410752
Ni 4.032613011320928 0.4558279648073861 9.657557800281095 -1.1424205816470068 1.0270091600535216 1.1547605912695984
P 8.523710023870029 0.9874146827391818 9.891349348994952 -0.20555481264880082 -0.35772221081539685 -0.28919716936080514
Ni 1.0678637858941034 0.8837753187316472 1.2699492998403017 -0.5697780578075091 -0.41483001157198235 -0.8189166685845315
P 0.9875426844944004 0.8695342091653206 12.292316672157737 -1.351773170775343 -0.0022029211885897545 1.0532971472157733
Ni 1.9282732985088376 5.440824321358906 7.542249251345018 -0.10035041349530459 -0.4417515185531746 0.7366071717513378
P 1.2941343171906141 6.6533666625801455 11.029433983503756 0.45390718007910213 -0.15943256436944153 0.3345046350483529
P 0.17410524455365306 4.3346240097768165 1.242034859921869 -0.09542135162480339 -0.5238974932253108 0.6085603207820294
P 5.19169633377335 3.2593269790975166 4.8483828261014095 0.6888224481678912 -1.1230090098896142 0.0008389509615275874
Ni 5.149144893145666 8.896533421909378 7.833701933591871 0.6720696541895844 -0.8867657670180211 -0.9482218174409736
