# total energy = -340856.9232341925 ev
CRYSTAL
PRIMVEC
9.44136423145280 0.00000000000000 0.00000000000000

0.00000000000000 9.44136423145280 0.00000000000000

0.00000000000000 0.00000000000000 13.81839090045475

PRIMCOORD
 96 1
Ni 2.725476419969824 7.827910735321992 7.681105072361716 -0.8199229983618589 -1.2246092366316201 -0.19721826775864745
Ni 2.3701223475738886 0.10653918803170874 9.283153545193214 -0.8812867461813209 0.25317987072593173 0.018555651515000302
Ni 7.139437003636356 4.700147220641546 9.672693853859368 -0.13028139672678207 -0.16949226259828876 -0.5749755428480485
Ni 7.187767347878738 7.933776754073669 1.9519303304349174 0.15440374369628246 -0.2106186003249534 -0.6227569239973855
Ni 2.9794680044215873 5.9561885718096645 5.0373143928393755 0.16267806788993275 1.726309624934601 0.4946691924878126
Ni 9.322167151069044 6.301072171112262 13.120203335190459 -0.15529591649324867 -1.5117618647585704 0.6086778201965001
Ni 2.437524247856438 0.8237250529221727 0.022458173441952587 -0.4955775632346949 -0.027098655989004943 -1.2185072374989403
Ni 5.045597301806721 0.31396313097014805 5.325760348309644 0.2091304458152011 0.17085289039124124 -0.1837194619412642
Ni 7.513050674736094 0.9524070728256648 5.844267806083454 0.11300949702021183 0.15289990545724635 -1.0076027305024517
Ni 5.010352688589919 3.6092919806015233 12.439992685606974 0.48888395326460327 2.1502901926576 0.1196311161017875
Ni 9.218642590682693 0.3234016629371553 2.113785528211048 0.7974698115646653 -1.0998870791601703 0.22239425280364278
Ni 7.642878876274871 1.5988667330366773 1.0968844953307406 1.3711932271731675 1.4200002213735416 1.3231089700714311
Ni 0.7848124696451694 2.3182042848685045 1.189364547669671 -0.6869892516138942 -0.3747238875797159 1.9843871900724666
Ni 7.792958804400856 5.382229148644415 4.152150605374738 1.023364878432715 -1.259618405716953 -1.8658199964588191
Ni 6.876976515339034 2.5169544463544185 8.868352866138217 -0.2971313366062173 -0.21037820217937314 -0.3118796985599855
Ni 6.660769271121304 1.2117235867856724 3.5226117583989662 0.018401899545955402 -2.1940395698294086 0.49219527702602334
Ni 8.954180533137592 3.84793190657739 -0.17667908398339063 -0.2965834345225473 0.35487265718174366 1.5668084121107533
Ni 9.346063244305508 3.8357808706250665 5.612104656069743 -0.5846331205424705 0.3832933744162818 0.3129695891900545
Ni -0.20826988918655764 1.4990620702145978 12.885967805696144 0.7255627410117181 -0.599883876053954 -0.6858240276611995
Ni 3.8277462695408175 2.453225236814258 5.287689934735009 0.511783483570596 -0.04041388504067234 -0.2197221052881184
Ni 1.9395300424630586 7.032239752507617 1.6311231544283749 0.4354304614311533 0.2163886700395112 -0.7211910943065837
Ni 2.828151257562305 2.4229184571662707 8.241979708637825 0.2993823374239231 -0.197357364439673 0.11523890057136282
Ni 5.301647103692522 5.588334132979481 10.975118739935471 -0.8690205272194582 -0.7225632920637621 -0.36476009149878474
Ni 2.0173929744745704 1.3660898943385056 2.9933817431029697 0.30366528106999313 1.6092516688766285 -0.08107305332293133
P 4.04071512577747 3.9759096006984085 10.161478008303645 1.4272389052138257 -0.21387027449303164 -0.09676423880594304
P 5.907442807534724 8.456733926878039 9.521686783751626 0.09180740902129995 1.0880924005180874 0.3223114354162707
P 5.35648254799019 8.932758077367723 2.996062146449407 0.603015222594084 0.47914590004123286 -0.8676187617759251
P 0.6336297901600311 0.17923674959293576 10.634744336259004 0.5112911173152098 -0.3039483595280507 -0.17092848082418305
P 3.349739432532108 8.30007336778176 5.3267686860250345 -0.6494076938156944 -0.06667744672289162 0.8521476627235196
P 4.6984288923250555 5.723836594508428 1.0900517799315976 -0.9211365311884071 -0.22061530652634906 0.7806997911951781
P 5.139038485039161 2.048889366033974 7.323650296392049 -0.2631009864943856 0.6421898359110165 -1.8784094030880554
P 0.9678909104028297 5.675326864342895 4.385487316980425 -1.2221126954620114 0.4653524458015663 0.8147977613201516
Ni 3.0575008809918724 6.782119127450146 11.517104038503875 -1.6284927764944277 0.22359007288395688 -1.2077592549538168
Ni 3.602531963708078 9.524826037406754 1.8859059252148733 0.38927041793532313 -0.31969996593535266 -0.39352585077756747
Ni 3.5093551386781754 5.651308033369537 8.70553087264995 -1.418939641319511 1.1558268277505837 0.0220279263343169
Ni 2.3295433634844653 0.36661856423332284 6.668396005264495 1.5256823314944046 -0.3385489803210556 0.7961228106184676
Ni 7.222020617836027 4.327336065513795 6.923290184150634 0.48780974636381796 0.5309875673028727 -0.06899812443626827
Ni 6.729455196959033 1.7980417559195259 12.808432489028492 0.9894270880346895 1.934281788775643 -1.2606998117065902
Ni 0.2834439206236934 7.228374656061291 10.092773199737165 1.8497757985117629 -1.2891423833179991 -1.611472073566715
Ni 1.6927044535729228 8.645060822092496 3.620598014442167 -0.8024634081245148 0.026761070143928103 1.0462554098776433
Ni 3.0249376152579446 4.328969421550898 6.6341125229412015 -1.0620982904471707 -0.4971050556228148 0.6691126284437895
Ni 2.9381337111820574 4.799838587091109 12.87646035176919 0.6956171024922214 0.5568826899020797 -0.400023285576453
Ni 6.138576848831415 9.484039343301053 11.720317132930475 1.1013574930581096 -1.3099379799071118 -0.5176312006006246
Ni 0.4907016955491096 3.363618238165299 11.569820840635497 1.1831255155655367 1.5417990345506092 -0.24942014657318337
Ni 4.205835147354931 9.212411290194323 10.697258442203932 -2.201702485691305 -0.5810055510922123 1.3191792959997215
Ni 0.9815714473841176 8.41686304511684 13.285719894071725 2.131526281786536 0.8627197818124109 0.3270978010613206
Ni 3.512508554379866 2.7965698937235146 0.45345645722096445 0.6770964179802146 0.9699882625837876 1.0470624791599707
Ni -0.03904570651470934 4.39159399145903 8.345161547497314 0.3359300546409698 -1.2452269128819717 -0.5753653220872994
Ni 5.394285770952975 1.609979218907606 0.9776400632578179 -1.629439199568097 -1.5542655424487362 0.2050681028203694
Ni 3.7112587158657804 7.579593410860398 3.241117479518983 0.6171588610843177 -1.269667048202207 0.426644230598091
Ni 4.9645620713647665 7.528695015507656 12.155941685253884 1.6129239755218931 -0.7091992120520302 0.39410949119517935
Ni 5.511556957871247 6.604772539005349 8.620465123755745 1.60040476000896 -0.27946631522628645 -0.4256553843222605
Ni 7.8783842692778 9.242444270275397 13.616324373891572 -0.10807606427433644 -1.4891726666041452 0.503511730480107
Ni 5.14425011817489 4.311738931564114 7.937228516889652 -0.19474178119369687 -1.8803035347869745 0.7055605868581785
Ni 8.248287484177645 6.426642317317318 5.945611411298874 1.8947377079344334 0.015979149037075705 1.2138638251896576
Ni 4.859942312710764 8.500570181677293 7.365146981098852 0.6737904935354331 0.15416411688165063 -0.5638313533057708
P 1.3119908764621917 5.489530254781292 11.538231923705204 -0.8088613412310586 0.8044601268395694 -0.336084320830647
P 9.292549591020526 7.8249083814503235 1.1168850816255371 -0.012718476007932935 -0.6327189203061039 -0.7991567123487849
P 0.8716881280903164 2.5990093441490165 7.2690263386564125 0.2883700454738195 0.1976900651887434 -0.06514635479034588
P -0.37818140318500204 4.1185874991533575 2.083924380961623 1.3974997262781803 -0.7403635534699766 0.6587186868039752
P 1.6381050433846636 3.103999600545249 13.33764928641436 0.1664007681571586 -0.6170778713347372 -1.1435739785251595
P 7.954217307948403 3.033916352779825 10.87467300847224 -1.2175674992934904 -0.41276978660884395 0.15335884737153588
P 6.165418647753294 6.5128042086156155 5.950033746372742 -0.33425935180676625 1.029587719413975 0.07701919496853186
P 3.9646554943618355 2.6073366275289307 2.951483800410174 -0.412935879873063 0.4336715697585176 -0.2570267552758477
Ni 9.295627475807208 6.97668676451735 3.025910075788705 -0.45997395509847233 0.02196544852749765 1.2113004353378558
Ni 7.951753111846183 0.5046739706896256 10.180160580131508 -0.35894888413364634 0.26169485017547833 -0.5239419733100009
Ni 7.302612104152296 6.8596421703441095 10.424884521311474 -0.42406181458289544 1.2358179608632458 0.28201736378291425
Ni 4.749903210904752 0.9197805499504156 8.957882492109547 0.3278861012905708 0.3431797942248477 0.0023361043323443637
Ni 5.524595482074945 8.64866742328425 0.23643914393974624 1.110503421223436 0.32780099777593225 1.5638917526845904
Ni 3.6216790506632557 5.0813800727929745 2.9855463548070618 -1.8657276938553289 -1.2958506485761103 -2.4504826846876444
Ni 6.983182423208258 8.253980626896565 4.22486232898253 0.5441950671320821 -0.8935606784526675 2.1144960657771263
Ni 6.242800070181613 3.0945204707114233 2.540649438529669 -0.8232710888984853 2.5303614605921583 -0.17631185662328344
Ni 5.567629220902211 5.459856046546518 3.702195950200951 1.7427315179360503 0.9483143771547796 0.5161173350592596
Ni 0.2720283669562848 2.385936632904225 9.561663408793843 0.15771223924422517 -1.9062243684177946 -1.3528190955413542
Ni 7.370259479908629 8.123368792114553 7.214306079004136 -0.5183027727463525 0.5589503710643857 0.7592619330363762
Ni 2.7257785436298665 2.2249424875592148 10.967657229668864 0.49515950186066987 -0.5619390213790645 -0.04878513982350308
Ni 8.78033669087641 2.3426196531456682 3.486504204478168 0.5612597359238527 0.48063713987477874 0.22794089365348486
Ni 8.787899223741842 8.10980155150578 11.81013660878816 -1.0727367439976234 2.1475044023823466 -0.6074912560875667
Ni 1.4357293979782426 1.756074891266783 5.308639378149625 -1.9523077930394184 0.47385662661783556 -0.781097797964545
Ni 1.8797001164103182 3.7938234473367 4.285359759496676 1.0823647540056909 -0.3310120485140622 -1.0401472400973764
Ni 0.9508114822460668 6.355586609021133 7.13458697475624 0.30488115575496527 -1.2661932307209933 0.7002749129792069
Ni 7.44314681289382 5.293980715818951 1.5637165334636376 -1.170987594651422 0.35051540865431247 -0.5660491868926961
Ni -0.035319199995375805 8.95287762485366 8.259625618657168 1.3183688842832844 -0.08198245251107816 0.7880086661517655
Ni 2.0435361124326006 4.30713154574847 9.793300674811793 -2.4246636667420116 0.0009909031583595837 0.006441384749969551
Ni 6.722175905024889 3.3266080898101236 4.763489334242278 -0.36977579954582124 -0.15623128382332446 1.201453110230131
Ni 0.49468972786166715 8.3005359946362 6.04410938929127 -0.4731642285365012 1.0217869924226337 -1.486813679453665
Ni 2.001418185949837 4.549160921535435 1.162294267729886 -1.296337872625174 0.5417070106029057 1.5017430470699877
Ni 7.2137405412779945 4.722419399205285 12.461024268891666 -0.31766210956971747 0.7481794499699695 -0.8683970347028465
P 8.893944628416671 -0.034714952675291316 4.206331763121126 0.5368265425821528 0.39728377515810287 0.8743259985927716
P 6.546915858107259 3.4127038915577863 0.4083418416851565 0.24723959398209683 1.865180048881975 -0.24329397907078745
P 7.174747706403793 7.159509344300412 12.877897327427265 -1.0642888703405864 -0.6117955398898755 0.09168759561398403
P 8.428390951020326 6.163398195776762 8.531571845743379 -0.389887996914664 2.09766022516671 -0.5630389393114626
P 4.543722695654675 1.6978594385223933 12.175688298846957 -0.9398420780177106 -3.242572205777003 0.03532232945037787
P 3.50741965898103 8.351113383600147 -0.17170631736638287 -2.0797918295267213 -0.5561931200342228 -0.1503488569006185
P 8.003623967729686 1.036359684859903 7.865760220970222 0.49961213831538465 -0.5581530719740709 0.5054986790031487
P 4.92822225988031 4.638589524907939 5.674922773947588 0.3121517212744495 -0.6289602245946201 -0.17226494024741945
