# total energy = -381165.74044788384 ev
CRYSTAL
PRIMVEC
9.29279332874857 0.00000000000000 0.00000000000000
0.00000000000000 9.29279332874857 0.00000000000000
0.00000000000000 0.00000000000000 13.60094236656739
PRIMCOORD
 96 1
Ni 7.89632792029514 4.840374319669882 0.5116091491317163 -0.06476197486773362 0.2995664284102712 1.6202192236317257
Ni 4.461860270612349 7.155181205609301 6.327606868580843 0.22690499618980275 1.0342244468550383 0.34999013227846176
Ni 6.653426134294058 9.074784186061173 3.276643497856987 -1.3957053533819188 0.522140658435204 1.1729529459079089
Ni 6.218709272492247 9.466103704027704 10.045724018111725 1.4720714881474841 -0.9066553068530966 1.3322309869773572
Ni 5.708274732409947 5.3165370387533555 3.1093109601184947 0.43083872829541286 0.41630351079371525 0.46678943535840894
Ni 3.663293387284497 5.550129979221763 2.2603408962278624 -1.3681459557064115 1.2397941719021743 -0.9164581518761312
Ni 5.462229449170816 0.5750203814933457 5.850105058009861 -1.3714889040367155 0.30509147199355846 -1.9215609987748647
Ni 6.447497838921503 3.2728938558361014 7.232273287991124 0.47831003440349884 -0.22383047102953713 1.6816937859974392
Ni 1.2000805953387736 8.777117437082214 12.970348149354171 -0.2735594628235482 0.09024520674050264 2.8258981990177463
Ni 1.5576951526863394 -0.26357706672513637 3.565867744293257 0.7498007876234764 0.28030089531243985 -0.525115681903128
Ni 4.071247004922367 0.4143052417302499 9.49227406799107 -2.2677101600406817 0.04335265595402211 1.655502472314052
Ni 3.322080609780458 5.36182081959047 5.432719255362825 0.31038074541695576 -0.630737628210017 -0.3145945263879872
Ni 6.985485510582305 1.8287566349842672 4.192789304599115 0.5036256303501521 1.4459305680860584 0.2541530332724784
Ni 0.5559246209265106 4.9167889574338055 12.640253269529904 1.5624622193269155 -2.150058279152452 -0.22153910389219908
Ni 3.268145238555624 0.9216090398129543 6.875861218072313 -1.185037644986585 -1.4926649960281195 -0.5940988939410607
Ni 5.543448460973891 9.0681026678133 7.936666076637793 -0.11467968563378315 0.411076200956505 -0.9370128360990314
Ni 1.803870535029046 6.358212682696795 3.7873456703809256 -0.5924924686858892 0.0845188457796867 -0.3886857490764467
Ni 8.915700860768627 9.047249640068895 4.8937818602459275 -0.7857931465576855 -0.7590104791472025 0.06579375856635766
Ni 3.9859484569429133 3.617517088412421 3.3469063065804483 0.6830343807312044 -0.043667101870647373 1.069440589744855
Ni 4.749091212925992 5.330141687870026 13.420701994126354 1.547772992745857 3.0956529433832234 -0.7958942395474293
Ni 4.130841687152701 3.6018215608454422 0.7941425845270005 -0.3145227926097873 -2.632647914767911 2.242875103274873
Ni 3.7800387471565826 0.35232695806656494 1.9511771036101444 -0.17072279257128015 0.09113557976525596 -0.6672879165302249
Ni 4.757519776279011 7.05820161668746 8.795375916989615 0.3495694998012754 -1.284819330462613 0.6685027627739325
Ni 8.132457793283256 3.375616390901455 9.679532212721343 -0.6047736000460875 1.6220117967557743 -1.425225731438539
P 1.3137314551044033 4.392127151096299 8.848841072882957 -0.4008588941038709 0.9445556814432958 0.09066172545263096
Ni 5.041442484244611 4.837149720459852 11.04471321689299 -0.4827027641545558 -1.418005559541016 -0.08421134184159691
P 1.4379575134320353 0.8106196359947387 5.7385636622807645 0.05795266525538406 -0.28964634108308185 -0.4999453532850873
Ni 8.754796148026038 1.2460706284524365 0.06983162312304185 -0.3273757373130555 0.4673108550795178 -0.5288255266545473
P 4.982219513738777 0.38332678661048675 12.061560376198507 0.8879186496755418 -0.05733405783477868 -0.8922910677116246
P 2.907714964894977 4.188689324277888 12.617988666511714 -0.20573710386293598 -0.1051113252190577 -0.8456175749144856
P 1.2321779027492792 0.5344350368539008 1.3991563850701865 1.1575085863283807 0.888550883942902 -0.15596491753581526
Ni 0.872025483602695 4.127421939287308 3.7164165683913 0.6429976765242926 2.1781426960934938 -1.3220527608927748
Ni 2.8213477457075884 8.271115559314568 8.23853967305877 -0.7034893061514466 2.417428582446153 0.7972906056743236
Ni 7.599274495661606 1.044091770152685 6.361065570182327 1.0430667277370167 1.1639988220384148 1.6462115339304295
Ni 2.0631208772810115 7.805202791034161 5.875783833217578 -0.22588221135224323 0.8121744647646916 -0.5736737933174895
Ni 7.146111439531521 -0.2827796944127649 12.378843282158599 -0.2524447923321201 -0.30999559416339517 -1.1856439111120163
Ni 7.625173510066087 5.051525164771652 11.86233404321867 -1.828003696941994 1.6670819496215354 -1.7804904818523788
Ni 1.8350013919558537 2.7510477658116774 0.3817971928641726 -1.3103591266049304 0.03794459756457336 -0.7493485305774062
Ni 8.697106488383762 5.4814376525343125 7.705872125454864 0.04755126741640198 -0.612376609204326 1.2536483041764475
Ni 2.148149934260203 2.50314392395005 2.582519245599608 -0.10250165551035251 -1.6398159148167308 0.29948749554321974
Ni 1.2579189396708488 6.977558758057359 11.49986864786639 0.5030041947160693 0.877469686428076 -1.6759340006955266
Ni 9.22301352899834 5.556653519986725 10.265501363059812 0.4233894711062192 -1.2538992438449887 -0.3631097003795553
Ni 5.320105471308548 7.618268964783514 1.9467844003058752 -3.4573642207533553 -0.66605430123344 -0.7018013769260623
Ni 2.5449150289906473 6.286147072109514 13.243508873616209 -0.5063885378072698 -1.2243531547567559 0.002148670911886622
Ni 5.587254687706121 6.966593262184634 11.370904194330704 1.4048800779026513 1.6163008624139263 0.7470653909701843
Ni 1.7181073473939683 2.6133843286433995 11.447980478964237 -0.8824938791155447 0.3941220896006696 0.03364699863048399
Ni 0.08648337910129468 7.4817578339611845 9.112454381501232 2.4608123487484264 1.1384919360165617 0.6273573988838743
Ni 2.3800237080028026 7.543396930676264 1.5082221807141187 0.13050482559149781 0.8614913087219485 1.1928602263547972
Ni 5.667312100370136 4.162242035079771 5.207582756626773 1.5695980590407483 1.415188658917511 -1.1230879427566658
Ni 2.0122985917488587 3.1268018553148043 7.2531105179872375 4.7529076225016915 0.2885153128024322 -0.20173595312334291
Ni 9.233096209525382 3.1027521067397066 1.7887009795522337 0.054416884187983704 -0.011178642324638813 0.07695260339665456
Ni 2.7085889940807566 5.251784856345595 10.429188338060278 -0.5466697539248199 0.4478949124467512 0.39300623082867153
Ni 6.289111473112394 5.817418587516024 7.123248380636887 -0.6354939119480797 -0.9402007469087098 1.0763630278963012
Ni 4.035952976681168 4.659796763908172 7.865152457961392 0.9925689760977808 -0.16642647918877143 0.057012412829301806
Ni 9.297160725242817 9.19056309544956 11.073614732752114 0.420581826454095 0.04186090189984403 -0.9477477060180324
Ni 3.4095722569344566 7.681190466948116 10.716495481277443 -0.28499572968494785 -0.890830166895382 -0.2819204331937338
P 5.762293738772794 7.40953424589099 4.487440542213073 0.2171926539980453 -0.6042573225313013 -0.09288495835619485
Ni 5.825652002213682 1.2516834754923747 0.3896672593511319 -0.5024190116365606 -0.18805228498866322 0.06733307802901951
P 7.715629558222967 1.2279589746762134 8.686214405576624 -0.18567658566763506 0.8202035057167552 -0.15448756165934038
Ni 7.778086420731945 1.7155146581155865 11.06291129364516 -0.6908711031668037 -1.6622996977415436 0.6253966756130778
P 8.356163201879985 3.1607855997271437 12.377374091567516 1.157209567030723 0.24997087687033076 1.04267797693903
P 9.036785955024241 7.118939312470629 3.7575046531381298 1.666907114606568 -0.742496026431947 1.4807492184271402
P 5.9289135192795595 4.759945195281368 9.155936289753837 0.4156854175937421 -0.3930944196671037 -1.3737987831168146
Ni 0.9572227401372224 5.22025440931495 5.956206452650913 -0.027440869819772097 -0.06692890061206538 -0.46307676239351214
Ni 2.2883503039481883 3.1513534147179763 4.942677749765863 0.7279160717352431 -1.0654664355884553 1.1534336449280589
Ni 6.934179999808303 3.027526946494181 1.5491337023918117 -1.178233220470242 -0.5622151578585867 1.4586140770909977
Ni 7.81366852555963 5.868909954152276 5.435942925293544 0.5209862331157865 0.16255414071755878 -0.9530218099327781
Ni 7.109795204047948 8.550856510379553 0.9508571768551736 0.8124017502841492 0.6235279978354552 -0.19714370576697016
Ni 0.2699463471244301 2.025011132726731 4.315429083142446 -0.6547746145545625 0.11585416555785856 0.5190561059726092
Ni 7.278821817970846 7.023390813688111 2.6901028407421 1.1871156105615364 -2.808872868104343 0.08459520754357688
Ni 4.2920437692748905 2.7881631815029224 6.048298032395588 -0.46249852129253893 -0.20313077658834047 -0.1206490158433406
Ni -0.03969881217651435 8.097981530835956 1.815345275964336 0.9682273140286227 -2.030630794421038 -1.0582784024804484
Ni 9.32253005043989 2.9234662492206307 7.4860808413171105 -5.077065624208398 -0.037197949206535935 -0.08282885967177347
Ni 7.272307569998999 7.522460267793846 8.526716621711264 -1.1953814501147542 -0.17518339944579506 0.737591132931162
Ni 0.4034075832472447 0.4924158142372002 7.851429790372193 -0.8145010560153392 -0.5746536407322556 -1.2346702204120477
Ni 2.644951946846494 0.37550690120633484 11.577407713596925 -1.2778025328251477 0.213213100525007 -3.248451033155283
Ni 3.662689355732186 7.87178565368508 4.159413308856331 0.7042495813562387 0.15954363602600907 -1.27310435601853
Ni 8.980369408038376 6.944532171335606 13.111688744757059 -1.8266762363798217 0.9357792208022465 0.8784341072238742
Ni 2.3934703796365615 6.359866799870817 7.624742324465668 -1.251906381784676 -3.5603741833586935 0.22027489246779483
Ni 9.215058898094057 7.6276918569995695 6.852303987532176 -0.16984193262822364 -0.51624614732764 -0.6902398973407081
Ni 8.568243326293004 0.7836435868685206 2.5201051299389485 -0.22434649143400714 2.068224693514412 -0.14862827466508596
Ni 6.923242382314914 8.072621498431998 6.3370464878245 -0.1385778324076194 -0.752525385643491 -1.7488728549470978
Ni 4.47550209090147 2.182031457948305 8.246346548552564 2.5481516946960436 0.4949566418212444 -1.0851757410919247
Ni 0.6191537145431355 5.585284615566275 1.489997154861923 0.551760795294482 0.43707802433690535 0.7771979486895066
Ni 5.321294948826945 2.3840103162480566 10.571889398374832 0.2473331821371676 0.06596113738215736 0.7037065643685753
Ni 3.2033930561478643 3.1091641339873175 9.649256292760883 -1.7381130453274323 -0.006178360896570006 0.6225044416669473
Ni 6.184065739768921 3.4695944076479646 12.917998128634327 -0.29868299736405335 -1.204117030215539 -0.3904140446214631
Ni 3.5693246633310998 8.332559507374286 13.134089951834001 1.5123961559084598 0.12856801358010114 0.902751086702684
P 6.706655253242344 6.600921853208547 -0.0033277492135790707 -0.7310674728800313 0.39015204920932806 -0.18699684714095535
Ni 8.11467138726597 4.691959120870465 3.365008667563559 -1.4204604488394117 -0.12182863797373857 -0.6996290518650919
P 7.891960307532274 3.355553250571611 5.593768006398658 0.5232598596413117 0.760983029492541 -0.22627481880497158
Ni 3.5989036238081233 1.826470607878597 12.8348415694673 1.716316261167315 1.5904700173937512 0.7353337043555529
P 7.778281569387307 7.617655640438091 10.690421762362448 -0.011216951761741973 -0.5911994609060787 0.09173721790499685
P 1.7361260732390669 1.0062236382193293 9.275175835297313 2.579607856322796 0.2601755853174745 2.607976894383792
P 5.328320300419979 2.03130235366388 2.881862414456058 -0.4549250798206553 -0.8871388340867238 -1.2853505203757345
Ni 3.672456081293402 1.1531241117414124 4.150299866650922 0.07348572789397667 0.346321682287939 0.9257362347439476
