# total energy = -340861.3567963945 ev
CRYSTAL
PRIMVEC
9.34239878036771 0.00000000000000 0.00000000000000
0.00000000000000 9.34239878036771 0.00000000000000
0.00000000000000 0.00000000000000 13.67354495920748
PRIMCOORD
 96 1
Ni 2.1330564741905684 6.377971519891528 1.706239646580765 -3.1941385357556475 1.1759811912112714 1.952289538206973
Ni 4.558044223370217 4.542236884747537 5.085820616913745 0.36456031678315276 1.5746921857342042 0.1366659600968872
Ni 2.2983235074265145 0.2440010326310424 4.03581534618257 -0.8154652197008214 -0.2963355801777994 -0.7039708737735554
Ni 7.952978491748418 7.846577912804145 3.7079233100667626 0.054368804558867646 -0.11035534722681639 0.6884529806436144
Ni 0.021339907140618855 9.47328571913971 13.449776833493662 -0.7708645502723112 0.6001101331321472 1.2093296847647301
Ni 5.665099786083226 2.4272766368643754 5.384792323573069 3.361524807754527 0.3561504954529028 2.8425849156448075
Ni 2.8136408780461606 1.9688825016040632 0.2707352407886445 -0.5434952128515801 -1.4530293839143684 1.42824677765305
Ni 2.845993604789862 3.2532287646968645 5.705751365603835 -0.798944853448295 0.8687901563762069 0.0018031146470097977
Ni -0.3455183397679422 3.9146892783866014 4.791196862615529 1.068012856159393 1.0971925630471426 -1.279052860292481
Ni 1.0450594048524238 3.574196214886472 10.715273546467007 -0.29032099855260324 0.12261873797520174 -0.10150843835914776
Ni 9.397332017601652 6.057349738454306 10.061705491210153 0.024493614265990074 -1.6753922692594436 -0.28021502046685287
Ni 2.9495167249304792 6.007302508547864 12.042003469801836 -0.08105402715953783 0.1144328597302997 0.650856510447079
Ni 1.3177266536949515 7.475796792675926 13.371058716176378 -2.74674216021187 -1.4387736453263027 -0.3056542864755639
Ni 6.216525527729266 5.0471187960045745 1.6297085848022337 -0.7048982706838312 1.175824353918433 -2.9331630802446966
Ni 8.684712528558606 2.0268707704166986 6.332163870521121 -0.3351921480336808 0.0031886821406267663 -0.5862840258823323
Ni 8.162724685257757 2.7918170346521998 8.710307898313074 -0.25295721319216435 -0.6491158736068885 0.6356435501520665
Ni 4.255929733783784 1.5783795777923448 4.297499671097897 -4.109737167844961 -0.6904139610247271 -3.88262751184352
Ni 8.678070083073543 1.8273171339034253 11.27234770237503 1.859387353459598 -1.8469074758250323 0.7152410473707359
Ni 4.231387252364291 1.9503938945507036 7.553102339307778 -2.2551791174532063 0.3973501096196641 -2.83805077521988
Ni 7.650779920573565 3.7453769865078534 10.89085552212216 0.5963853759823923 2.4206545455826185 -1.8643470114577183
Ni 2.834950889510897 4.313226665091644 0.6310220444423631 -0.3910138829889911 -0.5302987687659642 0.47395612831017725
Ni 6.071783744466152 1.6287537916537478 2.277985105427947 -1.5138267177073992 -2.125790921964655 0.8975433172494995
Ni 0.7043439922629213 3.3350588350255053 13.268766924186156 -0.6327346040353877 -1.3712508198839803 -1.1927198441221911
Ni 0.5299690545215077 4.659829657350185 1.917427372211547 -0.4883329658571397 -0.6729733969507764 1.2035817265373594
P 6.548619774786258 5.090224623667132 9.45576218187342 1.350523871749274 -1.585615003294295 0.32596265901561283
P 0.32460911720800045 2.187148962739813 1.3326987818726748 0.1648262245811871 -1.7167816308395079 0.5766591011980584
P 2.387627496725689 5.036692679040678 3.9556332749869325 -0.40351252967663404 -0.6864781163054307 1.29373077401963
P 7.868971642519609 5.389685872019027 2.8233270770319736 1.342615929756107 1.0040237549019417 0.5410526648483585
P 7.223150304275717 1.0715170780081162 9.914235727522794 -0.8503242363615355 -0.7467450315162881 -0.8639829647955508
P 3.860540735445078 7.284810135782626 10.466688198787411 0.39308567791635524 -0.37447063391832924 -0.4726106700258764
P 0.9831379861815447 5.672639101844752 8.188648907446929 -1.2285869903324456 -0.7854419338658537 -0.9319336218039111
P 3.5902277710782693 8.690009668628973 2.1884372795223586 0.42890988670381613 -0.5608385892260341 -0.3080914351621468
Ni 6.827023256438671 8.764524640765202 11.837283486800183 1.9035352516214057 1.975160786378192 -1.083167195302328
Ni 4.748694553909842 5.583718150892817 8.573927561898243 0.5054886517008198 0.17024173916980356 1.2295910061169275
Ni 5.3275308933803185 8.771867766153752 3.779381449344043 -0.4880223765952563 0.12380427364287065 0.28271181874677764
Ni 1.8933678928055246 7.4849710282122555 8.909791466835998 0.27693789237747785 2.2167339261031307 0.6213119640207428
Ni 5.108040578013144 8.417333077387731 7.756960953148079 -1.3975663178500575 -0.8158807099716852 -1.7102242893369644
Ni 8.434476379026394 5.4106875843262285 0.3530669979281822 -2.4018646665696246 -0.5998581650223411 -1.1804538822706445
Ni 6.013515203692122 3.695610028562806 3.264298572932098 -0.14945308455922646 -0.47383760045444206 2.2391212926593953
Ni 6.143187697830896 5.345262766137911 11.706536616809395 -0.2791307862637386 0.32220010664938703 0.3478705148322977
Ni 2.5315004369084804 5.359257679410237 9.744123726314198 0.6281652394971504 -0.8566581489993633 0.26633260605780584
Ni 2.7288399249267328 9.063042306847066 10.905773464387348 0.4440272019612288 -0.4454289674047619 -1.047316504152306
Ni 3.1002096161738826 8.461485253706163 13.299723896562108 2.1250345034146045 2.1540141784764066 0.1579320685645151
Ni 3.991586562194689 6.510484103239105 0.8933715481460679 2.9726356844180226 1.8088438361840913 -0.8207033281713092
Ni 0.6206127437961511 8.337231350821027 6.880637414173801 0.44015074972495816 -0.44251256508891534 0.5351974916191622
Ni 8.128802435530245 0.439306680449438 2.1443944092688696 2.203116849540328 -0.27988283393841473 -2.395259759658597
Ni 1.1952384641666027 5.280968378193888 6.049915057558368 0.12674253033558816 -0.04061700219041392 0.36723606384310303
Ni 1.0087735282504784 3.1402044250649555 7.766819986510085 0.41735894864142314 1.5972186489714943 -0.9055826426142082
Ni 5.827386594129671 8.25918495197122 9.86279648020809 0.26869776385587274 -1.142221321152007 0.28141366876064433
Ni 4.713464368362484 1.0867918999041462 9.42377941411876 0.552758383321061 -2.417551995397895 3.4217510995354363
Ni 1.8374256093110732 2.9443970904356624 2.758624426264184 1.9870523956094552 -0.4725096256716379 -0.44948873929643235
Ni 7.718745871211865 9.002793177545843 6.013515203692122 -0.3298627654009674 1.4835416935706127 -0.6540454496980219
Ni 3.123976678500182 6.23764869121974 7.3267771250420495 -2.2598163591149016 -0.42135932805006787 -0.47847792743993084
Ni 5.162179778555954 9.368277157603698 0.40396064915803737 -0.6678895546699659 -0.04642692400397166 0.9522319670416309
Ni 1.9494970242742393 1.7571650619662451 9.249373646461594 1.6275954614911388 1.3077700257215155 2.98883851943013
Ni 8.980922622158317 7.3297003615994 1.7269554814873445 -0.26302539606144376 -0.12421410748677962 -1.138970161204561
P 7.205539882701395 0.5785840947052212 3.9080636492192222 -0.5416190788747898 0.3791243306402567 2.3368869761466593
P 1.0967228697362439 5.334874018768868 13.406500974174524 0.7852025641615381 2.136923798653023 -0.39485948198732645
P 4.225090475631616 1.4078994860744511 11.673392588894686 -1.4154074597965367 0.32400810639240324 0.37850649455059976
P 4.529577934491194 5.040289502545248 13.245576287860459 1.9572373691305516 -0.896256994337908 -1.5571778309995248
P 4.583464890268749 6.673210004025068 6.0023856041051245 0.6857749195908188 0.5396604124865222 -1.1082274807050656
P 0.5516359456170875 8.406411813292037 4.785289663909192 -0.009742166988428383 -0.6797261422935778 -0.7515519659866283
P 4.214374744307611 2.6833050735987505 2.1827897995002483 -0.9734471676666654 0.7534692376139991 -0.44646075110338596
P 0.994143331865657 2.258814503268526 4.494890542309072 -0.2110340905958172 -1.0956807543883065 1.8248911194549409
Ni 3.169156518677064 3.4019784370079296 12.084583320416845 0.3435870569655953 0.046081110628778704 -1.23203149723762
Ni 6.014141144405904 7.406382770237085 1.9971441919512685 0.7841450694313011 0.25841360832104526 -0.8692665817919932
Ni 1.955859197797907 1.268436158084276 6.1585643518729 -1.1352248352295158 -0.8282027218721477 0.7364853014614928
Ni 3.336787178787441 7.1652928290450655 4.018066657107293 0.014293533804536676 0.06390759728723833 -0.11251275988945139
Ni 8.83236914022023 8.179952068484841 9.461053716504557 -1.1512417794830625 0.6412660385451666 0.3407956102633873
Ni 8.252710669662994 6.768605237285231 5.953830355273174 0.8123932656437169 -1.1343365190872916 0.11134933570896953
Ni 8.406813536436704 4.571235690353212 7.214340422289199 1.2869805997799901 -0.2329432319640827 0.04661281476253263
Ni 1.6876295883441341 1.3523962953195188 11.971885964739897 -0.6089886665686995 1.2111001464015916 0.21497353485953943
Ni 3.131431912673291 8.551480580510114 6.272068890798666 0.5075293362799324 -0.7447868793486528 -0.7401547798932802
Ni 4.692612134434692 3.31195508300784 9.695842209764544 -0.3013831699040358 1.5152606219404485 0.5035981195463262
Ni 8.752089908077975 6.801228893591613 12.075805202585952 -0.7958001371717263 1.1900093871695634 0.3258806408247678
Ni 6.185770351165517 6.352569537790423 4.615436447144953 -0.0287233360766215 -0.04215092233643708 -1.415942249254084
Ni 5.114617626707215 2.5266891015711987 0.025129184058679886 -0.11634447493071576 1.1623967676586173 0.7631247584258921
Ni 4.001414765640942 5.069297650549635 2.6914320262393354 0.9701713251288712 -1.2521969164419016 0.30210205034793136
Ni 5.300036213967464 7.393228672848944 12.745931725322022 -0.8226110867169832 -1.3409655386368777 -0.2925794555694768
Ni 6.332119027007297 2.05544916808028 11.786103023929833 -1.6165872833060932 -1.6903357779431534 -2.5882197663615227
Ni 7.155445940801386 1.1920340214079863 0.07124793530623481 0.5866282965956284 -1.526446977574571 -0.8696278217861539
Ni 7.5745926590676795 2.924404357189483 1.352818571741354 1.8811347724390182 2.6501383582431908 0.17611079635607088
Ni 0.725270965380418 6.298701266810294 3.9385684494974593 -1.3814372734986788 0.9139652102509485 -0.5619891578907095
Ni 6.474768112958663 1.0197788739345905 7.785443124104915 1.2402844812750318 -0.17394515616331976 -0.44646974996445044
Ni 0.15184387476486574 0.793302312809709 8.322676827865783 -1.2551022630141544 0.4923958230726036 -0.35469962193898913
Ni 6.0046679521107515 3.3296869557654336 7.52109247859685 1.1049804345226777 0.823957830552865 0.9880623464766789
Ni 1.475594507150068 8.9350794716728 1.6704283638334487 0.21635318881588544 0.5916098089706199 0.24861950504875893
Ni 6.413995809329504 5.44253582153942 6.84263814164786 -1.3049374413687267 2.2442773829390386 -0.2226277089706875
P 3.136486150377115 3.9057112332232466 8.091661729446043 0.516543881073717 -0.5223185787739649 0.0036483953858646844
P 7.32881283372165 3.465712281029163 12.935460968016068 0.35322535138630784 1.5130031933648393 1.3547098848061638
P 5.045399794641352 0.32974276530088636 5.825107983083529 0.5220144172699848 -0.608171827094359 1.443657198670849
P 7.174523118973676 8.20999722274639 0.09875008863805944 0.4776875703281515 -0.6249601022962914 2.233825591478095
P 0.30955290744185854 8.959920909851116 11.445645461544814 0.8397073800776378 -0.8395407725927864 -1.265058345785602
P 7.1311370193497226 7.72675230690905 7.703073997370525 1.3761783390925848 -0.34174614710211465 0.7142293182767699
P 7.008938444181482 3.964260045958672 5.26212662846917 -0.5184596100391909 1.1737844406702687 1.1826421481712148
P 2.3887485845712697 9.583432599967963 8.030610088095361 0.08199916468162653 -2.2246133288512078 0.14150606179800793
