# total energy = -340887.9139425361 ev
CRYSTAL
PRIMVEC
9.13481556298256 0.00000000000000 0.00000000000000

0.00000000000000 9.13481556298256 0.00000000000000

0.00000000000000 0.00000000000000 13.36972593773591

PRIMCOORD
 96 1
Ni 6.557765455483855 2.0300209634757582 11.439337899736122 0.06352501713683899 0.18916377288528713 0.28599640303532037
Ni 4.437163659291279 0.9078590932981586 6.060068722998304 1.1187985713526925 -1.3612137473629524 -1.188239182643018
Ni 2.749479049879201 2.0197077565236317 4.83089614054313 -0.2852929492103925 -0.2035912611645268 -0.38406753357814505
Ni 3.720427747973517 4.715510629210011 5.206211919814305 2.1456640067394983 1.1895278195474546 -1.6064707636973816
Ni 3.862163548743398 3.209654526779402 2.5003397397556237 -0.6197813863088294 -0.9284078680388398 0.26985424605781916
Ni 5.311520815922543 4.879407492925737 2.917541389564962 0.7447236302108852 0.9948878540389445 -0.23109383746016976
Ni 5.327780787910838 3.1347399030288354 0.3003454331446937 1.4446365318649832 -0.5543797209745679 0.2670735979888884
Ni 5.577517514982749 8.05380163101142 12.565817797306345 0.7298477415403173 1.099030901807462 0.43274083041413214
Ni 2.3763857712736165 5.732736303760902 11.718979273042912 1.0321382537499708 0.26991338143052873 0.8035990643908548
Ni 0.6811283996265404 0.350392348050465 0.18026005912169957 0.5415383462355253 0.260920433903299 -0.019176830038766975
Ni 8.199437998095348 0.28985775121224333 6.753837880623386 -0.020784797955835172 -0.26878800957683385 2.568130708921132
Ni 8.791766854071204 2.4391693597430284 1.4451205396464646 0.25763276429096277 1.4337422535499824 -1.1716969620136208
Ni 0.2939154363567381 0.3926500055885849 4.867703053538881 2.052782905038045 -0.8355915581370513 -0.6860937363828183
Ni 1.6890913710335373 6.873866618788893 0.919471271046204 0.3242922132917253 0.7572125067065153 -1.801873061293213
Ni 7.774248865417151 4.25895253933642 3.8274448546220987 0.4759338208618384 0.03438490523777304 -0.8498526960417557
Ni 7.854644378601976 4.070766200611212 12.717925267848983 0.5447329419134231 -0.1979276351208462 1.0592783044998726
Ni 8.355095258028241 7.445952723120893 9.292881834600585 -0.9478749756245158 0.003726042701335518 0.006752745342801274
Ni 6.630305027146243 1.1571527818074674 0.32422749537289536 1.431456028618967 -1.3692152775111903 0.2194063738199125
Ni 2.0912059591935113 6.792703781083272 9.300850134356423 0.007888658719457382 -0.3416337898939664 -0.41582091473034194
Ni 0.03470864582400358 5.0574085121189505 1.3113950587847498 0.7890389071884928 -0.25683263698717057 0.40263552638831945
Ni 6.378312000590563 2.334995921229254 6.8635360556868905 0.4667421270602413 -0.4421047881275354 2.235121941692015
Ni 3.689606879721546 4.54922044377466 0.3480812396723533 -1.4220560754613056 1.4614764862404572 0.24887301582046173
Ni 6.103947810327392 6.0321116194757325 5.037686444971349 -0.835496941540716 -0.6804203401471249 -0.048439840668942385
Ni 5.548578418769874 3.2757357837250916 9.714403338765692 -0.5235293112526145 -0.25246973203278456 -1.5949637914990469
P 0.324411105168943 6.10348193472548 12.590538435617987 0.6225733472316697 -1.438036252939646 1.2937634270297782
P 4.133120452741607 6.4610917006792885 12.893844462538752 -0.6807406996010211 0.13844773458765833 -0.25819917831739403
P 2.573113162700541 9.311300363544406 1.511354348014741 -0.43787789453038134 -1.568989736032788 -0.5121845756637566
P 6.579524586537855 8.096844882701784 6.138428999239873 0.45909849447205453 0.07073284773918785 -0.7909795758546313
P 4.707791709923433 1.2801804799750849 12.560041853324211 0.830462464440602 -1.5749351549829458 1.2074221833293723
P 4.176099760721904 6.610747386681671 8.191804946076573 0.6042503805527658 -0.30793434075899223 0.8000630262131383
P 4.764217466649106 1.6186345373561661 3.814703613650596 0.7843250466525912 -0.1252543758258359 0.2736502227651416
P 0.5509992957152706 6.232593420165122 3.5223209993723055 -1.1264527454638404 -0.8467136361921419 -0.994250734675578
Ni 0.9591191117320453 8.335309247170573 2.6588909093098048 1.0086939066841014 -1.0584840907333513 0.7909307248945668
Ni 2.1418128383031494 7.042221272577813 4.721772545388649 0.20315957294374687 0.711602165066568 1.0989085172969848
Ni 5.97906574456785 6.0588948991778 9.515501861196512 0.703592407388214 0.03211333559477696 -0.29322146002884986
Ni 8.83146676320667 2.829335608936322 10.365789691877238 0.31440169365089077 -0.9455548121317715 0.5201290273218139
Ni 2.546549118575843 5.814748679328831 7.0554987272323 -1.1644505648638526 -0.6300871391102115 -0.3521028077460904
Ni 0.897251745279727 -0.04366898656744107 8.89469156327554 -0.36425692661012105 0.4878639966405211 0.06274700132023388
Ni 1.7824674573618258 1.330166191615507 11.353665203507683 -0.5658013325479481 -0.45090078915261056 -0.03185288284453869
Ni 4.426859587154876 7.4131861391197615 1.6535012154921909 -0.5278490216738909 -0.19454174936774882 0.08105222738732493
Ni 5.83463517315946 8.568566766676819 8.2765422371749 -0.08603271132105184 -1.7640292509725621 0.0987748414780686
Ni 7.036977888352374 0.9529896503814015 4.926196019062843 -1.9163681417200156 -0.15530877200905513 -1.3340258740942508
Ni 0.5569469742330115 7.523690004930103 6.831528574872403 0.5783822545367523 -0.11769867496576505 -0.06475014779319171
Ni 5.49016127221642 4.850422722634241 7.397108863445942 -1.0002025813836388 -0.638711390444113 -0.3862092625114962
Ni 0.6598643755847686 7.642104621157221 11.194445365442522 1.2010574174536088 0.8345222363322724 0.281992681192566
Ni 4.587915523180513 0.10506134260212388 10.61090968308236 0.9633021088128636 2.2385901027462736 -0.41402962715787406
Ni 8.157627946527692 7.055265789431345 4.845095298104144 0.7694447871066491 1.1825197636607376 -0.04627162937302999
Ni 7.25743753102963 6.352222966883501 7.340728780798886 1.438054250661775 0.3695176607884281 -0.8969182820709907
Ni 2.508173757720322 5.6395246441156415 2.6811250507814397 1.6937651153396764 0.03615973775000869 -0.26642927953667017
Ni 3.510728918218852 4.505912282428307 9.120052034588594 0.2812025811911028 0.532995855982153 0.2448404976223009
Ni 1.3188298853023193 3.9648754167413705 3.607486713328077 -1.1745030640038483 -0.33655971780516875 0.5713963101372224
Ni 1.5513931588135592 1.7501484793311584 2.839448763424099 -0.13144867756200587 -0.9420061755485647 -1.1536215925691486
Ni 1.0217017342555343 3.705784638368328 8.495151166186522 0.764026187194239 0.10482593276815497 -0.8951575906261422
Ni 5.806801389649158 3.2812988865008625 4.939217698877064 -1.5799300370943758 0.3537701681461842 -1.5714973329459903
Ni 4.508378682673722 7.579750369026826 6.1339639013140985 -1.0573366073924695 -0.7631460985821308 -0.45508988753329366
Ni 8.35820109537432 7.626502355901036 0.27701145985991776 0.10477373937398085 0.20444795273786726 0.019265275987515207
P 0.4154212742247772 5.840554533748457 8.222823126348176 -0.8279376411362191 -0.00248445698475056 -0.27041371810571496
P 8.936078672875185 1.8093968941154743 8.162953544094645 0.7691794492604044 0.8753973772800795 0.05365558054192694
P 2.07886482315071 3.610207061450613 10.51522248837596 -0.5050253389111561 -0.3528103753360763 -1.2607748879188996
P 4.1463019918309945 6.646875582869146 3.944310206102467 0.9595164165181861 -0.1271089125360714 -0.8319472765162446
P 7.235276468083785 4.276811104076373 10.743831300160384 -1.6258859349991999 0.9879834136096275 -1.5324458754704833
P 6.598972609213742 8.332139466114429 10.6132893025784 1.3489567843724704 -0.7785966288092462 -0.9524484539278112
P 2.372878002035692 9.036625589546626 5.7788771714631935 -0.3536644958062554 -0.11566210415171048 -0.03575144656799649
P 7.0082580277168685 4.417633423273878 1.4369384852026916 0.013197729637196625 -1.1999652128306946 1.3111790514030643
Ni 2.738124473934566 1.9425002940264007 0.3368381084795479 0.9191876349921524 -1.1140633706605523 -0.3387114740408489
Ni 1.778210633234553 1.5357269498473083 7.255148346209256 -0.9371694162815537 0.5647734055040661 -1.685842775168806
Ni 7.144065333082029 1.2881095000233098 9.066238835159915 -0.7115725973802132 -0.19268644132656493 0.8043765659868275
Ni 2.987367920957394 1.8585239330778627 9.236529156400701 0.49370528591264645 0.27735389686897394 0.8125665579967878
Ni 6.579360159854827 2.3974415215168867 2.513254542225878 -0.5804877309155293 0.5549227379622315 0.694822631615384
Ni 4.121254327116441 6.9374083969633755 10.625255911176525 0.10782203928200142 -0.03799036320084425 0.14694754452855338
Ni 7.5028534902642035 6.3588548430989515 11.630204393394681 -0.7210352854550098 0.25774357883721416 -0.7438777372708222
Ni 7.68455410982554 4.2552529389682965 8.576852958019844 0.4062859786567131 -0.23940338576712963 -0.4206533031219788
Ni 3.052508291883536 8.503782653563903 12.753662493923482 0.07581720424063072 0.2902482363331388 -0.06062558410185689
Ni 0.48426489944533213 5.1520817422800125 10.580213048324232 -1.600155620112631 -0.07545056492983135 -1.2281941257694011
Ni 8.614871147580565 2.604409041370147 5.78144405468157 1.3506863654690673 -0.16814706142430397 0.4963730625527968
Ni 3.708853936451512 2.8292351259633612 11.642691686489064 0.32990364594123184 0.8218994053619393 -0.846981802251864
Ni 1.40720922742971 3.617140386584948 12.543570867092695 -1.6254066813699362 0.09644645045520808 1.003235968893324
Ni 3.2390046896998475 8.833184108562737 7.8857849654042775 0.10100655902206476 -1.0858830515715943 0.6317023061161314
Ni 6.0272336278792435 8.252703108580599 3.5559992379826686 -0.7136305083505065 -0.1991478806811925 0.3110134939049482
Ni 3.4095242948153 -0.12393935277684906 3.4797253536524058 -0.41501615944085946 -0.8077853345580603 1.8256310829447593
Ni 3.8629582777113654 2.9101513236444387 6.926440223723856 -0.2974444969712619 1.9137484447089816 0.998147755737139
Ni 5.10807020012293 4.698519871963814 11.58415944125749 0.6871373471559844 1.136334523353927 0.266522867691741
Ni 8.208106938217197 0.2882655528315918 2.307828979266788 -1.5303244582521065 -0.45670762564237477 -0.4505624319765853
Ni 4.763605433995615 0.8129118186653832 1.7598167682931873 -0.06674686650824634 -0.03382286208671594 -0.7358085871094424
Ni 6.1388154019449885 6.048143221070934 0.3916862825297281 -0.07682893333459673 -0.40884499763314097 -0.17474914012185389
Ni 8.559989174712207 0.4566156392126513 11.09131055547654 -1.0995116980986226 -0.5287584208620377 -0.31692574562432513
Ni 0.17078086084515245 4.962379024144661 5.6540307314849745 1.5013607240299045 1.5744116783793078 0.6581571578735503
Ni 7.495225919134862 6.499558409692048 2.495753148780723 0.6298873643945797 -0.5594522504014687 0.6318324039360925
P 8.54736485938197 1.9385723232651833 3.63123083983885 0.2987786424016532 1.227610228241473 -0.1039288748751823
P 1.9962952238236313 3.5996198100267733 1.3642070824101036 -1.4480242173902933 1.1636702350544024 1.8242578567463164
P 4.862526353468225 1.3185101667519876 8.242209032277142 0.4482720932805119 1.6081013573222693 0.23635945673448325
P 8.523678282210255 1.9463825907089993 12.624149990073567 0.410230565126758 -0.3804137388756416 0.03728896625844546
P 6.64006101033922 8.124413756556095 1.3854912030464674 -1.9066758541329163 1.1143999280643646 0.0014002227816362982
P 2.025325668193745 3.802540606514408 5.760386477475156 -1.6637035200676058 -0.9010670141320417 1.6735176779445502
P 7.340007130356709 4.286539682822179 6.0519670549329 -1.7196260422668386 1.3660088547587508 1.3195094256456308
P 2.6025181345153285 8.693658933198007 10.18825272132279 -1.4529288537807623 0.49457123345736764 0.8223290367001902
