# total energy = -340853.84947491117 ev
CRYSTAL
PRIMVEC
9.48288567335893 0.00000000000000 0.00000000000000
0.00000000000000 9.48288567335893 0.00000000000000
0.00000000000000 0.00000000000000 13.87916172773043
PRIMCOORD
 96 1
Ni 2.8744997389663896 2.50544479186175 1.3730270258307418 0.32901430135774307 0.14334568610990797 0.8228193460730475
Ni 5.941359815103692 6.294037818540886 0.9420962492935058 -0.1788413079133565 -0.8307761390262789 -0.3138859303567369
Ni 4.868172153384715 5.28637689726317 3.51921458813111 -0.5376706357500031 -0.1849844446966169 -0.987030562778055
Ni 2.0546473697059255 1.8187605870031167 4.340818446387161 -0.13261878661070708 -0.8733451227367411 -2.5730823964994523
Ni 4.9178529917597915 8.918691966999903 5.604474609572561 0.4828084364944847 -0.616125791834113 0.5951180792341944
Ni 6.913431466211212 3.8204555227547714 8.575767111543005 -1.6820395993726323 -0.1395419960931016 5.036822460417635
Ni 1.1552715206566875 8.933608546263883 10.171579365142598 -1.0276789324270366 -1.526984595245596 0.0749114045969097
Ni 9.22787197356241 5.948424564977606 1.549774739924594 1.6477966190293623 -1.324558558033764 -1.262313178940297
Ni 6.897557115487816 7.383744667213363 8.351730142856896 -0.02048989242323568 -1.76537290948465 0.027939663833061557
Ni 2.1757912349934987 1.8615378845618051 9.461827092440634 3.624751006972867 0.5435209238831931 -0.33342914259598705
Ni 9.09538657693363 5.391978312828134 5.166074163940451 0.31485780735170293 -1.9575731552034157 0.22429686914299438
Ni 8.666864453373538 0.60479000363566 5.735410502671951 1.899450797139387 -2.1752944280114215 1.4294577672420155
Ni 2.223841017021846 3.8545085654356073 13.586589366777773 -0.5891160960144887 0.4828968824432328 -1.3851630590896984
Ni 9.057502448415127 0.9808812519570027 12.737615055419608 -0.3244907024557766 -0.7748320195604913 -0.49746475295507875
Ni 2.1326061733481283 0.8390675406289345 6.330438823730152 1.8080017998987699 -0.5364326495778439 -1.2767717775677883
Ni 9.29799791358602 6.128608876862474 9.696787397206958 -1.2281933544384525 0.7224643045920525 -1.378798550324251
Ni 4.7952677278402245 2.8239369922177913 9.61101374742906 0.04574609588686315 -0.23730459425657197 0.8203554579135871
Ni 4.750224020590442 5.56278405071931 12.488317575707823 1.1245007639437925 -0.31865661227250286 -0.3470631884396539
Ni 3.993726810937514 0.6525998686548661 12.899334292197786 -0.42338972821653537 1.0095493127058615 0.936823860016677
Ni 9.619818606835677 1.6343848396225855 9.933483070063115 -3.5910050208706736 -0.08721284767208205 1.7954342476464045
Ni 7.725953564797132 7.78273708458907 1.5484006697813322 0.6968638304151289 0.7892546227437246 0.3941115480777084
Ni 1.485133701011148 6.770059716756588 3.1984531332182526 -0.2505118369754653 -1.1280802537649346 0.5548013818930188
Ni 2.645639774594547 4.189548401402359 4.177058492598424 -0.5843258737146968 -0.2648799327716793 1.6503885481262544
Ni 8.245625186059309 2.9364798801420906 5.468805808201937 -0.45930932493127996 0.0736847312786602 -0.17599715359634205
P 7.014566442594146 -0.2250241370913087 13.228354392298819 1.6760908379883648 0.5874567060341946 1.8702199252987275
P 7.754278944492944 5.595585352482889 2.8204539282866663 -2.3922461696432546 0.428213889078056 1.4793461674320265
P 3.5069513202962845 6.770031268099379 13.850487645658504 1.1953423693467027 -1.269763207460439 -1.8989296345285944
P 6.928082524674562 9.020955406785514 7.046534198701459 -0.1685414686492452 0.25306751351778356 -0.994272846162765
P 1.0556253573344314 5.986536282753791 8.095812660612252 1.5022130447278708 -0.034059917798186505 -0.6851766238851877
P 8.811829327631944 3.705693639568062 0.4520747668645707 0.6792641150554947 -0.8668970531185521 0.8732949862250959
P 7.124349810769036 5.051201330990621 12.112011065880253 -1.217823324058038 -0.7552605251864669 -0.4373081380698404
P 1.3023036640057146 4.253074252953158 11.226993254125098 -0.6899961567610181 -1.447715685010939 -1.2703203655154898
Ni 0.6058833803611127 8.701448537655635 2.1135047966084994 -0.2936192096879008 -0.28668674423412566 0.5173257535450638
Ni 3.0263871198126564 7.513660201807474 9.81181764606002 0.302949228839575 -1.09544344156652 -0.562981603710966
Ni 1.912622190025927 0.31406938244839994 0.26889101822115485 -0.3015117250621001 0.13769414425108545 -0.8598581439938998
Ni 6.02200227540941 6.885712991202556 4.965034141454647 -0.8701749525388756 1.35292296810907 0.34288386025098366
Ni 4.126212207566296 0.8191591703131043 2.3001384190829617 0.44544002314835546 -0.21269168080389822 0.44802552448734456
Ni 4.172545587276283 0.33253635413223714 10.575115981363377 -1.0622016487942547 -0.2998531064127546 0.8470627920014445
Ni 0.9015730336744538 0.3183234049899268 8.033675103533321 -1.6340350464688953 -2.511592150404455 1.024276848724023
Ni 2.3389063525521325 8.016528149544046 7.326962095710001 0.015413763451908936 0.276982115351852 0.3770643627874345
Ni 8.637296815646208 7.398869869963553 6.702427775681756 0.3900993415945217 0.537330735912081 -0.321936054354723
Ni 8.52608153172506 1.126367684930932 1.1906569087835428 1.15058511973567 0.1036167429514022 -0.7514969443789767
Ni 8.224999909581777 7.314054939933647 4.224248176890444 -0.14558357430149121 0.7580144337825203 -1.32386281751832
Ni 4.581807969904939 4.099375640931163 0.5288529512325423 -0.7680041980053804 0.9360486724135492 -0.5726186125800977
Ni 4.648055409662198 8.168614670990786 8.004653680024429 0.5271789921900598 -0.006577910327833833 -0.18393620593776064
Ni 4.142437425061955 1.4291467436211025 4.9661863120716685 0.9415734588865203 0.7362382184476933 0.4277649744660955
Ni 7.358709848868221 2.9319944751885862 12.804470348152597 0.5954152987596392 0.6069029876842644 0.0637258202937354
Ni 0.15122642371041223 3.7996026570195562 8.910894190058535 2.2036824922358114 0.4096700646375977 -3.768754895492064
Ni 0.3226997567574583 6.925920426726573 11.616345369860777 1.681885076072639 1.6787997522790958 1.3634315809498776
Ni 2.8316086467788595 8.79002817332305 4.050161360534337 -1.3958004841988865 1.3495396534591337 0.6773090482116529
Ni 6.003889963652129 1.0187084831610833 11.817440393083855 1.1248807729910304 1.6005374289320822 -0.6195394455013524
Ni 9.608249486236785 5.093457069833785 12.864136665208518 -0.17897037729205306 -1.086600132243277 1.32590633031091
Ni 3.2582436760773272 6.516164934039604 4.912681974167516 2.0387932756271727 0.3361267440328082 -0.4862066635427562
Ni 8.18183381370788 9.332373374381906 8.837916746293871 0.8585057437310634 0.012395545450875426 0.2748275309026944
Ni 3.791703413200805 2.770292307604735 7.421187841545104 0.08018448007039095 -1.373561213184712 0.04634799113692018
Ni 8.408920478446941 0.32760999499197146 3.301256149202288 -0.1764452968773542 -0.6700114861089751 1.0072728579668586
P 4.308207750626891 4.34251683122262 5.838560592273953 -0.02805613480626781 0.24713135053900664 -0.746310772192347
P 4.895407001220795 5.64270581170903 8.987173574636751 0.5122557952213243 -0.4077499647967494 0.35993181687220593
P 3.826116805539639 0.5595528455168467 8.5965450624809 -1.3474730007380922 0.531116122460937 -1.6252287610311753
P 4.285164338286476 7.589125006500899 3.15470573644869 1.6590739917153943 -0.4128913997883728 -0.2837585148437371
P 0.5667683732739751 3.1965290557022565 4.530560558806145 -0.2208184236760907 1.8135872644063475 -0.3151295729558508
P 0.6308556116603921 8.265501314563634 4.814015392941871 0.4364337058846871 -0.053282770583540494 0.3825762937445992
P 1.0456588444250585 2.2348601302480033 7.510528004648609 -0.20131120688109844 2.673595817935183 -0.25464771352070986
P 2.1346639595530132 0.6555130111532099 11.517150591899593 0.04427491065797536 0.7956859801913652 1.921862589175684
Ni 2.7650956862209704 7.880837537536228 1.4648346358029618 0.23605478100987087 0.913143999901234 1.0817420328200273
Ni 5.798860491136855 7.944325457544079 12.214079158219688 -1.4681922076977358 -0.7094812620688232 0.2598734806960234
Ni 6.2229920386008075 8.85937651671624 10.016827204515245 0.33882640235215844 -0.07245034465092684 0.38014917236034534
Ni 2.998185017631424 8.083581634588933 12.120533335291912 -0.2968814253789403 0.22901792876774751 0.5680009113024282
Ni 2.414589263617504 5.783261144099825 11.954066965913896 1.1101455236633848 0.9519190637869026 0.4563916370638527
Ni 2.2509620702290833 4.267706345645034 6.887825778144714 -2.1454919999380078 -0.7923530591633903 -1.0529032542114642
Ni 5.569535865363909 8.593229845627315 1.285552146351664 -1.1890071711572943 -0.11208261433056826 -2.5173843316062
Ni 6.241161247672509 5.450876516139376 7.013403840802813 -0.6628661333134456 2.428611852756482 0.0809558110187767
Ni 6.294862829599987 1.5354498927305893 0.5794005253639615 -0.9567673930181393 -0.26744152285126843 -0.06129587069600411
Ni 6.332528851746542 6.294540411484936 10.355839421317139 0.5933301340958362 -0.10570165050488893 1.185024275250146
Ni 8.603585156851898 4.172185237618285 10.680431013779089 -2.411738731150227 -1.0786891049263163 3.3328171554071897
Ni 6.918049631565032 4.861240163911117 4.74078854928233 0.07752133141593101 -0.6530797433506431 -0.9582992562816335
Ni 7.927180400131951 6.688838800420927 13.067203180376275 -1.652342586528832 1.4726674698602702 0.5370116620097656
Ni 6.053182003711996 9.118012742301625 3.3152178018725733 0.22021575709508523 0.22120228937807065 2.3203483550616877
Ni 6.064276980024047 3.2529332600647214 6.5405274157860065 -0.7188501048782329 -1.8253942843436046 -1.91519700423005
Ni 7.878940960388868 2.6504191490058924 3.012611331702813 0.50611291554838 0.7779859918084407 -0.5532654048644665
Ni 2.8729350628198183 4.5663224174967505 9.107505704905254 -0.10776007569581442 -0.011338822051586922 1.6306674155482435
Ni 5.556041718960448 1.2471417176747703 7.652358785171004 1.376584830502384 -1.1190119729150791 -0.15178841756062245
Ni 1.423769947408339 6.27120302968668 6.059655969804506 -0.9155428391507135 1.3914463209952488 -0.385197276307214
Ni 8.079968655123213 1.8842304301299588 7.758729262769222 0.6727299134814027 0.6093900157721763 -0.3366610192697234
Ni 0.3154064693372883 7.5970811476340705 13.970347528217316 1.4342670157052009 0.9355272526924404 -0.7519232332831179
Ni 3.7768437312512453 5.965379964674998 7.278412565603324 -0.4701421538807258 1.1083519220980718 -0.804759403247543
Ni 0.7716508610603283 3.5057944082363957 2.3356821714016216 -0.15884866684151353 -0.00757189880998696 -0.4624170173223262
Ni 5.764731585370125 2.9233176347394174 3.9344786891425847 -0.7797065740439733 -0.29199684359312933 2.222488569198721
P 4.306074101336113 3.2184060730970456 11.760896790301059 0.44895780649362677 0.05763873355939105 0.6565705301127209
P 5.403319844169342 2.943070485729164 1.9647894410411908 -0.30783741016981175 -1.241840770018558 -0.3376652921645217
P 7.371246223812266 2.136057943756322 9.97757659216207 -0.0856187637120848 -0.12746552454454177 0.6652037803076866
P 8.079304853121638 4.313556098182445 7.100606561461246 2.2050055819226086 1.3911899820100686 -2.4250418760170365
P 6.979555628453893 1.2177732205479121 4.787575210930536 -2.0013418156489338 0.2644896393117961 -1.7741755953779443
P 8.519083162051306 8.210415231318583 10.66462304325585 -1.1130917507759024 0.4435770017976877 -0.7630828494443632
P 1.324180681400504 1.1961901726109636 2.1622762262414166 0.01620283501210758 0.6957145473020342 0.1194375120337427
P 2.7365806488104236 4.7724044903288085 2.1964885814026305 0.29303994014566304 0.1292293013131839 -1.746090149995638
