# total energy = -340890.8426609236 ev
CRYSTAL
PRIMVEC
9.07974094538144 0.00000000000000 0.00000000000000

0.00000000000000 9.07974094538144 0.00000000000000

0.00000000000000 0.00000000000000 13.28911866784443

PRIMCOORD
 96 1
Ni 6.3723075634324635 1.9380616530644728 11.37817038922758 1.174994658928286 0.7130183286878042 0.6800593572632804
Ni 4.558020940724539 0.44760944369901545 6.0245825353691815 0.23539169350457526 -0.03981713199693788 -0.0003270443221155658
Ni 2.5656805955040043 1.5805105292080674 4.748573834803232 0.7221074354732662 0.3878534829831385 1.2284975159424327
Ni 3.5531841552566332 4.0922483829758445 4.9021830783893545 -2.036274622970377 1.4808466632369528 -1.3108226965049103
Ni 5.277091035287835 4.248429009234866 2.7921901722202382 -1.1257112393121258 -0.26543966192989127 0.2556561001805661
Ni 6.924909685096923 5.7938009404763955 2.6190195344586362 2.0949024599159145 1.863119052587888 -0.572825072163949
Ni 5.290547211563393 4.312804373468135 11.437452926690971 -1.8549164621724374 0.3539766277300356 1.4371443372529957
Ni 5.6087921362990905 7.95082962934475 12.803786891487183 -0.8669248210326941 0.44475405282492436 -1.1419539264232332
Ni 1.9657639430892548 6.383748037189012 0.21215904594462884 0.9020944269552915 0.44666541091502426 0.050747405756196476
Ni 2.583222655264043 1.4517870399647586 0.3326317744716088 0.2759187070843442 1.438836380243438 0.7047146939181154
Ni 0.6460998474268934 8.96934958461513 4.796176193345652 -0.027152906265708075 1.2966844573313152 -0.5930113173038368
Ni 8.53624593526013 2.1512812127668512 1.313908447793889 1.0208451973346548 1.6878724040043251 0.28214720449255926
Ni 6.851699732796097 0.6198820950681395 4.856628201459713 0.22451309891885848 -0.032657381023705044 0.29609389648063844
Ni 1.0298877910983137 7.224468502696925 2.7073127526359504 -1.3348918216389718 1.337814908823038 0.03564063202174507
Ni 7.688297995855223 3.8324860705146873 3.755611534715336 0.2115010029299067 -0.5877922349967425 0.3840739613360482
Ni 7.616577121090964 4.113685651657756 12.644397484731682 0.42624776649062074 -1.2703059673377866 -0.5416818137919253
Ni 8.018764252080057 9.045228980792482 6.910594565315516 -0.21110813836686224 0.2931067888278565 0.3718661064159467
Ni 7.0363362675892605 0.7178488693884898 0.23459508614496857 -0.9621955060122461 -0.20264792341465102 0.40254862310146805
Ni 1.6233396678665062 6.598184282195658 9.334503175674994 1.515633431898835 0.9297214446439407 -1.3243814090259514
Ni 0.03691187139880253 5.126067701960336 0.9801026628010725 -0.406477525842229 -0.8477860433207141 3.435457393377935
Ni 6.341263928691484 2.154313846286444 7.053372585771332 0.07438227156631706 -1.2663924912159932 -0.0837814533930299
Ni 3.6044029746698736 4.38545138182221 0.8364066805224095 0.34281366913468053 0.46911268417494695 -1.6307795156460754
Ni 6.177801350089009 5.649596492697442 4.829743996105935 -0.8752731929973893 -0.2200285807849436 0.5545293591785546
Ni 5.39377478786354 2.7434800852664694 9.306994284135143 0.33170367526444805 0.53697283835203 0.11433361514827406
P 0.1498738381071985 5.823455374832653 12.371970749416848 0.5438286849315989 0.6168400442923183 -1.780722909578159
P 4.149550628910422 5.967069639441625 12.519214186534148 -0.6213639003046009 0.5383447789988922 0.5811338491399604
P 2.192757470004873 8.319249203269877 1.328784695573831 1.5055511079621684 0.777578471957377 -0.4735239258687651
P 6.364789537821019 7.842544637264924 5.98256240164067 0.038746524640578435 0.0410286358065358 -0.9543922079177434
P 4.884101682009363 1.1755086784852211 12.711839985500637 -1.0556167964878853 -1.093640069809194 0.24941320459464786
P 4.03173190870014 6.157063221469998 8.14185739388175 -0.5755722958917829 -0.26470689752892473 0.7875808345857275
P 4.7654839445843376 1.2032109685100032 3.8770603354080535 -0.058940483089950105 -1.0732761614408612 0.10345682033477022
P 0.03907466572325454 5.505746154820477 3.545589859820145 0.05517535962056304 0.36255537053798204 0.1877136707023219
Ni 1.7277385307655375 0.9640142695874012 2.632521109439577 -2.028447156506158 -0.10816785265719436 -0.7513449921821447
Ni 1.9130015676929883 6.545957611522913 4.850847130316226 0.21858542058051386 -0.34071719161696806 0.08033077584026811
Ni 5.81759894183823 5.322834770831871 9.288987341631982 -0.32343886415249457 1.1084316262960716 -0.9557224966933928
Ni 8.455000412106491 2.6089728009573507 10.19205021734611 1.611421422834438 -1.5674509307907585 0.2731902524095876
Ni 2.307997543749394 5.309705465235072 6.986648292521539 -0.3341850469254051 0.02677186877720551 0.4089918076236505
Ni 0.7821679392270839 8.980009200639088 9.037437654974632 -1.0623111777889254 0.4062438125648681 0.6334802239521606
Ni 1.5875927272478347 1.1121320857703805 11.443805113548178 -0.8247682422693021 0.3441794391339556 -0.41376068976720354
Ni 4.182382972643498 6.819512050679462 1.6113189986551628 -0.3904276714682179 0.28992170623165553 0.13275145553382942
Ni 5.795653207656027 7.630596241313272 8.17574480352793 -1.4529975022351687 1.2832368164668415 0.3413741084746766
Ni 5.437384784254569 3.0451544825373262 4.891326431984034 1.7266664940533876 -1.3620647825093382 -0.07383231260011801
Ni 0.8111232335204404 7.691875413839413 6.93620215907392 0.31178611040491466 -1.654314365543222 0.11828900025159629
Ni 4.798180092201263 4.675776102747285 6.783523588948152 1.400336424396027 0.4982975332690192 0.6904895514576689
Ni 8.054039046162744 7.354989780673406 9.156720937420575 0.6668009495914775 -0.33468204116648165 0.06809695277823756
Ni 4.622677776931185 0.5361877657461357 10.501712970816179 -0.1967683247054224 -1.1751142152252858 0.638675652110171
Ni 8.075875823452026 7.445560197912738 4.554938368629026 -0.38348183627800414 -1.550116553277369 0.1135183183358303
Ni 7.1554897097378065 6.106316548592742 7.083698012993151 1.3607828304731209 -0.9395867674737947 -0.07928973617026344
Ni 2.22951226188305 5.34247425078061 2.402366924655186 0.16787272471699474 -1.3327251530049564 1.4737735584402554
Ni 2.3973421959433816 5.335201378178233 11.229425162936208 -0.26428960748584807 -0.9406643168086896 1.2908087152768286
Ni 1.128357583074309 3.360439411682044 3.7235709444041425 -0.05002878242261707 0.6177766971739748 -0.5759767304190532
Ni 3.5049071719522202 2.497382783125633 2.6292124517912554 -0.24778852450703134 1.327455934186217 0.5627360633590631
Ni 1.1129946611726598 3.4952463274466914 8.301619977995502 0.06756036354847719 -0.2271471941075959 -0.3358652628413054
Ni 3.8746069893691493 2.615473895568214 7.132044002329747 -1.3632186936081232 -0.4810433741742619 -0.02417531169462288
Ni 4.241564724980938 7.061950217166419 6.021419153578085 0.016834812169151656 -0.4526226569397237 -0.2410506915625655
Ni 1.0808705372435614 7.6677777810220515 11.49425033902169 -0.09626055969664712 -0.6923656854344592 0.19452400875593598
P 0.1078437166635026 5.730124716306027 8.090016612204762 -0.04347118380975739 -0.2305456782661836 -1.4343402921452975
P 8.649479386226718 1.720928724958069 8.059518669902486 -0.23346362324392694 -0.5385851771444724 0.250427247681459
P 1.6019387181489018 3.1924823612466393 10.526656835501882 1.039782657669106 0.42193499804787976 -1.2141258206017929
P 3.9372572027978596 6.054126196884303 3.849126511985817 -0.00928888150109368 -0.1361692229661268 -0.49325302886657635
P 7.078148475247117 4.106294742421382 10.50745409109893 0.0804459612618937 0.23075650872540904 -1.348612256548858
P 6.296718718969562 7.738209332553429 10.399958128518662 -0.48225513509417595 1.4250385551283973 -0.23906708547363342
P 2.5430811199642855 8.556757070352226 5.817776904763331 -0.6410166415385218 -0.07127020829989661 0.48551040880668
P 6.999245525291249 3.954826501781129 1.3758095825837782 -0.6820293365054576 -0.7467152067196171 1.2897028838071594
Ni 5.094306767674302 2.645891028174907 0.950034192251722 1.4101030168644877 -0.2577520634776464 -1.075870918751231
Ni 1.5378811448533143 1.0521785554414274 7.051618379795328 -0.3221875082438967 1.297753264915462 -0.6502168199805511
Ni 6.949924371763023 0.666220553652694 9.331180898415058 -0.22234900138800415 -0.2635571001951977 -0.8237248886064522
Ni 2.6648041288375164 1.4803428256507432 9.194355556209077 0.48715642905053524 0.9870585878025131 0.17077807128924782
Ni 6.5882238062346 1.7696506155752372 2.843752205846175 -0.05304700042365058 0.5600816564553516 -1.5444408430488306
Ni 3.927287647095726 6.893702615016563 10.365406081825673 1.8651250272743236 -0.03187782254520317 -0.20693549504641137
Ni 7.945109392466477 7.298123362310505 0.30295373278855314 1.1264470890368858 0.021493393987085562 -0.30214987286673123
Ni 7.652115227664873 3.759176241062019 8.185233132953002 0.5311228073291563 0.8864086407889187 0.46938290711719804
Ni 3.148654451069772 8.548312911150964 12.5633598876487 0.9365970887178515 -0.9725321120515639 -0.540859832111262
Ni 0.1725804545916216 5.04930757089855 10.185816975097005 -1.0144606339645497 -1.196414519364959 1.062278781889093
Ni 8.647745155681083 2.500787686029367 5.8377505191836905 0.014539331266755605 -0.8993402612489221 0.2098344138607612
Ni 3.4322056851516853 2.8476791938618153 11.61265651847963 0.63455880172832 -0.4823574649999951 0.43410685752372336
Ni 1.0213074357809033 3.6259582799857806 12.661433802913752 0.3622856618163631 -0.7168711267749912 -0.4892976437632541
Ni 3.192591318139559 8.407331771454212 8.044049515030242 0.5063036914029474 -0.8888247064295789 -0.2475586678844124
Ni 5.508942223679448 7.657871783507454 3.6877304824523818 0.38740919635686827 0.9964914510806387 -0.13926431695168273
Ni 3.1523499056879585 8.437776143284136 3.7393451785765626 0.3589303721908851 -0.5878567696860908 -0.21130174243490704
Ni 3.4716026816831604 4.041728703625504 9.408722795183538 -0.5736509104993539 0.9312232260004478 -0.7456242876482836
Ni 7.211702386743191 6.185301216218301 11.480390114268221 0.2803237781305753 -0.280823086364497 -0.3922564971468406
Ni 0.4017513034174146 0.08604870618317259 0.29865719931109436 0.9587520275483359 -0.3181285076831747 -0.16679003317577729
Ni 4.377633724755236 0.32123488347222945 1.7794258648183314 0.6512686582838333 -0.45176750802828003 -0.559744584830907
Ni 6.025570411198319 5.75168910136301 0.3777163208134813 -0.4751522055008075 -1.2043263180128678 -0.3341706487477019
Ni 8.16033557494679 8.803299279805817 11.395871344456461 -1.0609654623943081 0.3905963358355983 -0.22532119664245065
Ni 0.13266682079288697 4.858460493208976 5.683888858795638 -0.30457545158908833 0.995168618504157 0.782033422404937
Ni 8.290666178360661 8.768033565464206 2.4198290826937505 -0.7741493916711699 1.1104599695800104 0.2494502284801704
P 8.720664556267455 1.7647747946170897 3.5882346797347284 -0.6201014886524094 -1.8403683891549334 0.37632542773888095
P 1.7749713438461392 3.269814515996252 1.4422551277825177 -0.14737383343269456 -0.11398214534612627 0.22729528964968598
P 4.763731554556549 0.9324258503818238 8.326376800015026 0.606804257322871 0.23575550460189718 -1.075543103098167
P 8.690002270651695 1.714827138954577 12.281272307828338 -0.96137172455937 -0.1662902107212233 0.6444855739237287
P 6.366442050696964 7.766401928596348 1.5961558310571995 -0.8623364303310632 0.4359410825189847 0.7952874592013658
P 1.7930400285886225 3.3823397471588623 5.873139718003943 0.12664534263609156 -0.9303739906262751 1.4987970770677865
P 6.954918229355167 4.090314398126523 6.134390200027558 0.10228928238923028 -0.08444222690548038 -0.5272828647577759
P 2.6205313113478943 8.550101620143058 10.199664488212965 -1.1978111426021694 0.889264622180475 0.7374399520652783
