# total energy = -381160.58706716227 ev
CRYSTAL
PRIMVEC
9.34948586418310 0.00000000000000 0.00000000000000

0.00000000000000 9.34948586418310 0.00000000000000

0.00000000000000 0.00000000000000 13.68391762275374

PRIMCOORD
 96 1
Ni 2.845160778616847 2.0666758281990787 10.373613718976873 0.1573204031224452 0.1747170013323378 -0.4220116169220861
Ni 1.4722355093668964 5.877647858399494 11.768894544162016 -0.38323063949914643 -1.3201923106452684 0.3175602938845305
Ni 5.170200302484509 7.939181469307638 11.524007197590079 0.47162568040478775 -1.0032148858474013 -0.6694931517116598
Ni 1.7386958598972078 7.018761972174057 0.869518090593504 -1.3877153931979067 -0.2985397869179697 -0.5632963067379073
Ni 5.007491197913316 0.7604778404135087 10.429621814761147 -0.06685742394418163 0.4615731812647922 -0.6196741713070038
Ni 0.7265831488774548 2.192248774443732 6.309408056067032 -0.013262007216228772 1.247187379042452 0.27165864625640956
Ni 7.03396423638326 8.38778850576888 2.3722030059115276 0.5991056031270328 0.3381854263340498 1.2548965747612517
Ni 4.5154931970025585 3.212754519030891 8.625931133152307 -0.8228735963497505 -1.3194713733188437 -0.41455541775435706
Ni 6.217146393433062 4.873877693722835 7.5085712584160715 0.4348095400177028 -0.2318703106148781 0.19993360980728148
Ni 8.35806648982727 5.399066369875087 3.9442938304282094 -0.5458164047855889 -0.0007067962590374924 -0.08946256293820723
Ni 6.638219193672838 5.553781663930372 12.353567454987218 0.864850969222801 0.8370712280063712 0.43107526978625116
Ni 6.107093593921051 1.3877909519637466 4.855724731737234 0.9319253942737951 1.9265869912345468 -0.15073837902955328
Ni 6.681591459150385 6.062973369564822 9.91859667492533 -0.7392219836663656 1.327016018435321 -0.9527731842570819
Ni 3.447389219273301 1.7854245908428392 6.771281078190291 -0.23950777255547784 1.1161493066553034 -1.0191991770907995
Ni 4.348857308318287 5.457463259328152 8.642858377525469 -1.4791026839626527 0.9268788329888231 1.2188293967250494
Ni 8.718246087856382 3.107245569706871 8.493826635999566 1.450788924619624 -0.8249726449706244 -2.653445311129237
Ni 9.222716303069156 1.9939181282753287 13.61422596644426 -1.4333223924037444 0.8604284146750731 -0.7959829426064937
Ni 6.684985322562403 8.624302452693977 5.199806384799922 0.14073421662898988 -2.3373515744879034 -0.10439373032674279
Ni 6.732321770096964 3.327126781067287 9.25260006511828 -1.1972143895584348 1.5128556120433816 -0.21892326353590683
Ni 1.9295843152227297 4.2032390641249675 7.067401738054719 0.18840941121776583 -0.46093477634984487 0.2923974214656577
Ni 5.1264073101377035 6.842393268580942 6.980974154674465 0.6632458852503674 1.363682263508103 -1.7485527526035178
Ni 1.008566450986204 7.178937366043717 4.147910675971695 -0.9922550444017879 0.20469169331755716 -1.1764311342644966
Ni 3.0355069637553243 8.238832495079443 2.5242864196624506 -0.31489071747216735 -1.0334019509537429 -0.21835453551663037
Ni 4.546112763598585 3.0416028286165786 12.324160516723252 -0.0814792876224145 -2.1960560860388045 0.588359163243806
P 1.7902582750963192 2.4761552658192914 8.32989368371313 0.5148850053140552 -1.481138740556075 -0.5008586091279761
Ni 0.35993277159914794 9.349766468099205 0.5291547281064611 1.106469103253062 -3.251482620892755 -1.2396260217554262
P 5.834256893949979 6.007156938243209 4.779354390429451 0.5648055442935822 -0.10124027229942564 0.9029272072692321
Ni 8.34871700384375 7.133526912621762 0.7351613022673341 1.5396537060728324 1.2249149407974969 -1.1871269234154458
P 8.996785974277403 7.979730190018162 6.089124816809324 0.08113784512259574 1.1674510422530733 -0.8808414311137863
P 1.2447438164158953 4.334674138081287 0.43495398207950836 -0.47524270833208476 0.7368881933268664 -0.1297016129639121
P 2.8695161896039156 4.673667800871745 10.625357043620527 0.7214847142876026 0.222624623646894 -0.5469965411366192
Ni 8.97775977030094 7.50822626238328 8.430525006199549 0.9518234187493027 -1.0689464237172557 -1.5949018279128597
Ni 1.058885384549507 1.0162891264085914 11.7476300732411 -0.7786647630430202 0.13098176522791635 -0.5780863205628883
Ni 6.833305568204961 0.8122571636874376 8.813893199364985 -1.3562353203117548 1.1058139861675664 -0.6700209991906719
Ni 0.6037692359465384 3.2887284421329714 2.9932884248481426 -0.2513903829256767 -0.3166771199486288 -0.5417126670298607
Ni 3.8864410810593863 5.095432463074302 12.950802335179874 -0.6051253269585514 1.5918342447311296 0.3746318420865419
Ni 0.803476126451716 7.919874780751669 12.091369535116792 0.07972810925926269 1.6451437547875472 0.29979011438530306
Ni 8.382908074085481 1.8170539019250864 10.519730290773115 0.5755846371869571 0.8387187909121233 0.5447992763749844
Ni 6.661817296295242 2.2106859608032328 13.358610084706234 0.5407901552155913 0.2038118618157651 -0.4332704776653571
Ni 7.680929967470856 8.395875811144624 10.003655493557599 -0.22732922821141494 -0.24574295483191225 1.5174553155989223
Ni 1.7469514560206556 2.353564805603381 1.14004920732104 -0.6597934079253928 2.8889871570584313 -0.2435580313654515
Ni 6.658937654612318 2.0869829117552836 2.2176157998142174 -0.16622336203902985 0.2310439580588408 0.13955562293985643
Ni 3.137855786816915 4.311749198449697 2.005734008661301 -0.13276662504248102 -2.7963050587416616 -0.704298175205987
Ni 3.3621780040195026 4.476272103301693 4.6334565966052255 -0.2027001168088251 -1.5170804487580065 -1.4226451151955564
Ni 1.2485958046411052 5.802814572587402 8.866001624545534 0.10143336214683821 0.14925845204991714 0.14841410177175085
Ni 0.8316077948275282 4.367285145191804 4.937075544228437 0.30081752720855287 0.4374024975558596 1.1850175903819269
Ni 8.95993965001635 1.1528290197119129 2.221611770123574 -1.9724521291977772 2.485324732067494 -1.0667064786431435
Ni 9.042645203026566 0.5753122054584995 8.663671268273381 0.9078382714176043 0.6153174370002048 0.8354691736265741
Ni 4.044409996236935 2.020732454076063 1.432418853408881 1.392504329946118 -0.5047808270005177 -0.7133998803969391
Ni 1.5462179919544878 8.640262025267846 9.41554851653065 -1.3137840931260794 0.02375262233490748 1.3611425278053846
Ni 2.540863058311231 0.8860115188170311 13.506615252671144 1.1348908489288647 -1.092937901535847 -1.2410033617189273
Ni 5.015952482728402 0.6655842974751772 12.76252519128955 -0.3845447303248796 -0.2976787244692551 0.518949662301732
Ni 1.8548912717003905 3.5290382803673785 12.176155348758341 0.816708090968987 -1.4149441470068729 0.9535787108775124
Ni 6.222830880911041 4.264038771475796 3.406405747464542 0.12783627762039917 0.3853021773161945 0.2136998103534384
Ni 1.0907764812392928 9.389688773248833 6.985585321161537 2.1246593794633735 -1.524385209949536 -0.20624823917139962
Ni 6.374124263096357 8.193814720068795 13.74453723218536 -0.6628872163593681 -0.24907844696304843 -1.1198655791646261
P 5.627895039321732 0.3321012217234065 1.4248382901734433 -1.256053056963198 0.6746695537062768 -0.4601721871522075
Ni 2.9920412034179407 6.910354682195146 10.129054539362958 0.7701610964473832 0.15142974866962305 0.640891171704251
P 4.66842273923499 8.173217802447102 9.216324059502222 0.9691243719215954 -0.838534442815459 -0.039181298185151876
Ni 5.106492904992805 -0.10606243889424417 6.942084032777418 -0.17944243183246514 1.0584884616087253 -0.5531988132925891
P 6.379042092723688 2.395104571828159 10.958573659021766 -1.408522302640929 -1.0908874467647212 3.154609110202457
P 5.204737303707631 4.059789900679825 0.7272965146579974 0.4987623887205797 -0.13153018153221863 -0.10894484003253496
P 8.13097682477356 7.282398777937345 11.844415952142496 -1.0539718046852944 -0.7234307822703799 0.5558915296334039
Ni 9.165375905532228 5.347690944395646 1.8056615532541678 1.1300075526946345 -0.2505953978282071 -0.08249127382669665
Ni 8.79747363208073 0.41538737781319834 4.244560052377731 0.24125072338851353 -1.488888816815139 1.2757423078620094
Ni 3.6387731973559494 5.547162227854039 6.344438710150084 -1.1676852697510665 0.06791723266726367 1.5602842378389903
Ni 3.159742933504334 7.608630392360299 4.977880440854911 1.3282745734327706 -0.7405453304634794 0.22208340643144334
Ni 6.720550767243712 7.8829817090607 7.926340885257871 0.7282001786345653 0.7843083344820427 0.8043719380011374
Ni 7.885524769248217 0.1849318978054213 12.052370959182335 -0.12055748457079883 -0.13447255198999422 1.820913879974748
Ni 4.372866788323965 2.7354165121422924 3.596325596042172 0.7542336265838495 -1.0540000868200687 -0.5209160419994835
Ni 1.0091835170611163 3.660707091473286 9.911767810362967 1.2614564873669565 -0.32312467534618544 1.3740931744287819
Ni 8.411601646568904 4.758935113041445 10.374722568014517 0.38666691887420507 0.3474254568750791 0.11844995130949278
Ni 3.7842979466894335 6.253300855731331 1.4455960189540538 1.7475675058721127 1.4403425324753194 -0.5251609333187666
Ni 1.212160857763329 6.432287415399833 6.433028829638326 -0.6138938171798007 -0.19665365350442907 0.08111830473856997
Ni 5.119675680229569 7.170158198705192 3.1383924473123685 0.1175014713532944 0.2328542717947022 0.693286911697148
Ni 7.483842802938261 4.169992291967572 0.7315832539814412 -0.5026162152490312 -0.4938734360593946 0.26675169587309544
Ni 5.026236917310273 4.641066143247212 10.8303417189634 0.12638540410648555 0.018324509340800696 -1.0096020203206677
Ni 8.899093195235604 3.869443715541347 12.498466723708402 -0.6244710784750149 1.0967004539020726 -0.22449972918241984
Ni 4.5356787372409775 0.2429361088471775 3.63502311852796 -0.02407169623722306 -0.1659873347688238 -0.3829725007417533
Ni 2.759678428269526 7.619587989932983 7.724393857911043 0.8662020839340566 -1.501455083515924 -0.6057855862503696
Ni 2.329676868915488 2.1220060862495487 4.543608036303601 -0.3804610471738093 0.2185432544886688 -0.5799154033518271
Ni 8.306588220002011 0.6599624515532869 6.430072522170337 -2.4567759738955233 0.46867893907163793 0.9985527044850415
Ni 6.4281642920811 6.169183530337605 1.3343745336941035 -1.4882033607123404 -0.9494803724384229 0.6012388474199516
Ni 3.032804962306087 9.11525331117458 11.341627709458159 -0.18165306633053876 -0.23948797506113592 0.18492839464770086
Ni 3.7272286842460294 8.23038055975034 13.685970182087397 0.12699141312160064 -0.4618883985123658 0.2169951932752585
Ni 7.872379391955389 6.236939255260173 6.0961303866567755 -1.0969678486308463 -0.10144724610390915 0.48986302934842085
Ni 6.415832320068839 2.416477496786485 7.046273769629162 -0.3861712101847091 -2.516299068961821 2.2339549179671074
Ni 1.7998508477154103 0.7396939330721446 2.501132417624264 1.124857890172895 -1.1051961500779095 1.9725732281566735
P 2.121295525314801 5.397000133472729 3.407158381086216 -3.007560007099033 2.198349252948356 -0.6967489021038195
Ni 4.998169760387746 3.4297654381943663 5.727568039494839 -0.14037169108324857 0.5201161718060074 0.24673642909343313
P 8.417108493813197 5.181784315618089 7.96187828148123 0.21404305262547005 0.6409302524723026 0.7148499825799044
Ni 3.34934115976413 0.3184930448743936 8.435424136854913 0.09486162246659145 1.7458875470665287 1.9166797594231637
P 9.28863017925297 8.313450742713915 2.5078518932006193 0.5318342315738841 -0.46266512877739024 -0.6960251365639174
P 8.076534767891525 2.502277729657245 3.9846060091433513 -0.4790420274735169 0.4816961772669124 0.14500199076640832
P 2.598250203278075 0.18415402057159247 5.369268623097012 0.5038757986877451 1.0436501110443124 0.13499525726268363
Ni 7.400791318946656 3.8633291517081254 5.833385521856314 2.4462563053111226 0.2876660774282594 -2.671228089033954
