# total energy = -340854.796218957 ev
CRYSTAL
PRIMVEC
9.38687981077297 0.00000000000000 0.00000000000000
0.00000000000000 9.38687981077297 0.00000000000000
0.00000000000000 0.00000000000000 13.73864744341272
PRIMCOORD
 96 1
Ni 2.243576905620361 6.3676743683150745 2.8943486283684545 -0.3352119455280227 1.5961405854159674 3.7500552622000316
Ni 4.911365681434668 2.0057978543749453 10.480471905152568 -0.7894577398934661 -1.0517639984006983 -1.3982324906791468
Ni 4.1817047437927 3.3722834888149666 4.676278787304928 -0.37624983730593914 1.3248845739146151 -0.4568516074194067
Ni 9.085955170367946 6.299225241092241 12.98618212156026 1.4225317295461435 -0.11277861195632836 -1.5228613171058416
Ni 2.523840974667552 0.09285689197938905 7.145964975250872 -0.20939424099954904 -0.8260843899775645 0.566548752236934
Ni 4.818491893071707 0.1417052755716681 8.000028352999635 -0.28168080637910203 0.9874779347281187 -1.527298269831273
Ni 7.594389363102328 8.896171235344465 3.315176528408282 -2.4092686723431798 -0.8843494442670446 -0.09286541797216909
Ni 0.08392621457404033 0.3618172804174553 4.3489141716771 1.8039044899009447 -0.31098649732175476 -0.13696292251201572
Ni 7.561769955930175 2.5866579740333218 7.28872345873181 -1.473944793910797 0.07446146154368466 0.6582101225986728
Ni 5.931362810108206 7.151985719930071 6.814548043629887 0.7007857911773544 0.5047283764960274 1.0112554967636906
Ni 1.7722710596616114 3.6129818596662933 0.6005603642144052 0.8559354119007259 -1.6981822705707657 1.2114834978829394
Ni 4.440679369540195 6.158440818425204 12.685539136550265 -0.7203300318578691 0.281788792711876 1.3475107959545631
Ni 8.239765507363357 7.689656805804541 10.843955356727738 -2.250685600458227 -0.258459116847 1.4212436068623395
Ni 2.624214879960167 0.19375270778675863 4.664188486171767 -1.95121121754113 1.5860826869593332 -0.1337636988484277
Ni 2.0322406946638534 4.0450411613410795 9.459511682615473 -0.2146871139673722 1.3162078720762236 -1.1689533378302126
Ni 0.7309347372256396 7.833510738153677 8.213925304755154 3.0523673932217106 1.614430899084723 1.591637298228975
Ni 6.222862974230236 8.441461392804525 12.651205685133611 0.6786653051292312 -0.8955393994455931 -0.9131969646263562
Ni 1.5750902633858541 4.959980331720878 11.908425644336594 2.1720175570323623 0.2608576989861636 -2.160291526844686
Ni 7.30019516448867 2.2674852883735914 10.15569055883518 0.608613542617468 0.4090751113660761 -0.30412987941123754
Ni 0.2736003231043095 5.720571038177881 9.747089069685059 0.3153200917001021 1.191344303930903 -0.49583775887461706
Ni 3.0531295769147597 1.8599351297567888 8.628021873317815 -0.04971536494725631 -0.08218659810208426 0.6315146155853575
Ni 9.146791538103983 8.579054276352561 13.014016097429863 -0.7634124648696401 -0.5147029712102361 -0.38957997875594197
Ni 5.808469780267102 4.090727105141618 11.441875191665156 0.5315804636918652 0.6080067622714045 0.6576455083444546
Ni 1.5893113862249366 -0.06187174057375983 0.14310767540807665 0.15973621165278942 -0.5432046781943548 0.006610306227666035
P 6.5451145564518285 5.32771134638825 4.654694595980712 -0.48174374267539616 1.0080943254268897 0.04424097209624638
P 0.26985308070341063 3.9802529172253376 3.277752916174054 -0.2598883930943589 0.5461154240832466 0.5130777769019873
P 7.4523658723067365 8.665122576888239 0.8410925872939485 0.18244702298674387 -0.5862068927874936 1.0076161002388906
P 9.068204580738438 6.649102410452724 6.997533061641919 -0.9635221952434698 -1.8430832169829354 -1.9855668122028645
P 1.8129350227896024 9.561006381351643 9.436623653692346 0.5809366455274898 -0.25216428497722376 0.23273291572548951
P 4.858864862927084 9.169507787127468 10.864769823911487 -1.3574051722501395 0.11883021746704697 0.49821937173291614
P 0.153822798656138 1.7666670924438344 12.837268661019527 1.9661989491992138 -0.12194896560168676 -0.5486664726398744
P 3.66088310709061 5.790822446314973 8.643532753436165 0.4419248109062454 0.27026485123267646 -2.6745748940190004
Ni 1.6089487386865613 1.2728608956961196 2.034995743873933 4.171327429852933 2.4277747015671673 0.7051998610846499
Ni 1.020494633300912 7.525668016366406 10.966174408601944 2.3300609543637614 0.8483162047925713 0.2324434095095287
Ni 5.509844974405889 0.9511443656209493 3.6297233597214116 0.42254897748279485 -1.1662901891757527 1.4383946647203292
Ni 6.561785654908733 6.380234013436324 2.5859023302124995 0.7337715020747556 -0.20094148224650554 -0.3916129500255707
Ni 7.9889574670086025 7.358215468296176 8.676353978523197 -0.9615429600299117 -0.07462421237379406 -1.3125365938722233
Ni 0.4674713055760664 2.3429558016582286 8.417531420227842 0.17073359120455756 -1.4500219645466126 0.03727893895611645
Ni 5.484472238409822 4.890723932838534 6.9606031992831605 2.44946221384293 0.5679536030042606 -0.3536490691872877
Ni 6.126328302760186 6.120545984826934 9.455403984031722 -1.9319336002584406 -0.1880563987537213 1.0170980715873967
Ni 4.221326763267135 8.62897370292566 0.09212283798201858 -0.8659706846495409 -0.6596242293373801 0.9759298248792032
Ni 7.871086417840047 7.60738080469262 5.372415422565707 0.48283209064356847 -0.6402267986473748 -0.11433670047206759
Ni 9.449677987377042 2.6110638614139257 5.992399118383168 -1.3770910807148413 -0.19991304098199117 -1.7749692949238334
Ni 8.826642616949028 4.900589543468155 1.1838976814419133 -0.3643759686864886 1.0279864363651263 2.05149221125108
Ni 1.0090708006308369 6.972593060802869 5.105844933714988 0.7577727500853595 0.7802614181061788 2.665231762241204
Ni 8.849931465637981 2.735486952656198 1.9119938262275935 1.5976130561964357 -1.4969692798304284 -2.4639100138371433
Ni 0.44920256018370813 4.599833915901019 7.365480913231787 1.2933181119622434 0.1547215320470174 1.0620589525688031
Ni 3.904453863149038 4.695307869957989 0.6495664473866819 1.4335013411837698 1.6119248448334174 -2.0341344366989227
Ni 3.1216162516566395 4.362186280972267 2.462309039141168 -1.7881202304834947 -3.082475268350685 3.74148551825315
Ni 7.6842499630617604 0.8909538152125226 13.11509120264068 -1.092030559230229 1.1760225859721682 -0.8130249856904449
Ni 4.0607641849420455 8.106650165461685 4.084994537671105 2.1522892253654997 -0.6057146238031181 -1.8183620600871717
Ni 7.637522075607666 3.289988713943522 13.748264403211406 -0.21232247038993754 -0.7404658833757957 -2.1491599357078988
Ni 1.8356606586928494 6.131481699749398 0.8320079650605067 0.559484646301301 -0.9741210538052384 -3.6192886983067156
Ni 2.586601652754751 0.08197937571144906 11.677988071752857 0.7888069936833447 -0.40082366999056135 -1.0513107129133636
Ni 8.954754751937676 6.003960938185741 3.6234031735778114 -1.357058073323366 -0.5450491876022613 -0.6265796401775854
Ni 7.6821285282356 4.868176647650761 8.336473836109 -0.6983401578503392 0.1314139676693285 -0.9290236472459678
P 3.8948323113932233 0.47958507390863164 2.355010432648294 -0.9909340115975191 -0.3699519201123693 -1.3360200217061444
P 6.189952573785467 6.4208698159250295 11.728545806149755 2.0474206122848675 -0.17334866022990147 -2.0273822055767536
P 7.5929156229797305 0.35546893363456966 8.197630620176696 0.9888478184924517 0.4489536927285688 0.058255284097467414
P 9.67862398476663 4.228761172038458 13.151182816636714 -4.115947153310414 -1.5148106788872235 -0.07784631885551754
P 0.7478911968273024 7.926525329713065 3.2933595424659745 -0.4686676262177284 1.4975724606320662 -0.8414405607186605
P 2.816026381012191 5.822052595282385 5.0946201028958615 3.480132881908439 1.7158406070824772 0.13324485023048022
P 6.24572941332991 2.534879945267394 5.080593288467848 -0.01601643003291435 0.7580203473197913 0.21654525022203355
P 3.5120729022272577 3.234343290715745 11.861522222230954 -0.36838997494188813 -0.10501130930608366 0.023292137758721174
Ni 9.24182430881215 0.5622956875535227 10.169827199756405 -0.9352385178074281 -0.8204927548223998 0.1860080008651248
Ni 3.298108364937454 5.93244230128081 10.649897575348723 -0.8989975331975226 0.8643534607610921 1.388347627465267
Ni 4.369799040459064 4.099991955466486 9.761460382600328 -0.41736203396521665 0.05390986264457813 -0.626922882449617
Ni 6.161726226341822 8.523840649593826 9.391025007873592 0.9663907750405163 -0.3562793077212832 0.7216796039072281
Ni 5.310082786195644 2.978381853371779 2.534863048883823 -0.14495905334361486 1.3608360523085594 -0.8053088479931099
Ni 6.98394179843485 6.471296134005262 0.039298172122653435 -0.7743717920946213 -0.14598363795338729 1.262472844446613
Ni 7.545699617778024 0.7640328752656435 5.706704739393793 -0.5913195314237106 0.5673177691924745 0.5763276860005687
Ni 6.847062317748708 1.5564385332992154 1.5231076006411197 -0.08938825805684605 -0.9882754909287497 0.17952316447172953
Ni 3.4776699879003674 7.9325704802796455 9.28894644521624 -0.09440833697925677 0.6037780689020376 0.015162823783367434
Ni 3.283070583559097 1.3946368868455723 -0.00851108387999758 0.5888785260823859 1.8329381581291337 0.5793243067350474
Ni 4.106018332273543 1.5603153146408268 5.997881056164043 0.45566915707553135 -0.7422854530830377 0.6358865194008081
Ni 9.246020244065662 0.23338129807702637 2.0517025124739328 -2.4022230783503082 -1.4214084145749777 -2.423698217504948
Ni 9.358831765042623 7.124050365759041 1.4628776253376936 -1.8182980396184556 2.307181478662426 0.5017654372129616
Ni 3.7394043562978228 7.586598252900059 6.266622730303659 -0.9877813249011506 -0.5964221427575986 0.728663748534545
Ni 8.142376629834985 2.1754281585499053 3.8407760869091137 -1.8159501082115694 0.14657113502574112 1.5167001826004525
Ni 7.896365285038495 5.070398198358589 11.279251254544382 0.6474040331221044 -0.32768144147893247 -0.15767264425554137
Ni 5.1326332111791295 3.1611725629727414 13.418921972017774 0.6565954698133853 -0.3074610006669995 1.005141670556469
Ni 4.588672915864273 5.658063805844249 3.6952287614509527 0.06472366543063046 0.23751645315706194 0.6858070583803351
Ni 3.7525084404452542 3.7471297583417598 7.321668590631697 -2.7625220487539455 -1.1095233166983536 0.18554700206830627
Ni 1.4036952258156812 2.3457061574284275 10.775440521346573 0.1808555101299079 -0.8485231785970547 1.4281860996184437
Ni 8.325336303271659 4.749629743139358 5.6706262670294265 -1.2624527898419549 0.5265336452965771 -0.3301828677445475
Ni 1.3768581365767785 4.430288093643915 5.088204170578692 -0.38988285470834144 -1.6470970218591763 -0.531504101927975
Ni 0.24445969357186825 0.2840760809184457 6.567966915231859 0.077369379219099 -0.6536986078815644 1.8617404270728068
Ni 5.357711814106869 1.1556563149906496 12.452448831745853 -0.23763112435805525 -0.4963905460542935 1.5481396320566563
P 6.364285704721075 4.51195394757132 1.166938405776322 -0.926526848966043 0.3052706778839001 0.6402694789598522
P 5.9713415310135876 8.84255337814523 5.442867709929701 -2.017942143209776 -1.3715292703563475 -0.9123487576934479
P 1.8721005259280437 2.1497738161609856 6.660551587698157 2.9484454603250643 -0.21261274793684673 0.830030519109506
P 2.3636069371341244 6.935467951345067 12.58468368432587 -0.25619243230001043 1.6004515540864954 -0.2927432348408507
P 3.908321257610888 6.81451800561465 1.5874321328966303 0.8949107647226588 0.141224268891531 0.051165981350853824
P 8.958134028651914 3.7864138501447706 9.610197386055226 0.1203980761747991 -0.924469452216382 1.1899913894474345
P 2.314044211991974 2.351666826077152 3.84235589877302 0.6455798354291721 0.5006284953950411 0.0017609485551647092
P 5.687801440929539 2.972111417690916 8.608471818837975 0.739888413605771 -0.3538503865648164 -1.5025925395544768
