# total energy = -340878.79627829493 ev
CRYSTAL
PRIMVEC
9.15355386104063 0.00000000000000 0.00000000000000
0.00000000000000 9.15355386104063 0.00000000000000
0.00000000000000 0.00000000000000 13.39715133103499
PRIMCOORD
 96 1
Ni 5.68041178316234 8.318438553226645 13.405993873480462 -1.4030777345865901 -1.0115835695270707 -0.09901189718953916
Ni 8.669468191304754 9.09898040042465 6.5937158606067925 0.9162606911533446 -0.6250508622378848 -0.6358829198563822
Ni 6.9399133375870505 6.55771584851789 2.3337434163404485 -1.574241728460347 -0.8865544223381635 -0.17525050523830465
Ni 0.2991628556785141 3.33398977933064 7.440670402688939 0.5432537862647353 0.4549093960913714 0.22869576954163837
Ni 4.276018624233251 4.078649695284906 1.469961896144689 -0.7026467556454931 0.3775510726158659 -1.3604295608987604
Ni 6.700355678765643 6.577267839624171 11.58018940062298 -0.9684905949923385 1.7109344280301113 -0.3494828536247401
Ni 8.660076645014936 6.030864747345457 10.433139255721063 1.3249640210022988 -0.5506356805511032 -3.3216930204695703
Ni 4.2948749452439925 8.678383752792355 5.072616720307441 -0.7977634315456842 -0.13301062273248704 -0.5962102838571087
Ni 6.972811210263071 0.9529673417996193 0.7085271773339752 0.7965087332029767 0.7800583009564371 -0.8562627133331575
Ni 0.33783570550292125 7.874115893914816 11.964875740994483 1.343313470043764 0.15616726335460845 0.7275088089944954
Ni 1.268591033436199 5.341025465630671 3.7402702686809945 -1.8271963705493501 0.507952282749964 0.5018070890841745
Ni 1.7411615600485855 4.222955472340405 1.3717607393158397 -1.1038224096588345 -2.0123391952007017 -0.08779237432463591
Ni 2.948249864906548 3.213794463218 7.78583535879055 0.19704214719209937 0.837094367934823 0.39707911534646456
Ni 4.977052702353929 1.9929117526497528 7.501359380326469 0.8216340675156947 0.10290429026540988 0.7762276143564374
Ni 3.104940400373471 4.214662352517235 10.529933511317218 1.0390918022496685 -1.510876376829824 -0.002900718586562746
Ni 6.544763569765365 4.44529529629715 7.122260369248636 0.03106843927003037 -0.657192737077752 0.47248365752970894
Ni 1.7953322919619663 5.877789865664575 11.140924079834663 0.5100009377488766 2.649978178516242 -0.032919890656472335
Ni 1.7983804254069065 1.2330203230246752 7.310691768180047 -1.0835921986548886 0.07178160071867638 -1.8145056624555589
Ni 7.349553181214562 1.2546410173098064 4.99858460716634 -0.8713172936734348 1.18294065324824 0.05743330241680431
Ni 5.6134169222508765 8.7796861336787 10.980693865078976 -0.14376246193235243 0.3651614407022615 -0.5134773263332512
Ni 6.473091242816773 5.282561716943485 13.593285654952727 0.4126368605754055 -1.023671096819224 0.03458005196771464
Ni 2.945375648985493 0.6287878233432632 9.2685243562621 -1.5390736651996462 -0.6821085264828253 -0.04349818039295089
Ni 0.6282413561761073 5.741026617013372 6.057709374834874 -0.6413346869995729 0.010730499043626681 1.4541215885372827
Ni 7.533191779329845 1.9928842919880867 7.448428039609619 -2.5235755480185764 0.5335183041445264 -0.6718092014393462
P 0.2512220325417888 1.8344545812823092 5.635994162917378 0.7422101197604121 1.4711605462974406 1.3663279286610663
P 8.551607031433734 4.356670587546668 3.059641292889027 0.00992882907793774 -0.18128796968163616 0.09937622250749337
P 7.4407408850538825 0.060656940198919956 12.101057738973754 0.7650199185660761 0.11558599949813642 0.677469227938601
P 7.365617668289246 8.985650249728543 8.285883938821453 -0.9899415657772628 -0.1725876136941608 -0.39608949773968555
P 4.930085817350963 6.821722649776038 10.217873298209511 -1.7118083459946327 -0.8149281162504288 -0.34853694477170294
P 3.9540149055362415 0.8280789986082385 11.758720315668365 0.6288064726255752 0.8207344385195606 0.41919471629858124
P 8.17495659602113 0.06389089078780089 2.215433732328883 0.06363557457277429 0.367370018317806 0.5165809049592394
P 3.6135027008762615 9.29625779383411 7.1453438014451836 0.04665523796469384 -0.3605995323631919 -1.0279362998534811
Ni 8.777031603050974 5.488516679439441 1.2422855502708268 0.14346112864184968 -1.0354794023080618 -0.5023411072107736
Ni 4.297849850257823 4.249326861093776 5.429972379478035 0.5406436023353979 -0.4364727866527386 0.778020444590802
Ni 2.9038368214385315 7.363521504448732 8.714552190272812 0.12984302363778283 -0.7196114085242897 -0.4724944561629862
Ni 3.16188465911513 8.959599235361278 0.1945798410784567 -1.1009474021038845 -1.0640438442093159 -0.30649400876803984
Ni 4.596987991340837 5.320649654674404 3.3516323390957377 2.133220381659507 1.1046307644927427 0.05692011022581165
Ni 0.8279362031675747 2.4593493981567045 3.5712654571675913 0.4956891491118947 1.3474064091662148 -0.5598428009716682
Ni 4.285016567705853 2.6095134497009775 3.465897067643883 0.2732085072420327 -0.454752558798533 -0.49599151084366183
Ni 4.308147598382621 8.22098066497356 2.378597661105901 0.46280371123778363 0.3841117565525191 0.4617601004646177
Ni 1.8924057309517266 3.8077502679485584 5.57638988141566 0.39769952253928287 -0.8771981779342441 -0.3825081595108251
Ni 7.313955010141371 3.3442875274554376 12.296588634301246 0.6887633127951815 -0.4188327049734722 0.43594416784277823
Ni 3.18826520142239 8.077324790244159 11.133019070696374 -0.28540942018359877 -1.0648133753854887 -0.02416451306134548
Ni 1.880368807588074 7.850591260420833 6.297571847000776 0.5565636159997641 0.6190177686699275 0.5226592499428354
Ni 8.357945291810314 2.7833760522631192 1.514735589635921 0.15928292616545472 0.38695899619332713 -0.3202527531150291
Ni 6.717445363875863 6.647365755303906 9.02812640119371 -0.13264552608358446 -0.10078364437798126 -0.25959065934828196
Ni 2.765691386150133 6.260326036227617 2.14247258499276 0.8206069118027609 0.6597355581042638 -0.3970222939666001
Ni 4.474431058324911 2.9999125230544226 12.650340539305855 0.2320654573448197 -0.07729533144805398 -0.9959926570673492
Ni 8.119284681270003 8.424784542305668 10.194629678819913 -0.40239512824273926 0.23017723918317134 -0.7028694131792604
Ni 5.587622207392495 4.565682837041452 10.741568254001118 0.1801029482345995 -0.12850450733201738 0.3514386917995302
Ni 6.446015030413971 3.6088343883930203 2.9776236193354157 0.3142415139239427 -0.01675305108862276 0.17473422772351843
Ni 8.141866498713448 3.631342977405356 5.0856394814249075 0.8739215640655015 -1.5759383994364795 1.2258415663768243
Ni 0.001757482346632154 1.248956660344918 8.773472701299044 1.598549451967776 -0.6969576756805158 0.9848806063145877
Ni 4.670170654681066 1.2182831012638535 1.1258431912525577 0.26077670923658314 1.2120419414895707 0.07655331107570687
Ni 3.6142715994029135 1.9147861702096205 5.531831296440813 -0.6492403149998948 -1.0063801709492604 0.8219040333476297
Ni 7.9178790350567345 7.598758685834667 0.5154595033579332 0.5092969697033164 1.0981143035304637 -0.5703028199627275
P 3.058321350418275 0.7067248425732884 3.6797817538736273 -0.39510862188365503 1.0194370041332184 -0.954891259041349
P 0.3079411138577861 2.6813230799579006 13.04116250684896 -1.4307230071076842 0.6410066142361928 0.11970336410061967
P 1.3015621345433295 8.477655469566853 9.850576879515781 -0.7134477029157391 -0.4641136882984587 1.4149757715757567
P 5.559594025385267 6.900122838832832 4.8019278247105355 -0.5176875077598568 -0.8339655924978541 0.2673019119496106
P 1.5835831298544578 2.9580075533519117 9.46790065957824 -0.6450036512107279 -0.8493976107822081 -0.4391459626095276
P 5.881442133666169 2.8755431863685312 5.703367980959833 1.354644064565235 -1.3025424587739889 -0.9506425110673241
P 5.040257991955466 6.437072008264702 1.2849099893089897 -1.0546811720474933 0.3662073654682725 0.001620309212242371
P 6.177614523289242 3.1806311374792067 9.27273132962935 -1.0306495850195863 0.2333294116589078 -1.8491487064507253
Ni 7.174939987233547 1.5959678882658814 10.22036489557802 -0.6910778198609712 -1.3543535299080094 0.5464959473511168
Ni 4.403097412870201 2.001717471490691 9.930491066385766 2.106604578844191 2.242691269398841 1.3141563888638335
Ni 0.7542061573048002 3.862149838709157 11.344788370622439 0.15857947234052688 -0.4385684928395027 0.458183695967269
Ni 4.848436116663677 6.695385299004074 6.959685929342051 -0.28189189394864356 0.7065682021870864 -0.9561706399744049
Ni 2.189466015302004 1.8656956607044735 12.512832191368112 1.4812300147183006 0.8868472709882339 0.21293465005263973
Ni 0.24383511455360055 7.469373201617763 8.262049915206031 -0.285799713643482 -0.9348227704262481 -0.3110518033420514
Ni 0.29763512753448845 0.2518774270002204 4.252483921829992 -0.3099459718723824 0.11937169179281377 -1.6904270521053792
Ni 1.5816791906456062 5.197122444946275 8.805103722116867 -0.5555446878169464 -0.0027757629729242518 -1.080865286642029
Ni 0.5534696358807979 0.8071988268327042 0.5235430067970522 -1.2157222185546352 -2.100543717362092 0.6147759626744379
Ni 7.1686423421581145 6.706918776903848 6.690738039694777 2.4685662816622322 -0.6566111535426692 -0.48865203975945526
Ni 4.493635214383422 6.011926044349718 12.378244742476253 -1.6427081487628612 0.2102329348507605 0.21563842213704798
Ni 2.110251159949115 7.979207846111085 3.7334508710339063 0.3962321939651369 -0.29835569593162165 -0.17290591626552804
Ni 1.6089933954495144 6.121466623735901 13.442299614269249 -0.45585556205472455 1.160076604165873 -1.2721031684475252
Ni 6.252920811131652 8.6970753098331 6.226594274792335 -0.1655700447257471 1.4021472523525207 0.8788627101208606
Ni 2.3598319602786586 1.6933800087495239 1.648010418900137 0.6769881745371245 0.27790077051137946 1.3447825983901227
Ni 0.34013782430593165 1.210749726413446 11.085017834103983 -0.129083519763939 0.36541006637795775 0.8811044549671858
Ni 9.188886606719553 7.271976812007751 2.767569695408096 -0.45198630890730546 0.5489338673686481 0.2941961652372933
Ni 3.248797653288424 6.295741136223033 4.9710662781107136 -0.4788749057680333 0.6697788012728788 -0.06442773145676646
Ni 6.939812648494275 8.24899053987301 3.849430060225407 0.8010055926320656 0.21508820606053283 1.012619724101069
Ni 6.090930367963167 1.0990031405400849 3.0432436164527936 -0.12987516242729888 -0.07959209790203067 -0.6237740524079902
Ni 4.579294171673963 5.006032853965583 8.52638899047034 -0.16951411697515967 -0.2809364720139097 1.2178521204134445
Ni 7.217842694309926 5.5119955451639795 4.448912780793967 -0.5905721117347249 1.9396595081477888 0.2831021122066608
Ni 5.108168208255799 8.63438261924933 8.488355058707365 0.9620080725917883 0.17761412037447477 0.8060904633541408
Ni 8.172311218947293 3.707949069899963 9.86819472468538 0.0015146368723135202 0.4491691511734845 -1.5270553005825316
P 0.0548398567026453 7.483478828160265 4.981515975230065 -0.35423013850173835 -1.0986928017417532 0.7115895666610776
P 3.0673467545525424 5.419288351379134 6.898032167124651 -1.636017624116563 -0.3081127753183855 1.533510826399888
P 8.43533858993935 5.821074445770132 12.375899601969968 1.391568705505726 -1.1403953236868618 3.511301079981127
P 8.478918660003494 5.247512759103619 7.98999439401354 0.06404206598257357 0.7614463422822048 0.36234196897559534
P 2.728399807607532 4.392790511191514 12.79679831688059 1.0366687946304727 -0.4677145182758397 -0.561806352455942
P 6.052650205600585 3.098532912651374 0.9080673292647232 0.9615054219237568 -1.133823584006615 -0.9341709957748622
P 1.4406137716667098 7.896240033663826 1.2244342894770661 0.5559732907139329 0.6136793871761496 0.07519371172401888
P 2.789289248075225 4.06174308125246 3.2370060451689886 0.4039516740965818 -0.5237614818680786 0.5029196054220629
