# total energy = -381168.0700192186 ev
CRYSTAL
PRIMVEC
9.27880918001167 0.00000000000000 0.00000000000000

0.00000000000000 9.27880918001167 0.00000000000000

0.00000000000000 0.00000000000000 13.58047515134993

PRIMCOORD
 96 1
Ni 2.621115102903881 7.156958852597422 2.325832778049231 0.2304286930723451 -2.7715260520247686 1.435201097483696
Ni 7.137380565447966 7.5818262413587885 7.666707858901215 -0.09207891751513174 0.5234799460719177 1.799820035418926
Ni 2.1628903955158334 2.9617494628772048 7.313357818970727 -0.05573200345498144 0.1614251693194381 -0.7120767907101414
Ni 8.58497684813703 7.753873919238045 10.023680320208063 -0.9379415185608878 -0.2108623409046433 0.07111928454432914
Ni 3.3349895579420887 6.117945648742096 4.492882863673643 -0.8335992102973708 -2.384074175355423 0.4274487287772573
Ni 5.7024220207198315 3.7679109529810515 0.4824925046442987 -1.248582459617766 0.7479148834546732 -0.6312662470199774
Ni 1.7261739675649617 0.8715956517047804 12.010666764792834 -1.2347316697776025 -1.3074157277058904 2.488535525695308
Ni 3.8446559828451075 3.6646934808243885 9.574683388445674 0.08291139208325075 -0.7721133350777477 0.1831453346053491
Ni 7.560716950711863 5.5208171694927355 8.91507975980958 1.6797032379299717 0.5064065355293988 -0.38745804731693273
Ni 6.378708020192896 3.8769276808099464 9.77643438993765 -1.4977562945080978 -2.1395265263831926 0.08240411342952905
Ni 1.3641333950542933 7.483665720148313 4.540088804845616 0.02452215351108035 -0.2079629078696612 0.7180970287622923
Ni 4.437154336365757 3.6825366306767133 2.8945968658354753 -0.2353523556262076 0.05363064084126248 0.2688088355124403
Ni 0.34488127088721304 0.745789846734545 0.6285474546601548 0.5231307902626152 -0.6610223952364873 -0.07309132066903541
Ni 7.078441570199932 8.287887939155365 12.265232747542967 1.0002758578237354 -0.89034217151537 0.254534070760981
Ni 6.410153904150009 5.958025374324613 12.741568762365624 -0.26556718864669104 -1.1725618811170773 -1.244782112035069
Ni 3.120083060942765 0.902737190724215 10.411729394557561 2.240742373202586 0.34980861239527494 -1.1561525865211186
Ni 6.635192860659858 1.076694447511224 13.173943635550035 -0.7349007305831924 0.9558968174877278 0.6058866306046082
Ni 4.113620821518713 6.836097634764143 6.590700043261582 -0.10805960921410422 -2.4458516136735358 -0.2414129599979907
Ni 5.908253842443244 5.206970731320589 4.5149376649653705 0.35331328311442384 0.8238714414866457 1.103919854468647
Ni 6.0723217445175095 0.5143782041515943 3.789482328319941 -0.3836618134992941 -0.8536371027848525 0.41765128307086136
Ni 5.4590388586675775 1.7760382875370855 1.8520233829378523 -0.5173224111109541 -0.5054439145058134 0.0893419781999429
Ni 6.932365278923202 3.930559197266753 2.685063727171816 0.19663899821640973 0.44550301517580687 0.5334242017688232
Ni 8.288119909382255 1.8661819177062675 3.551511495601469 0.2798342400886665 0.5030162789009273 0.8570682399535885
Ni 4.8024610496710265 5.631587592236914 8.769659480334491 -0.2727534219824851 0.7483810244578143 -2.3381236767672378
P 3.8682519943242872 0.10411937239880854 2.9740021302614976 0.33924677771902867 0.40176443663727573 -0.24412110295777312
Ni 5.285116861355056 5.856255396383739 2.3836583162081952 0.02226678181800036 -0.12724595233456795 -2.311068729531975
P 3.611386722685227 8.516638419295441 12.429937175919816 -0.8467141504127741 1.5462069338103177 0.16102176323343237
Ni 4.2992341182664555 6.900399781657857 0.06880051353355127 0.060530710395205425 -0.9806488276214272 0.2514317776865735
P 2.059311049805223 8.009171072143333 6.622762968022222 -0.5760255813791175 -0.33924472083649965 -0.26927754761874273
P 7.440482142710601 2.6709144712124764 1.0342559584422801 0.7683173583704251 -2.635747379628841 -0.2091078201073818
P 6.280612450645949 -0.04112275394202755 8.979491396650385 0.1067066947306356 0.5519826814973009 0.4808600545188622
Ni 2.7469357539686374 0.917967427940859 8.14156297579541 1.6430084536120997 -2.0831985412154252 -0.1811406454704945
Ni 8.22991394005119 6.303178514317741 5.55896328148332 -0.15718439176521315 -0.5024784041195862 0.22125294011034796
Ni 5.411735490000312 8.487836995924866 1.5465445747900557 -0.6407304777566707 0.8202248458729938 0.18282754625461417
Ni 4.109083483880759 1.3557639092681273 13.30563313335509 -0.016864379855506442 -0.4850630368566162 -0.5173596921067928
Ni 6.255476156860225 0.9697747305334077 6.101069350795446 0.24610702303955034 -1.0512289518328348 0.9153623477087912
Ni 4.067570092076649 7.233063644635264 10.594006031561728 -4.315053639230711 1.7630943978631186 1.6407322559834132
Ni 5.339407173256228 9.076067097270752 11.18640046242073 -0.4555030638113123 0.6334030908573222 -0.21993190730607926
Ni 5.875193445706982 2.8094842059470686 4.804799309558071 0.24246068453621467 0.5601191945615063 -0.4436258527577521
Ni 8.295709975206071 2.1059185077918214 6.460231636730873 1.7949483091489213 -2.4162263346079356 -1.1350559137518195
Ni 8.241299038786918 4.576058108227071 0.4420879305247204 -1.1661297523384886 0.5333293280621718 -0.18169883196680967
Ni 0.9474684735157325 0.7548468922732108 5.492079769904782 0.7410099288047238 -0.2866165531178225 1.104029640573634
Ni 7.169271832240706 7.219136152212831 0.7908199071782959 0.705083904332076 0.20106078143318923 2.1810842952203213
Ni 2.6400995462725017 1.7349424421413773 1.9983529857023452 1.1363576632823784 2.268318225938326 -0.9454200863261203
Ni 8.726812723666223 8.777911125245398 4.198240776645207 -0.39246758471638216 0.8640742389577765 0.0980886140443214
Ni 0.30457598002474334 2.9623154702308145 1.6335955778943496 0.4721949226446964 -0.33171138857393195 0.44981681205981244
Ni 1.653409546794326 2.4966862732004604 4.2671888232430595 -0.09368405721872253 0.9066157118644128 -0.7031566054023762
Ni 0.5809286064843194 1.5726931866459253 10.054440500174492 0.04502361589854181 -1.0171008998008741 -0.6975814253074437
Ni 1.2251368351022245 5.198350717689383 0.7964660625007814 0.7802950995575917 0.6034394546156963 -0.287047470007654
Ni 6.128477097042871 7.727039603391491 5.663736809921956 0.38255443936772826 0.10264769416991354 -1.744982518753756
Ni 8.956908631122257 8.422690477405276 6.701529850383844 1.3518058237854913 0.5445971876665072 -0.20229182562681292
Ni 2.5803440158258177 5.159797265980381 7.592870807801442 0.5574503894800915 1.827214368271479 0.10386254041362113
Ni 3.191715467006181 7.69833096811167 8.589161591030113 -0.5779932466284498 -0.13364002878636985 -1.3973292621385869
Ni 7.228312894388571 7.377302731715031 3.4179068516032154 -0.7214057814205511 -1.1214640339999975 -1.0448333327191361
Ni 1.834021565450335 7.194862787671134 12.920382547822786 0.6414133627563082 0.7019692699624943 0.15440271525501795
Ni 9.209709784386217 4.33402965229985 3.589618636593935 -0.34759540679404005 0.31640869677859057 0.8204379903250645
P 9.122516815503067 8.915951967862682 11.894106365185499 0.7680247668306708 0.3281025881767511 0.05623516834364508
Ni 8.876767557136542 6.639822986388568 12.761436548358239 0.021845892230497863 0.3855937404146843 -0.14612324885504513
P 1.787061512718865 3.0009895464577987 11.079711787788897 0.9933840157999086 -0.0630403641909366 2.0478317316803567
Ni 1.2820159347354811 5.232877166259586 5.668232392919071 -0.08488291398732478 -0.4450882962358915 -0.7536882956033407
P 8.34491549973383 5.814742004579631 2.1721293057123803 0.28077140719095517 1.0320112412538032 0.5169992234435805
P 6.350203518712739 5.650757611787046 7.240403182614042 -0.9757395632452681 0.4597860074573823 -2.4668906937320223
P 3.409581904100612 3.51515619376247 4.991164189840935 0.4205646000629144 0.7859407278791432 -0.3282108316198412
Ni 5.18297573105116 1.985757930263164 10.923346225128265 0.5656342108424646 1.5634613500153913 0.16956862436217893
Ni 2.6614315283372414 8.824806226313338 1.0860920253429631 0.23239327299788365 1.9606332821859784 -2.778732597075537
Ni 1.6576777989690892 0.23081594304029887 3.1693980754176154 -1.5608305972607637 -1.3455644708614698 1.112854952174748
Ni 0.32663913224463853 6.340637066555825 7.967596440199325 1.0697023280466738 1.2361336923314519 0.372516595515752
Ni 0.09827372268119818 4.361893915953793 12.022699524402036 0.8518445296608038 0.9526685403584174 -1.5941672637396802
Ni 7.015280716822514 3.503214366482209 11.986738571948749 -1.3859459600023099 0.9243745785097306 -0.37342368071105364
Ni 2.2338454485167323 4.559272742609361 2.896443348841514 0.08836573032960265 -0.10223786032600456 0.014266537221343172
Ni 3.9741695999219417 1.7114113823257264 6.161855756930426 -0.016021829349553054 0.8031753465898748 -0.28822657791741974
Ni 8.668810888134821 3.4674074422595766 9.538721508111479 0.03752756463181279 2.025151773584338 2.4735007428493723
Ni 7.584303683381966 1.104484480692562 10.921594385974796 -0.6466846384575765 -0.5193497259536282 0.2199203373418535
Ni -0.06649287371645651 4.116998308022222 7.450153445410069 0.8642272195958729 0.18331554163462624 -0.14844315523747337
Ni 4.039520252241195 3.851949126778507 12.11135297783368 1.2909305855666733 -3.3327292236790735 2.273253201346098
Ni 4.7210951728873365 7.5443769679297805 3.7064379149744795 1.3164310438306233 1.260367882288468 -0.2535017728417247
Ni 4.795390597155442 8.742558862667469 7.354343246538435 1.6583821078546923 2.7371203208513895 2.1661610982515853
Ni 7.528825683919122 0.44817297351648056 1.8492258220015672 0.6761314829637839 -0.6830207538844495 -0.2197529585260538
Ni 4.9476558540855775 5.37796062496523 10.889531461214156 0.9533701944111324 -2.556476669621971 2.5725069836119565
Ni 1.630843483122535 4.2377063352863376 9.407140572372606 -1.282110159061566 0.5309495149760857 -0.04555094915692155
Ni 7.77399965612296 1.7288091493424242 8.72917603633777 -1.0685113930623662 -2.5126483595831113 -1.424441802084663
Ni 0.3359281480101936 7.720674340365648 1.626547394520545 -0.32713533916747534 -0.440172604101829 0.24683155991040068
Ni 4.88547855447017 1.8668499919597088 8.370936991905364 1.4591383250255838 -0.16256571068178455 0.4341490236155685
Ni 4.6744505996644365 4.4250547693312114 6.65111900855717 -1.0075651923962972 -1.200467349278094 -0.9511281924544909
Ni 8.737474075294054 2.3094955789098712 12.627193522295586 1.2832648414912997 -1.6386015827936555 1.0691264009385457
Ni 6.7724542833147945 3.4668692713331932 7.390318117205336 -0.942618612321583 0.7304187835524388 0.25756874382224676
Ni 2.4387679469507404 5.168500788893267 11.718483562169423 -1.8967398259661268 1.8809684220644831 -0.9634376059494634
Ni 3.742041633278357 8.76569093369287 5.417632173167838 -1.393254063627949 1.1579778126553153 -2.045895690999909
P 2.025536184770141 6.39783164569765 9.824102415801585 -0.902373134537975 -0.3808248582711312 0.19092395010950344
Ni 1.374200902901289 8.600101306930211 9.620965160233718 -0.17672220468782468 0.09390028699458666 0.4889227769223386
P 8.14270241354989 3.994518028224671 5.609578257109658 -0.149016254132124 1.1289055778797075 -2.0560294369998005
Ni 2.0420710225428103 2.7564465332710992 13.441926776223445 -0.17661421835505067 1.2239371502652598 -0.3190836725075924
P 7.746311689841454 5.882969087712311 10.99556783556798 0.607675861294547 -0.9535727973402417 1.3274155678665849
P 3.706605861418747 4.814894653832293 0.8208619073222753 -0.7888571301949898 -0.2828912817474354 0.5133976221352513
P 0.8152380211415711 1.3023643630382107 7.817097868517178 -3.3857222309363366 0.3755862355800112 -0.8737156187022823
Ni 6.142358195419927 7.091812334077832 10.139970706471301 2.8048444636712406 1.7269215474869872 -1.0757284796360955
