# total energy = -340860.2324969805 ev
CRYSTAL
PRIMVEC
9.35769545016514 0.00000000000000 0.00000000000000
0.00000000000000 9.35769545016514 0.00000000000000
0.00000000000000 0.00000000000000 13.69593318166676
PRIMCOORD
 96 1
Ni 5.984620668793447 7.81788682137706 13.17205052613278 -2.7487591906418984 -1.411017558258957 2.4567402355615817
Ni 3.7775800793120373 3.687128593268072 0.9218527989190903 0.029596996930826448 1.1442941445206356 -0.9720348607001712
Ni 3.270346187214672 6.203581389044092 11.87063555556334 -1.911404369956837 0.3802993247849644 0.7889162655676993
Ni 6.527872331404284 5.430663802371902 5.2740711877838296 0.9122703390470288 -0.40532798561881805 1.2843166797945815
Ni 7.447069416301102 5.954114581011186 13.262799586898057 1.1048066279489746 -0.5472081429267931 0.7504808444096365
Ni 8.253057099360564 5.042824748929095 8.912382554443774 1.1807737275039085 1.3423853018025396 1.6004225006207728
Ni 4.6970298219911015 3.677836401498813 9.54917467842892 -0.9915608465482407 1.0187574615676906 -0.7510922527413904
Ni 0.6461778927107934 8.84251706303545 5.127073018534145 -0.4877614096243858 0.670681001372174 -1.8455147092425634
Ni 9.078761447130832 2.8499329952534453 2.563522940608397 -0.39848062367968146 -0.8909774911065236 1.0745457721819043
Ni 1.391508056870443 5.64931571866647 6.818123720109031 1.034194107837735 0.5048808429134918 -0.20624592517855445
Ni 3.342774751458443 1.0144490688034524 10.37186210512526 0.4747210315006599 -0.8069016464015265 -0.2544898477866069
Ni 7.815640974423765 5.5256256977137355 3.3177990617986723 -0.24212695534587977 -0.23851944050027954 -1.1610906472526843
Ni 0.3415409185006266 1.1312331103748041 6.940702046819884 -1.2146050742310566 -0.14946799695756194 -0.5976241334854998
Ni 4.876164189603312 3.0376109389838155 4.665327820706211 -0.5302871988017384 -0.6556906986109288 -1.3603406007293797
Ni 4.950333285235887 1.2745087882994004 6.817849539626816 -0.5751434358844805 0.882158864373629 0.26766212350250673
Ni 4.890444033148014 8.264024318649156 10.795545811712223 -0.502857898946192 -0.4364506751655516 0.1779177676578226
Ni 7.693831850294415 0.8042799036053938 5.317295319708688 -0.2118948959342157 -1.4341875686175172 -0.031012646331430457
Ni 2.319885041188856 8.265942646255096 9.708772984856155 0.19926152344092132 -0.5462025844804141 -0.24619469765735016
Ni 2.8674973899673413 1.5918001743218222 13.622865935454678 0.9988625224159764 -0.5639506524924546 0.1837891388369351
Ni 5.263713154481319 0.9947885502664805 0.8660107501949685 -0.5373556756127456 -1.4781629457572028 -0.049613292151753266
Ni 1.6055559869107554 8.349441364439485 7.009592466342651 -0.041800995196186075 -1.6849673145423887 1.9290369954369357
Ni 0.8532131656394413 1.0201011169692453 9.29266339711918 1.5496792086296345 -0.5130063002341037 -0.5568582644220474
Ni 0.654028063582124 7.546317136245474 12.683804334255962 -0.033926991764748025 -0.9240783874255505 -0.5344397875175313
Ni 8.728961426459461 4.7395699063647685 6.370635907356266 -1.677612416839214 -0.4744690633908539 0.7706578335781438
P 3.1726331293550523 5.786050367339594 0.4861781411406583 0.49605218887826824 -0.3145227926097873 0.9559567241913858
P 9.038897663709841 5.9097871767705215 11.101128848951467 -0.4124797661722509 0.08336004958489514 -0.20880597259624684
P 5.003840588898146 3.7383151884119252 6.596989207161508 -1.5270270184477572 0.46571908511236565 1.1756801150310847
P 1.4855061095614868 6.436410214231335 4.67460036131463 0.16182189053722454 0.08913346173356262 -0.2603992712925064
P 5.33260450977365 4.928192977354651 3.594045723210496 0.8616113792395808 -1.6659223820957954 0.6150659831110311
P 2.2747903059058157 1.36522228982125 6.20785972749012 0.4960917838669521 -0.5390875707021877 -1.0911196173801854
P 2.3631737412136213 8.66457112276936 11.809017001321429 -0.027400246389823777 0.40468341005628367 0.10727799385307332
P 8.926857973827325 8.570778939382368 9.382316671725162 1.7949981885502506 -0.4344912374463356 -1.031608606498746
Ni 0.9634121967898185 0.3246222047858026 0.08329472041946434 0.5169974236713677 1.952528393690657 -2.2064042620423487
Ni 1.1665864844979263 5.2900831407912605 13.66454230452089 0.8419779212793693 2.0944928831823217 -0.4076365791473367
Ni 7.049114693872827 2.6594103120489 3.910859866755342 0.7405859538934277 0.714029543561138 -0.5761222548579821
Ni 6.888003248060812 4.548064665118157 11.061726399925465 0.0586517482049377 -0.33819365386416594 0.1733761710337272
Ni 1.954766472756885 3.9774323850683957 2.4987686225579484 0.43428426364185213 -0.8915156229981808 0.05892325669876949
Ni 2.3138493275018748 5.278058501895492 9.805425815799905 2.101505824165045 0.9545521305343753 -0.6200438959415967
Ni 5.336347588029142 2.6875021143563678 13.067331361548444 0.06565517610596436 3.0378481165596134 0.9612940772438993
Ni 4.923149179405375 7.048394151308646 4.090359184497463 -0.3493165032502048 2.484744948304624 0.9703721282857675
Ni 3.0905942116903056 0.22600238621878996 1.8455266054094777 0.3205821114299898 -0.35508811562665943 0.6687485602361515
Ni 0.9946201117449833 4.278394592201233 4.637525171193981 -0.6159902946975133 -0.198698966069232 -0.39374670853912186
Ni 5.80965983343611 2.2119065912135496 10.729367252385561 1.0526446012334387 -1.2224711072426948 -0.28455170016899384
Ni 6.935867861252916 2.7076211599796376 6.566885500291713 0.8226085156138221 -0.09381312659741907 -0.04396612116830493
Ni 8.728633907112107 0.48815261492043044 3.1817437818289203 0.3878336854887966 1.010144265977383 -0.9521851729640957
Ni 6.520648190371185 3.9352385354333617 1.7536686577110114 -0.27289251866351066 -0.42511930931313235 -0.3163181939473133
Ni 3.6965330773849954 8.446162506561398 6.075214391811121 -0.7192985052695612 -0.2557633151823918 -0.845210569284054
Ni 2.617908931891132 3.5251188086747374 6.255946118068862 1.452132326021396 0.061808805776680645 0.2473753482290127
Ni 7.3889674840802275 7.317427900922136 11.379923610885717 0.3273600535837717 -0.7521939704460013 -0.7077126002041747
Ni 6.461479480847493 4.564871086485316 7.882488608988598 -1.774254528244996 -1.7963367048560162 -1.756461208817317
Ni 0.741384959678361 6.759072917550388 8.889550712854836 -1.2947193631851446 -0.13659036966394542 0.33492295353269413
Ni 0.6152553874726098 8.385562069604983 1.6746840919027461 0.01794887116893683 -1.6323815700258724 2.7330417799066415
Ni 4.422334666516179 5.9258356247909445 6.007817460512294 -1.4016651705097796 -0.5578239707694264 2.4443050951220227
Ni 2.626611588835151 2.000450742865165 4.209691326591241 -0.643654079161369 -0.08887995096185983 -0.9648995352069704
Ni 9.170083198869198 2.9646677014799145 8.37328290138784 0.3174859890031693 -0.6400853879735041 -2.4046093191942974
Ni 7.192521379536366 8.259916290263753 3.3611326787625035 -0.11637815638212859 -2.758752297298868 0.15237000109570534
P 8.174508602169064 6.795567930541436 1.4465097845262067 0.7054685413650043 -0.13196444085615983 1.2694942700697684
P 1.8742341440899737 3.7550280328226973 8.350712139507225 0.4165590784479471 -0.008729923673830126 -0.3329897410657233
P 7.2102448550761205 1.7123927980181366 1.561309058852584 0.6413056335338504 0.8572677575589043 0.9886339027094329
P 3.9089527683841685 2.39361432512641 2.4925916076668226 0.8524160858935579 -1.464533527899226 0.7788113159232135
P 4.7146129320962755 0.95979076857763 12.249232013023773 -0.7747841970416914 -2.53164778350375 -0.3664709035423044
P 1.7565330483460266 4.333492704122076 11.918064100138679 1.2783257523184695 -1.485657711472351 -0.6827448745152435
P 8.636834912896163 0.8738506276010966 12.365812056830201 1.3119786644862244 0.26684682669006304 1.3885625716895504
P 5.2038519754803625 5.8940288173149 11.375663987830967 1.4970474413665313 0.6865951014992692 -0.14809682764164817
Ni 3.2530718810655763 7.852061125849703 13.658160356095275 0.08490065459913766 1.0152659034746645 0.6502726129191511
Ni 7.490404904804062 2.615139053982068 13.004562746512534 -0.30648989500298185 -1.9501470379426737 1.2667267346269604
Ni 8.753160427381218 6.798431385406888 4.975006721326526 0.0003717815171219404 0.11405979266159713 0.4551724199447709
Ni 2.8684331595312145 0.5605652710816155 7.976867519892138 1.6064604792847366 0.27500519413113933 1.570842730081127
Ni 8.153800021720555 0.9892862252309071 10.223260962612663 -0.9294314242073478 0.26911325412673653 0.6748150781452055
Ni 8.797693700925933 4.112987964091039 12.508468255303514 2.5464575948230728 1.5643213840228414 -0.6756661132915912
Ni 1.1140991696602893 3.1013555616748456 0.5411330803182286 -0.10029616321860146 -2.011269873395923 -1.0762334442969723
Ni 3.265470827786894 5.066527791981999 4.169343750305728 -0.8164697497059357 -0.02002889362641712 -0.1261033540896925
Ni 5.254879489798357 5.255908836318618 13.37109339121639 -0.756993962937806 -0.44814662344624107 0.7746127044608337
Ni 5.558124974667045 6.254412391753674 2.106776623790672 1.5504178865678717 -2.3973356683510194 -3.6183556449694843
Ni 5.816378658904719 0.6545427368422541 3.1262610686173256 -0.9767325232861566 0.6272159882100037 0.9880080961999759
Ni 8.956830672958178 4.675348041196164 1.383631684451324 -1.4616649481021795 1.2574113707633054 -0.4290782939608804
Ni 1.3767884016307206 6.189367049368862 2.2494066207161962 0.19425764246842672 0.3917181081448673 0.19702569213186713
Ni 1.0420074824595125 1.6340408124350496 11.567777479294095 1.1062860407079784 0.8684962792848719 0.29568277708514884
Ni 6.879964987507142 8.199998965088964 9.274557191827801 -0.5882421780499676 -0.6097849372177498 0.3238990916183648
Ni 7.184052664983315 0.5094404367289774 7.725123048740765 -0.22500983604961894 1.1247401336481082 0.12168645596891947
Ni 2.335081938906154 8.024055571689562 3.574953216798795 0.5577540367634395 0.15169560073650004 0.15758728363058663
Ni 3.454168760341886 2.761446625293613 11.81212656358218 -1.3477277970613757 2.8338601341773 -1.341514212051496
Ni 6.775954200482658 0.1250740241377026 12.074923409052454 -1.2281835842464397 1.9671877954750447 -0.9894674543543218
Ni 8.623771569784497 8.003047544980612 7.046626482602489 -0.003190996133471924 1.0173883491343059 0.42283051327895566
Ni 8.171205335608592 8.567990346082027 0.18832736780769874 -0.8281682690897867 0.03553830211592589 -0.2857670606333337
Ni 0.481951270020644 4.002417432423805 10.213659966887326 -0.22936117103977918 -0.83464924882844 1.687263566775733
Ni 5.126014663157405 7.581801518107539 7.851823440380478 -0.46769214967833644 0.16750505696493087 -0.5433057225485933
Ni 5.69412036538471 5.902787620432752 9.392739273127578 -0.3846367758180537 1.7589590355385059 0.4814542364594354
P 8.835723376001733 2.80457624449252 5.304709219074596 -0.3201504232092099 -0.5278806462427748 -0.06720452287095523
P 2.9880057944029073 6.735323086019291 7.97211568204679 0.4260058256831437 0.5459639861070468 0.2769139811180779
P 5.131011672628487 0.36576237789191557 9.04643809485553 -0.4680456763630133 0.17548884650135585 -0.713875277371461
P 7.343779171840799 6.4762459245654105 7.57672777553222 -0.9616956835576921 0.35279983381311497 -0.19721955331022809
P 5.574538372817378 9.028183102203494 5.5541807059553205 2.327369266464211 -0.06806018600303118 -1.6155961230374174
P 1.2637193652279448 1.2970982655712948 2.328911474401975 -0.23391125230430682 -0.15744638717734818 -0.19854084322481289
P 7.261450165611253 2.5053826418354026 8.99874847057187 -2.1510931481748696 0.9594112583988897 -0.3137015822600726
P 5.296530593086345 8.14823219281551 1.744135973163837 -1.0357527105741064 4.325243949500152 -0.2932080902924112
