# total energy = -340890.4744353887 ev
CRYSTAL
PRIMVEC
9.04045660999729 0.00000000000000 0.00000000000000
0.00000000000000 9.04045660999729 0.00000000000000
0.00000000000000 0.00000000000000 13.23162207208891
PRIMCOORD
 96 1
Ni 6.505340763416198 1.892149474626878 11.287010000437926 -0.005991184586428391 1.0273194922050888 -0.1435410899501657
Ni 4.7935574373826215 0.25562162103755104 5.901078455825273 -1.0182139303593947 0.028888400899576058 1.0222117386648784
Ni 2.741265315460784 1.7993039858767799 4.728624358225116 -0.0391859261708422 -0.7041454516782066 -0.25182309958772114
Ni 3.480639054255991 4.330984397180454 4.685595401238265 -0.20878977464633075 0.1961430324165977 0.6289735943310587
Ni 4.997790391263193 4.556579949884441 2.6331061973636762 0.8213584452568048 0.18410435608450873 0.4052102290940312
Ni 7.213615331685569 6.097806022679522 2.606708968288563 0.45827419879854625 -0.7062280452388482 0.32774417639606784
Ni 4.9840127354837245 4.408180855645603 11.604939352051382 0.5619688461757353 0.36234582563033724 0.09068460827076641
Ni 5.675408771377589 7.786075121231208 12.599216899634213 0.03381489166691596 0.6759633328170359 -0.1694395549834824
Ni 1.9740017682143547 6.346508982320728 0.42143082649692787 -0.22460900106677445 0.5006799174582668 0.7153919711263035
Ni 2.5156968841264415 1.475366346841384 0.3369965785192826 0.9784870440834181 -0.3151861372253991 1.2955593425879366
Ni 0.3955606560385753 0.24643199695629742 4.787518412408419 0.7700957904270866 -0.8855588911941137 -0.24892520921463582
Ni 8.578010074397698 2.325169262372954 1.2266136646891614 0.467813248637233 0.2707795860855659 1.2201008072383053
Ni 7.149862032107604 0.6863351883181791 4.873537452418964 -1.7226596868868398 0.3172656454622471 -1.2619501391739234
Ni 0.700261107585039 7.053472684390609 2.4363786305094273 -0.28959363346827544 1.199312152627728 -0.1850736619763135
Ni 7.094868934924854 3.7317829371652147 4.161450523623214 2.100699526213666 0.36629401164480785 -2.8406537600603654
Ni 7.5102327110322795 3.8958581830586447 12.812378208401794 1.8468583677546515 -0.3917523038169124 -1.1884695534862693
Ni 8.16911022472224 8.763050139026422 6.787266496826415 -0.6912644819504804 -0.008974949805100671 0.9620600088756464
Ni 6.887200607555965 0.7470310054915392 0.2883607303812322 -0.10778707227900791 -0.6545002778472534 0.007130954617826428
Ni 1.7306869206758795 6.699728660115771 9.231742664266074 1.2828622067362423 -0.45678835828163905 0.3292158758455878
Ni 0.2129027517103029 4.8307317947088535 1.494564660367159 -0.2502989496337109 -0.9194640285819907 0.22341498075867328
Ni 6.541773803305477 1.7603124967843577 6.94832132618709 -1.0454863929221028 0.38781105978097724 0.593391840571707
Ni 3.4534363205024325 4.0386341133244965 0.4264600324746961 -0.45264708241975593 1.057685763201772 -0.27288660512623975
Ni 5.955653883915495 5.901176092755993 4.956433014692105 -0.2883528190826389 -1.6275139575209263 -1.3091293679628875
Ni 5.35961658369213 3.0729235043883496 8.913442653934139 -1.1884944931869337 -0.6508230861059824 0.7590341332962863
P 0.16094453579078596 5.456512196975825 12.58400000317227 -0.29880743875705956 -0.009875093021866864 0.15130196484250716
P 4.085418475961474 6.159272086750789 12.789633323772158 -0.4702457693381256 -1.6129311746107449 0.2858166829243465
P 2.097602890141457 8.38086483845092 1.4551744871409609 1.1541306709950832 0.8638117293250089 -1.0547724462097188
P 6.278371061316883 7.82012148059176 5.838916276599793 1.2551837669843675 -0.3960349903526663 0.477388551030494
P 4.901572812220614 1.069919951567343 12.538986665973086 -0.6673686491694893 -0.8471836338500248 1.283653592289286
P 3.8101727358947275 6.179450385766389 8.246423305076862 0.23554030326729758 0.45644177357549776 -0.5565471609395318
P 4.682983613341487 0.932703902078639 3.9339989651898803 -0.21536742786384847 0.4661268620737456 -2.871575389339887
P 0.09461108991396318 5.5970370535611735 3.7869432827941067 -1.0643855438194507 -0.710328440560467 0.33227137484246
Ni 1.4698335874338806 1.199849393078191 2.686694407598835 0.2874045962367567 0.11933132547318158 -0.6093139111186022
Ni 1.887023535764044 6.466674730759512 4.782133012442651 -0.3839703458786484 -1.7076061349878269 -0.252158628550269
Ni 5.875058213788219 5.5902838325196615 8.995610459455149 -0.4382866999330258 0.16544868865653442 1.1273109796990781
Ni -0.2733436280090036 2.54950819161674 10.07449040750742 -0.5334607114337135 -0.32184195197901994 1.179279659456885
Ni 2.101065384999421 5.309595737610894 7.12084849490744 1.10257748150814 -1.1934662353699124 -0.0503771669009713
Ni 0.652283404683698 0.23149897082996715 9.162329134843276 0.20571087861069087 -0.34113371032909634 -0.03691101409373643
Ni 1.5445167989786284 1.0934432195057806 11.325950862973679 -0.44422954778002205 -0.15841749284136586 -0.4356965706083464
Ni 4.263759562287977 6.766176015745101 1.6693148773527133 0.6769496079897052 0.8334328599228356 -0.5602418361822996
Ni 5.671837791041048 7.671152837590385 7.900627650199208 -1.0692840095623326 1.2993905434085686 0.6851241733806975
Ni 5.2379320385532475 2.7138365702935205 4.924452399652819 -0.7151155775364652 -0.11072198653761577 0.39524026236551285
Ni 0.9392763139891864 7.325590426491676 7.116707061762706 -0.7605145744965547 0.8101710611814177 -0.7541729485492431
Ni 4.489029658556229 4.425972474132477 6.919437067515565 1.4176090954335456 1.4649621307962126 0.18309339832149113
Ni 8.17457066047736 7.483029977278721 9.023873638761813 -0.6567116836762754 -0.7354167509876625 0.5246662530705352
Ni 4.538842574136856 0.2506340011599046 10.521785980188772 0.32710268615732696 -0.13225394707212063 -0.41953075948176133
Ni 8.063779865479066 7.198608173815543 4.7416444237458455 0.9889041256516841 0.36089855166084944 -0.11162830040196904
Ni 7.350659612499856 6.154815141672522 6.985172035168897 -0.655261067272678 0.2005416757049256 0.2564066051933455
Ni 2.5189876103099893 5.3555935805281765 2.5860406765280493 -0.7217904184534795 -1.1163472815987225 -0.5909868306746402
Ni 2.1143729370383832 5.397902917173791 11.553203531362952 2.2043160120547522 -1.2640977816445456 -0.15174985101320318
Ni 1.1608850253554137 3.7944604224139415 3.9035534196724795 -0.46155029844665674 -1.564058874390074 0.6500062466316419
Ni 3.9444958392880047 2.5054902086835145 2.2534775379000083 -0.6128147251830091 -0.7220706686980597 1.034124430942064
Ni 0.8688927435787663 3.417771719419751 8.238616870847485 0.13048554231778817 0.39313761420021326 -0.869258097151561
Ni 3.746003575315546 2.3528692212366638 6.909460019668963 -0.6137812028613365 -1.0256135652575755 0.2776894258315218
Ni 4.096619601624704 6.789581757748412 6.057357211991527 -0.9340406408445848 0.6788884768836307 0.1269793289367426
Ni 0.9305070711374245 7.4453041521030485 11.543253604885994 -1.5112939239832166 0.2599321018481007 0.24966748669729907
P 0.00681017591776523 5.66511169136918 8.225782134685993 0.30530384511468067 -1.232962750802638 -0.4112224967263821
P 8.460719191141244 1.6094453579078596 7.936869032409666 0.4606552974362131 0.6090010078638738 0.2778166954380054
P 2.049046598021031 3.0734840126943386 10.029198624246554 -0.8680054556913825 -0.6253673650370392 1.4286815511976232
P 3.964719340586347 6.305139853156128 3.790978942597227 1.606783152731478 -1.2833962248628414 1.218823226077462
P 6.846238298936032 3.9163709789665293 10.354723767451814 -0.0905524535682763 0.808302126293479 0.2892714742421663
P 6.216163679808663 7.715062335045032 10.107331674010098 0.6117536309083464 -0.43054742230723914 1.0713874290585805
P 2.082812703228589 8.318729780595087 5.563499671904285 1.8580465231609873 1.9890740540251743 1.3523352139264
P 7.026514042963852 3.9324810725354364 1.8154050389891385 -0.42011979921601195 0.15068875673854046 -0.25595897613296564
Ni 5.547911212678209 2.9399203076511107 0.37173182066880817 -0.4870551275859806 -0.7101631186271962 0.3638540347447476
Ni 1.313885711977289 1.0934884217885217 6.884916084186231 0.47825218458236995 -0.027997513654190495 0.11164141302809161
Ni 6.997738269770906 0.6768255320751189 9.230948008135487 -1.5195872743402605 0.18695776637290382 -1.0086185733614759
Ni 2.8867624231476463 1.2677070599290416 9.000042995300735 -0.5515219398107986 1.4638388158250468 1.395509435321029
Ni 6.3325143555841015 1.7263022992499988 2.512102398602874 0.7873054694371537 0.6163538486845191 1.0166471000929072
Ni 4.136316246327886 6.8724285015561914 10.806596523283524 0.30552136044212547 -0.6769328958191568 -2.0633964188878333
Ni 8.169435681157976 7.296163740427258 -0.03951493152656318 -0.6855082961929936 -0.36809069853391446 1.075035053113497
Ni 7.373531967566823 3.874631191083452 8.125420410361714 1.9656240505323501 -0.030856837479856535 -0.0072764790567552105
Ni 3.1690958811481886 8.21613867968602 12.575916026926862 -0.16195893033572106 1.2042124181428229 0.7023256248606485
Ni 9.191703386259713 5.212483153370041 10.403574778455711 -1.3370137530779813 -1.2723659351906087 -1.1217095743519006
Ni 8.478375202779896 2.4945241348905376 5.781848394639228 1.1047858020133683 0.23060738474205444 0.018963685586696373
Ni 3.567364153922952 2.4880692489151173 11.613606437744151 -0.0037126729648968323 0.5828577738096027 -0.8191146435279507
Ni 1.241706706896395 3.187312401092828 12.573970520677687 -1.0496487518299085 1.1747966839848671 -0.15613641011667304
Ni 3.096003789955925 8.510062002981364 7.662524625860776 0.1917906689851729 -1.2151072106784557 -0.4112219825057499
Ni 5.880428244977854 8.067432209924544 3.6465684977874586 -1.369052526681081 0.02458565975916411 -0.5921805938724253
Ni 3.1089768451026036 8.198771962656911 3.368664863495539 -0.3293266903918393 1.5550864956881347 1.131125982569794
Ni 3.4591679699539966 4.611410318849323 9.710026209857718 0.4304072971849491 0.0466089581077907 -0.7049342661280892
Ni 6.997539379726844 5.940447836001409 11.48643704761747 0.2635491297753977 0.18328468839669082 -1.4612815966208317
Ni 0.46404392248256193 0.15635107981864138 0.2543423964359796 0.1184833756505895 -0.23891024818079495 -0.13534955527830883
Ni 4.644697279859826 0.2104328989813324 1.5662536727031402 -0.3333795203049742 -0.025396328585917553 -0.5249542166245992
Ni 6.126853009568913 5.574264143516237 0.41700823515354435 -0.8905470884373242 0.27243640496269855 1.0679161826805286
Ni 8.01370477665854 8.905111873224966 11.112299561461182 0.30775873441307644 -0.3997052401154019 1.2880213823396784
Ni -0.00252771165087901 4.846615876864056 6.033129692487985 0.39238453808427265 -0.24666752352871066 -0.8047712303220851
Ni 8.159644866716267 8.858680088393369 2.3039296137585934 -0.0803927394264551 0.5044689521870538 0.5817128615718821
P 8.605574426413183 1.7205616093418863 3.5815088522382785 -1.2684588868267186 1.1925432093350108 -0.7928369407783442
P 1.9089285619803524 3.2571589683842848 1.851659981884418 -0.2562160864490942 -0.31274436055312593 -1.0670679757476202
P 4.931171266959447 1.0278095049657892 8.293832363261322 -0.20195038312699412 -0.8998246570845083 -0.42985965221159517
P 8.496148740353672 1.7343211842082593 12.323813855623527 0.5438723936853407 0.24858145272197185 -0.7285249089638357
P 6.4166629251348235 7.798822164964181 1.5113817176381357 0.07307358005722255 -0.01414672381402725 -1.1428833802160383
P 1.7248829475719298 3.163472717175203 6.194039874543887 0.5966262883486048 0.9546865992297107 -1.0610881040151017
P 6.632657512984614 4.063251276505268 6.127868252839278 -0.5531867291077311 0.5154737879379896 1.1388472624734516
P 2.3962453317549666 8.323928043110305 10.385209090978028 1.5087266774766723 1.8399636975173472 -0.432860643821448
