# total energy = -340856.4652793914 ev
CRYSTAL
PRIMVEC
9.39349804478491 0.00000000000000 0.00000000000000
0.00000000000000 9.39349804478491 0.00000000000000
0.00000000000000 0.00000000000000 13.74833389787217
PRIMCOORD
 96 1
Ni 6.943410837531634 7.742102413879175 3.8752839172199987 -1.0721772719497278 0.8833089188176722 1.0167016074799264
Ni 0.6196439862169316 8.194230268332635 4.233400702527034 -2.530213365050068 -1.754458319454675 1.2830208438012936
Ni 7.989207777031605 2.366278552812125 7.296021154204899 -0.15748366817318685 -1.0753309870873609 -0.9613570692713508
Ni 7.718496552950032 8.750776248567377 8.553250708164695 -2.3659751517618672 2.230896076536126 0.7116988385454324
Ni 5.6870680298001375 0.28826955088171397 10.326126011928833 -0.08660066800937988 -0.35665777410662447 0.7952902874148433
Ni 5.535898463571443 6.948163947611278 9.620864047190306 0.009375013456996758 -0.07343070628632514 1.2005887053473066
Ni 0.9789715934395132 2.774529377261593 5.706383880109966 -1.6576915095455707 -0.32192217039765203 0.6060046442397111
Ni 0.6619184854312246 2.2207450854920996 8.826128072926831 0.08654821750488964 -0.5632374284755138 -1.0839372406991332
Ni 3.2767809380094857 6.568149978694245 13.266757799477642 -0.24277950132821413 0.028192146163499833 0.8434593909209022
Ni 7.107778268704796 3.6767279100668477 8.950825821931325 -0.4313107828358249 2.228259667354543 -0.013300059543015804
Ni 1.1448701648161972 6.047656244478624 7.178238898561345 0.2659705947326968 -0.36542060790091907 0.6457451573624428
Ni 8.065022700851388 9.120945831390602 2.4656533094199657 2.9690952753649316 -0.003795462486690238 0.4484921797111179
Ni 1.7150836849044617 8.542221801950246 0.21649664932926346 1.9550066800278203 -0.4547415030549394 1.2775618775692514
Ni 2.9365860078822004 0.9322239103913729 11.912670007072727 -0.4806312263375078 -1.5417231870073513 -1.5041981934786997
Ni 4.88925004878344 6.384121955828007 4.917036955752998 -0.5723756433313562 -0.26419113423477086 0.07526133173716071
Ni 3.526159527721745 8.547162781993514 10.18245621464794 0.8815667393155849 -2.736895606435093 0.10427545958132364
Ni 3.4354277287903483 9.288450690956255 5.401115854919705 -1.0972984924973876 0.6692766648254797 -0.11403665273314555
Ni 5.949109055060541 3.34467714286259 6.490245001529161 -1.271032561091166 -0.023008287969715213 0.6442022383553551
Ni 4.910206943225509 2.2333041925602513 12.703694610204842 0.9154842179986362 0.8579195322102903 1.198996421159522
Ni 7.465933567354375 1.1410939785473886 0.7318709270361748 -2.3096265977688093 0.6152464745529533 1.1926375688210298
Ni 3.5020464178908206 4.991507669983066 3.451752689279309 1.3866285878916313 -0.5214983968655147 -1.9194133563042428
Ni 9.126788587259256 4.358273170597696 7.997488145678258 -0.12205978014793817 0.6306381265176753 -0.647437457463201
Ni 1.7148300604535716 5.153489152618223 4.679122191220973 -2.435602425141702 1.1418868206307238 1.536904168352153
Ni 9.604851890190774 0.6376813814243099 7.0528676357372655 1.0523327264199747 0.21253741461422107 -0.3556861542219745
P 3.4171104073371725 3.125611371780791 11.620614876424023 -0.3557319198582454 1.0042250722794703 -1.1086270301363295
P 4.579940940675663 7.752970691274726 3.4436414035999157 0.3601429044417475 1.033130442459911 -0.22735005414702134
P 8.286558961954821 6.758114692410946 2.4322594233860992 1.0908445093419277 0.47724945434946836 -0.7635914136496655
P 5.585336444498655 4.337419604635619 4.528110435761721 -0.8703176487643269 0.03529661841876502 0.1171633712875853
P 2.216987686219653 1.1951629540778905 7.242003842914394 -1.2268345264177127 0.4485055494475566 -1.451886271448861
P 7.6065730221220385 0.23116271803943936 12.459936150454345 0.962189335364659 -2.0555344996412535 -0.49859423857383167
P 5.7203210133612865 5.33019024690319 8.127877415230689 2.3300840942922125 -0.7195682139911801 -0.8618291516773415
P 4.993207893153848 1.5973737591969013 5.116319080315549 -0.009872521918705577 -0.3731912529852734 0.13210713708161118
Ni 2.034490803556938 3.7012167598250163 7.521644526366935 1.0213807581231507 -0.9492901108044876 -1.7726879550888244
Ni 6.85715973723263 7.842114989013513 1.022391160082084 -2.118768982120867 -0.5722103213980856 0.2752749028527582
Ni 4.883858180827479 9.00347074313757 8.116933989849688 -0.15399082452857996 0.03926665881010657 1.4533556569055357
Ni 5.506806799704528 0.13734045820645602 13.375891461345843 3.0517752681636665 -1.6817102410576714 -1.3868949541791404
Ni 3.515563661773446 2.6832433619375107 9.603554648091963 0.4523406069229307 0.00805295221146355 -0.595075141811401
Ni 2.3849340401998202 2.5730482347748427 13.33948601979511 -0.97764680757031 0.4695870527082042 2.300065950663568
Ni 1.1167836052546611 8.257354576109732 8.293998612514265 0.134813994489813 -0.2697855976034128 -1.6619639116686795
Ni 6.587030910038287 3.275916736176823 2.1044300942644347 -1.0905172079094962 -0.18889663526682954 0.16413279805858827
Ni 8.050425204677936 7.441078371167142 10.805709182866057 -0.6462699195176611 2.451984723154468 0.08766664738004902
Ni 7.384670414589543 2.266256584179605 12.43131228279685 1.607133336982045 1.2783756317197983 0.165435833140728
Ni 8.664731805228357 7.7852561445232205 6.3292517149026555 1.568783533559253 -2.184778970463089 0.016345531237558945
Ni 8.88500933757552 8.04087201702774 0.24494016182168174 0.09010919538327063 -0.6618610890876988 0.03416944679285728
Ni 0.7831829108505193 3.035039262318474 1.5716684514242782 1.9159184557771067 0.8964549692813272 -1.1990164757641801
Ni 0.5491129051240246 1.8618101264934885 11.615211736270245 0.1637985546476211 0.6576622205150029 0.2859969172559526
Ni 3.5802285032522465 0.6927648547583722 0.44162216608769983 -3.125519649035669 0.42016710751417957 -0.41167321111055555
Ni 2.4044819099147223 0.626761439788763 9.254182270241728 -1.1204620750980445 1.5662990765745024 0.15618448974578908
Ni 3.8663544578490296 7.363826242125647 6.678830749712875 -1.717754022055106 -1.134496955924556 1.7794286162467676
Ni 7.624054322237095 3.689690937556787 4.760731964068688 0.8028806981675914 -0.28994536038073937 0.3775065925311757
Ni 0.18123439650717335 5.470745160187225 0.7191944012407593 0.10273048369170695 0.3755327566342565 -0.9806495989523756
Ni 3.4238267585366704 3.5811866400667203 5.434784970450277 2.4836311464151546 -0.19894322086955415 1.6222843336908706
Ni 2.1179990023870565 4.691995980478191 12.242836438541852 -1.668530509142604 0.7901863905293747 0.34048399256023937
Ni 4.370869851658571 8.010465263415469 1.3233785681512107 1.030227152770187 -2.4094959578626374 -1.5815994543769987
Ni 6.110555108299375 7.230551289931978 7.404151590467358 1.936773701959561 -0.6430776378326086 -0.8668937106844424
Ni 1.2722272131557635 7.045593310745811 2.4810379807409966 -0.07815125169044604 -0.5872854705636531 -1.2153522368097263
P 8.626819646569373 7.032799366223131 8.59882702198965 1.9169037025085114 -3.8457810324391315 0.9269410536853261
P 2.716599673978653 6.7606509369198475 8.910872456117586 1.7056531250265141 -0.7083301791835156 -0.9470599359223885
P 6.022134109920533 4.888291911968967 10.932758124465284 0.7617080805840236 2.4411187269742416 0.18209632451554444
P 0.8637687923964925 0.043777458923271485 2.4660938644846597 0.8996971303677086 0.2357663032351746 -2.1398815957297663
P 5.930697798625554 1.8635009561660894 8.651950072253312 -0.24564062492609312 -0.24053749937157282 0.07008827217665349
P 5.76530647615065 6.029367103519993 0.6353226740310317 -1.3958722179770862 -0.04979789735873359 0.13796693829649787
P 4.187536947657737 8.4047573495678 12.151603026807585 -0.9496505794676999 0.18289053828206567 0.6122750506294552
P 9.03605678832786 5.2482789427638625 5.704761622974087 0.22466736510853566 -0.8308231902141305 0.3426971981614743
Ni 7.063074610860866 6.060440795503124 5.4670666662995 0.7339617637086907 -1.109901783083695 0.5804545636847487
Ni 5.503659977813854 8.764161983475466 5.867143268631762 2.783809754488128 1.221328251887503 -1.4426007323818768
Ni 8.571670418748043 4.550257486423337 2.6187410279772436 0.4694181312305077 1.474236357009287 1.4616191824659086
Ni 1.5161387869266127 0.7071444217740241 4.36964681819539 1.0437403567652734 3.44302877796729 0.17749790651158465
Ni 1.2764355003409034 7.227451435532211 10.267915443050278 -1.4543661004479211 -0.9917858180748531 3.135152801250059
Ni 8.974435440259741 2.4641963778520743 3.306968823114137 0.05343729388353378 -1.7373674254106595 0.571031727708952
Ni 0.02057082166682521 0.27476921529581455 9.921223969580934 2.2116611395659134 -2.371350042920535 0.1387182146402256
Ni 7.689179445126769 1.4760191561950677 9.888063042301958 0.08645591490139949 1.4266529508033687 0.2465752209252205
Ni 3.417119800835354 0.0710402086943235 2.5866387479432813 -1.6728263083044803 0.9835176645287901 2.8088808385241433
Ni 3.661275605558912 5.755678140515006 10.849112780561722 -0.26885794358282084 -0.28638746782615193 -1.3009771711693983
Ni 0.18555352697085034 1.0546174342920376 0.28076038843573015 2.3111584610323033 0.20808092150476418 -0.12684588868267188
Ni 7.043893087575029 4.607886597764482 13.376730300733415 -1.9567930825042816 1.25600446311345 -2.4850154283571912
Ni 6.4672825952254245 5.577013805110186 2.986935158132981 -1.264218880603442 0.31010049517237565 -0.7836892128408051
Ni 4.174714822640514 1.6350604738995373 7.393179984591816 1.1613834959027547 1.4797025223301807 -1.1783463490093382
Ni 3.815930159612801 4.841700160990632 8.431193471498913 -1.879260952455073 0.3157427810598175 0.2329188064840505
Ni 3.5383241078662895 2.5534346105726735 2.156879630708512 -0.9826193210842367 -0.25299063753326106 1.2084542241383123
Ni 6.49949290048847 1.1193104562653813 3.129684392592123 -1.4480764107844672 0.6734613923307885 1.4450139698090596
Ni 8.537130525936082 0.8269904289679703 4.799571260998146 -0.731087013264057 -0.6435095831637045 -0.057757004304810206
Ni 5.397278610912719 6.625919992508106 12.14358755480964 1.9905637511968235 -0.1328260175255067 0.8808599430565475
Ni 4.246575083726048 4.4006096668999835 1.1008372027423994 0.17027490640058415 1.5029373244884052 -1.2900746653242814
Ni 8.653675657869183 5.359563715715539 10.598247200087393 -0.013828678352976184 -0.1488761290098339 -0.31331051746924105
Ni 1.5992994263240299 4.246387213762427 9.568249185178239 1.1676119933109699 2.2211734499317233 2.5750019821196686
Ni 6.071816321800454 2.8867159260386575 10.790214607616308 -2.9126022253742097 -1.1310231384433427 -0.16731428111036348
Ni 0.519715952566223 8.881392840775788 12.044860949576295 -0.6099754559620011 -0.006041578208389595 -0.9461852466269188
P 9.173446092724857 3.4148747547700675 10.263901601277489 -1.4010043969973291 -1.101818491854928 1.003298703810459
P 7.669594001419143 0.10457217915145212 6.581052887795825 -3.9821767695937678 1.8817104424368305 -0.8709943631163775
P 1.8446763858111335 7.4421398364616085 5.803776608601591 0.5631988619280945 0.8270066446815175 -0.8991456287396128
P 0.7514507346448923 6.663484591734387 12.643022944802834 0.5440112332560502 0.4503089212048825 -0.7093542495726558
P 8.251126686815653 3.565903418526045 0.7737217794824995 1.7726622440572117 -2.7445173846464086 -0.0367667752063883
P 2.256778544514859 5.483708187677164 1.4094380410873202 1.4983126812322003 -0.7655865897028235 -0.22909711874511512
P 2.094750094388795 3.0384115281654944 3.9941520612532906 -0.6985360759112292 -0.6848894316620721 -3.5511153837645875
P 5.2572403400286465 1.5074028336181755 1.3358709813822764 1.162763664079733 0.7756172344659481 1.0325956530023637
