# total energy = -381176.0700826722 ev
CRYSTAL
PRIMVEC
9.14367846613756 0.00000000000000 0.00000000000000
0.00000000000000 9.14367846613756 0.00000000000000
0.00000000000000 0.00000000000000 13.38269769237532
PRIMCOORD
 96 1
Ni 9.045603289303846 7.068676017010713 12.87616264582934 0.8187739723590801 -0.4881815278809398 -1.5484106263298558
Ni 6.0535722738933915 7.552257735686643 4.170958386656222 0.6516430109041165 -1.2129027468279692 -0.5769599202679289
Ni 5.0271395132587315 4.3957502335111505 12.599622151162164 -0.4331126119312541 1.6534543315357717 -0.0866646884780959
Ni 3.059557080273686 2.077617458653852 2.8630813766372363 0.8167268600220644 -1.68900574627782 -0.5511344745643927
Ni 3.1283449727538613 0.6128157258468799 5.685705633898189 0.2572440134929764 -0.1129771011203796 -0.9266021822886688
Ni 1.5850475041267964 3.811935512393683 1.774063794937867 0.4523038401477243 -0.8194136628256081 0.18901542023288095
Ni 0.2270677084046171 4.270591563795792 13.006322907620552 0.03556298470627423 -1.0493895846312509 -0.6126774282741965
Ni 1.852692114094523 1.247572622343159 1.062951697731107 -1.6053086250684803 0.03614893911673129 -0.08070744245339649
Ni 5.025548513219977 6.943197318551928 1.8713827070785354 0.4826762817919945 -1.7768222889721723 0.71755658287779
Ni 5.377698998809368 2.47587037065359 2.4859165300937027 0.5047114072151629 0.5969769868198042 0.8244867064731414
Ni 7.524890706284389 1.2192455067106207 12.32377840478782 0.6266320906820757 0.24193489393973172 -0.29036239331349994
Ni 3.1948012272462063 3.0628305171350316 8.840328623958813 0.611644873244624 0.32210960381810977 0.20881934233268554
Ni 4.485413143741191 0.0828024083387907 7.824529046916496 -0.13808109527685897 1.6670066162989097 1.3334370914703164
Ni 2.685461766563543 6.687174323809816 9.077791780317797 0.5283357315023224 -0.176376905533264 0.7342646396610903
Ni 6.614902689865471 3.0899872419344625 0.1680260627135711 1.4872463961157099 0.44223977104350287 2.310635241538982
Ni 3.219754325555179 0.4168657837174897 12.680734807735657 -0.6604773213662948 0.3736928752120403 -3.0318978125134493
Ni 7.313351706878719 5.367092331884337 0.12244391160325321 -0.5815174577316243 0.7912035189399793 0.3698531897509759
Ni 3.5181034075351914 6.59220808011726 4.396176328923828 -0.17934344436075564 0.6837620029258482 -0.16998977105999757
Ni 4.39213848054961 7.256980929643536 12.975635808597195 0.294467416620809 -0.5163896148840397 -0.5748598432057906
Ni 1.3535478548096256 8.107928214739246 2.0638123330302216 -0.264641334398312 -0.5091632723389296 0.6528226330345144
Ni 4.997834024039143 6.5407108834605605 9.6858079893811 1.0809897280350351 1.9936953548472698 -0.20130015113750493
Ni 3.859574076772483 4.329449421551327 3.4754198024724894 0.3633333863545872 0.48599480464226624 -0.628990306501607
Ni 0.7101172649986194 8.702002143003165 9.513491712769921 -0.7170834998961134 0.38549141050886515 0.5562103464254033
Ni 0.5873688689051907 5.587400118859925 6.511244465501421 0.7284732297902937 0.044520965230510426 0.2542345372426912
P 3.937478216601154 8.717838993963642 9.91751611456542 -0.3026031583540659 0.04217200538235963 0.2761192531309245
Ni 6.137822126520313 0.8052672966266868 4.453052751573627 -0.045190223383393145 -0.10262815378588776 0.17531426859670451
P 5.0899382963976185 8.284849247784429 5.920130345930287 0.7734125135051455 1.443768784548049 -1.7344975600620323
Ni 5.889214654947339 7.070715057290267 7.473112798701312 -0.5719771223413569 0.49942573333619145 -0.6615831528359638
P 2.9585834398830744 2.581507287019862 6.521549391039791 -0.4654606892446565 -0.040092497145511594 2.0697172188995387
P 1.4136401091469526 7.651887255354859 7.7913530386371095 -2.001632607416475 0.4698981561907198 -1.2078633846318487
P 9.037136243120589 2.1393555751002356 0.46479054522969787 1.1331183304094743 1.224714908971549 -0.9214934003071936
Ni 7.059907229440796 3.024673947240073 8.551999184751601 -0.5713366605438805 -2.1929123982035006 0.5536240737554659
Ni 5.153806889907392 4.2133338497573956 9.553827221223704 0.823148190167376 -0.27389190646230244 1.1141798416337585
Ni 0.09176778499395644 2.533996734138433 11.088087078136372 -0.4108167766475312 -0.24260363787198216 -0.11194351764954269
Ni 8.942910637377109 4.044623839900727 9.32393960240557 -0.7365590921222218 2.4575349635487354 0.33458279658445605
Ni 6.950887152072575 5.160628073981592 7.717828720754206 0.1543014137904633 -1.836020139488567 0.14585276880247786
Ni 6.500021514653332 8.697329723349121 9.043652028336775 -0.03458108040897915 0.4342834923109037 0.18133399242822318
Ni 0.7497231079173857 0.5396699562490587 12.074819815964915 0.36033342318599876 -0.5679877986763057 -0.23225006255180003
Ni 7.440211100773435 6.368754867777699 9.59816400333817 0.31770864653693676 -0.10932176375597946 0.1716224215674141
Ni 2.9612351066143314 4.944206350319055 6.1999095314809525 -1.389715197236755 -1.4091715061891537 -2.367394657817213
Ni 0.22265954105586097 1.2443174728385806 5.411160289854324 -0.16677383522586117 0.0954401206778808 0.11582279809929086
Ni 6.364868804464648 6.641410213499663 11.682251528816291 -0.8895273889235583 -1.5667230514857986 -0.6622356988182982
Ni 8.357376904723516 -0.13632858722882096 3.4133772015359307 -0.8817441454337137 1.114262888265868 -0.22858546921601924
Ni 0.7935030400182868 6.236720151917838 10.442117288838228 -1.9430986157363246 -0.1760341774818646 -0.2342071862781708
Ni 7.507023958722743 2.5796054019160635 3.8370202796713797 -1.0001840694408775 -0.5175612665946377 1.2314152038098598
Ni 7.459833434584741 1.5460131411070082 1.6772935035002177 0.38933263863182627 -0.21035069137554743 0.9285629055594653
Ni 4.078757191306882 -0.15262627957983307 3.6813125804762574 -0.6567574493125463 -0.28935914885996616 -0.5938757221866612
Ni 8.956260407817233 9.061321272445335 0.6953072491206266 -0.5723689584631368 0.1720206854470973 1.2123972679464603
Ni 9.100428784892193 6.978071307907157 3.844059083291111 0.5287386233676958 -2.3459639987472634 0.4049587752048574
Ni 1.922577247980736 0.6556520303385887 7.651972291563827 0.6177183331322136 -1.41708947548465 -0.4543185565849079
Ni 4.199892642533435 5.361240377718803 7.822855753772288 1.0033575820728526 1.4810790909627332 1.3959318675704282
Ni 7.846391581931796 8.351305502276773 10.974387266171401 1.4688208424206703 0.08058891459766121 -0.2479916416567729
Ni 3.403606266815166 7.509620763383698 6.867023162673442 -1.233219089787818 -1.815883259529376 -0.7324388993062612
Ni 6.012032542996484 9.07118730142129 2.196595916149703 -0.2832615206026606 -0.5000474260805904 -0.30765974694136694
Ni 5.362319331768074 2.0457517394868425 12.128872670729843 -2.406387751250959 -0.6319103083618794 -0.4896406289249697
Ni 7.035740487472816 8.187505647712124 -0.23149690621365562 -1.258105825727169 0.10575821477443723 2.127190373415343
P 6.718143962495228 3.4092844910914106 5.768263906024137 -0.257177421921099 0.20435102214868678 0.25504674873134137
Ni 6.9300852837497775 3.528883804349511 11.242242180741952 0.7060511533413517 0.22345508996798938 -1.3021992165019574
P 3.8283301277355615 3.3794578122039547 11.121610546194338 -0.7072505729660917 -0.28775863714206573 -0.5545332158332965
Ni 2.2151658125790514 2.9214326746103167 12.730130787099794 -0.20549079218008484 -1.0228084917086124 -0.46569748784581083
P 1.7549644795301056 4.7236974024190275 8.456312419202412 -0.25069978461655534 0.1785325184236861 -0.21578343235534447
P 7.831368518347463 1.1673459882050414 9.83952145232075 0.185916469592583 0.3411115988419093 0.5597461274928037
P 1.659568482953518 5.286006191978157 4.350956267477502 0.1960360745250882 0.3895828069694194 -0.2324837758291609
Ni 5.218608138612296 1.7357078928541454 9.80764384637184 -0.04615592973077212 -0.19080002293712947 -0.8784819297426741
Ni 8.068262937910987 3.956762234312265 2.060012220293978 0.6653873570734024 0.39703437815145814 -0.9036926246803468
Ni 7.511824389874158 5.8517072862176205 5.6440452064466164 0.9093917319476532 1.6511876469887818 -0.3642435568736824
Ni 6.347980430490052 1.1912109887863596 6.887806743639472 -0.3722103771292429 0.7537219770547535 -0.6483540557401994
Ni 3.5375062930652903 8.647286371555422 1.264951097479118 -0.2246514242689357 -0.10999539278423637 2.533767915170546
Ni 8.289923989287352 7.301684373261185 7.566376489478833 1.407952289070072 -0.3747269729035095 1.2943372972553773
Ni 6.39059911543623 5.127774837549149 3.3946015723429506 0.41329274899184953 -0.09625541749032455 -1.0610562223359017
Ni 0.5921244960325255 5.849073906843129 1.2988284258905294 -0.7061473125995839 0.5550767470415924 1.2522863908319144
Ni 4.609767169758788 2.590650965403509 5.132518577894585 0.9471589233940979 -0.08442294363177073 -1.9904675919385912
Ni 3.9282979635039723 2.144905787879109 0.6922304013445295 1.417575671092449 0.6502451021153253 0.3558180518141485
Ni 4.9238890969505915 3.3335931214315817 7.260555193523704 1.6013200727343777 -0.6664996163009748 0.29708017165330775
Ni 2.2339286406222945 1.5158755771545078 10.447256036089836 0.9584517226990976 -0.48331468670694183 0.17670497829664406
Ni 5.5207975655134405 8.99732466743819 11.41255050558008 -0.44195823524734207 -1.1612752524596646 -0.8157907213610401
Ni 1.0940959806736466 2.474626830393414 8.396223822336438 -1.2623723143130066 0.27961492498900875 0.22255751785438446
Ni 5.402469223550667 5.386824389836248 5.360720102418774 -2.1927851285970172 -0.8962449101530501 1.6375883110377927
Ni 7.645925577048722 8.49100262062213 5.845629483196011 -0.3887292007198725 0.3252808024572398 -1.502565285860967
Ni 3.519639545503644 5.920760345370922 11.190959860527268 0.05790227163342286 -1.5544588894064648 0.736315608652848
Ni 2.2203594219009624 2.9808208657121034 4.584858875473896 -2.4552477101764554 1.449225436787246 1.610778647044116
Ni 8.390815336572512 0.6410824932020857 7.770623405373544 1.2639134335478814 0.6613836352306481 0.038904647484997515
Ni 8.73491024150591 4.408423371750884 4.461710900635102 1.8153258443640092 -0.07119513208758707 -0.7493343895100191
Ni 8.716348574387107 3.2319702798757306 6.804164945625063 -0.7184297295113626 0.4461414200907542 -0.6145368500804385
Ni 1.7971259805571012 4.22435198220969 10.805966196551656 0.46397407739680097 -0.6692964623198215 -0.7800403032343082
Ni 1.1892999600041774 8.148837031827682 5.63291094927885 -0.5321409641810254 -0.6070693380587996 0.272873235389801
Ni 2.844214310660419 5.124720848969011 13.419098723997038 -0.4382895281465032 -0.18980911977876988 -0.6828641737019271
Ni 2.820404172149403 6.065184745440623 2.079951839745197 -0.18978083764399575 0.5120981865975374 1.417711939559997
P 2.125941798911425 7.206562687036108 0.08551990955441055 -0.032025146756344845 0.22765781519542727 0.2639322241464293
Ni 7.4183211347229845 6.919661490392421 1.917272085782544 0.9835485177667256 0.45698684744569035 0.5592313926399143
P 8.178288819901407 5.282248140162479 11.393359753388483 0.40259438873773895 0.4068991867606799 -0.2393807600593103
Ni 2.1534917018813533 7.752714596891333 11.282162566197115 0.8307841094460788 2.0709279513781884 0.7856568780901373
P 5.4684591504454465 4.518385247992621 1.4586471228869393 -0.01230915638465622 0.26733945005576537 0.3927126108476527
P 5.253253536007935 0.26536051910749175 0.17775036467457953 0.32871708183229836 0.49854255940028974 0.07625840554310738
P 1.697194719502225 9.353160055416192 3.835655128488701 0.27450485745595304 0.6551106577377427 0.053254231338450225
Ni 0.4766681834500551 1.9603589270619646 3.0923536259001505 0.6941634007648303 0.12141777568856507 -0.9124834834990995
