# total energy = -381170.2682821565 ev
CRYSTAL
PRIMVEC
9.23426042787495 0.00000000000000 0.00000000000000

0.00000000000000 9.23426042787495 0.00000000000000

0.00000000000000 0.00000000000000 13.51527354954114

PRIMCOORD
 96 1
Ni 1.3701241366077557 3.56826592510428 0.9777474888240819 0.04138293382216099 -0.7138590794215448 -0.3455210407635146
Ni 8.754365019156909 3.814405133195184 5.411961713393729 1.8054216978764197 -0.9077585672196044 -0.3237098584256941
Ni 1.5646530639250686 7.984670955274223 4.7882853138088555 -0.5043162286592734 -0.5610175380060596 -0.38881121891071746
Ni 2.2255952443454934 8.248161338454333 2.2332236667729513 -1.109379849141954 -0.07527907234897357 -0.18257300704164686
Ni 4.598283020886822 1.3838831844432629 2.370511261390437 -0.11354788602218507 1.7824967136491299 -2.289533683673676
Ni 5.71607176074755 4.940920249032122 7.748049499266579 2.1958629961913925 0.802332024752973 -1.1007900505904138
Ni 9.07169113984105 1.6789362693024095 7.406612724959276 -2.2333525084964183 0.1727789037693605 -1.4587480315657004
Ni 8.47849149292484 8.842616844770292 4.715195220169377 -0.5618693444833937 -0.36453923373723024 0.6377490265308435
Ni 4.772745900588996 7.30031992501285 7.287341172172042 0.26565100660974894 1.4155290729760652 2.576498107049221
Ni 3.560887751130743 6.502627583923951 2.349900392418053 0.5345547158288406 -0.06566803162177078 -0.12415805743786358
Ni 5.689357045721965 1.548603919537074 12.13725593917162 -1.0211683850020286 -0.41337373874143 0.21932924072507387
Ni 3.8816951879450774 4.916412522216394 3.954528569148431 -0.7443348794128987 -1.3748035702322452 -1.2151694313749588
Ni -0.07130234084689221 7.896456066702008 8.070280859017984 0.7937172865007686 -1.0903326027025155 -0.15377408053208355
Ni 8.884798945785459 6.145557206941807 4.621723267212763 0.6540027693855447 0.11562636581776861 0.6582114081502535
Ni 0.4346640193661716 0.7696248069304938 13.618124712612714 -0.5483067753076105 0.8075482788465899 0.6619806453846987
Ni 8.34187984616075 0.5070827822824013 9.412644962335067 0.7779888200219182 0.03779624491216717 0.4636277498009757
Ni 1.6126435146640827 8.374744578541 12.386410133247955 -0.7080908094791999 -0.028303217820067384 -0.7516866917922796
Ni 1.3149956026628036 3.4610099918093695 7.367608132910686 0.46220695819404917 0.44024793742445467 0.4995895126075654
Ni 3.010211872860515 0.3677202493772387 3.9299303465818376 -0.2707304780151853 1.905757456083705 1.1134568474248048
Ni 4.637574798430503 4.850387561126543 9.562853133953519 -2.005774397498991 1.8133653782035286 0.6007541944740493
Ni 6.786701133295569 4.733860430498177 4.989041826267287 -0.6264870804637792 0.9280689966421822 -0.778240273911092
Ni 4.451412110938001 0.39626242451466787 8.071091627071647 0.1378862056572335 -0.4960380478108812 -0.2001855779170875
Ni 8.062118696345632 5.0745307612012205 2.423936997737491 1.710753422367557 0.7420298854288059 -0.30811071843585647
Ni 7.003059851943847 8.187122877922318 0.4479798227076491 1.2464309604924018 1.78555169842537 0.6731474606347956
P 2.6511191928743596 5.867033448005854 8.989738003173034 0.7800655000452889 1.2602041030170943 1.2020740316435814
Ni 6.734093552410411 0.8922714818545588 3.3746825860408975 0.3150565536260703 -0.4775603007216679 -2.027784069000863
P 3.12160475476637 2.7578487733326096 3.2139593622276172 -1.701612636408553 0.4193356127518198 -0.5131693081745291
Ni 1.2379726375648397 5.918920756588213 2.38568869160684 0.6743448233770064 1.222953703306068 -0.08891414663390493
P 0.13200744458235614 2.808572565118141 12.362920945342465 1.0987735343810174 0.2671144785291529 0.5959786274622768
P 5.043115807686861 -0.14452448440855084 0.6194295632764497 -0.06708162413984575 0.8018111192524965 -0.4273998778171929
P 3.5548854819407567 0.8808274630743278 10.098220455511196 -0.432282659830791 -0.2109052783274368 -0.643518067804137
Ni 4.024318338159446 4.274234358709895 11.74347476039749 0.847311674787457 -0.03573036352207395 1.071329836347768
Ni 0.6169547815181168 5.293013359716724 9.210496846850589 0.28477152948928375 0.6492125470857529 -0.6661630588971624
Ni 2.1377589604452614 5.76529960236573 5.468185430609346 -0.990799542902184 -0.5279055859434392 0.003761009704329006
Ni 3.295919886303867 4.817014944430219 7.313343925729092 0.2239016905871047 0.4903265992484008 -0.17092051040438305
Ni 7.587523888623554 6.283544758489447 12.777677746370525 -0.2586828028220319 0.06261613216932442 0.17200320194560054
Ni 6.974959997874419 6.971903457717672 6.302807425459158 0.8308108489189562 -1.2902240464179522 -0.2131179697080394
Ni 6.079920084784233 0.5441066254982958 9.8324021153114 -0.2777390481225346 0.17502141994663403 -0.7370342319864274
Ni 5.0840235807816905 6.9853947120047035 13.17604004167566 -0.32008126053417135 -0.5438996473788503 -0.43113594782085746
Ni 8.936750894189865 6.936767097305521 10.606948782977684 0.25820766295782627 0.6909505502544875 0.0939707352212059
Ni 7.264426355256732 1.7528288201612878 5.312083954072356 0.44162039229194905 1.3766905028423129 1.4649821854008707
Ni 7.829932455556373 3.72223798121787 0.25826748555879303 -0.15944696254714474 0.03073753829317287 -0.18747430099800613
Ni 0.8964204350038832 1.2105376502364558 11.005554862754535 0.5563342735977773 0.3700233967802531 0.24637158955484667
Ni 3.810702194817977 2.621680371062549 7.850522085730085 -1.0974656142028711 -0.25872754001703824 -0.10426568938931075
Ni 6.362026736713593 6.229404290395771 1.4367816445276276 -1.283185394403616 -1.0712167078086712 0.7142246902910796
Ni 0.33017467045483 5.507303604059531 13.807473219906052 0.35065039157028 0.013285147144680345 -0.672306709901055
Ni 3.1894396308735082 2.0048964233598396 11.90294212481102 -0.8745062329243778 -0.4600829698725109 -0.7045028350176255
Ni 4.103788382234867 8.767763930841017 11.821350047720433 -1.1220155356280934 0.7750217669737943 1.9340102802818109
Ni 4.790946627625093 5.869822194614125 5.727164877636675 2.578743708550288 -3.972334586692365 0.5941765412565315
Ni 6.392204299348787 8.430371762541736 11.560937443495739 1.3498651551193526 -0.5546558574540899 0.8439062486503337
Ni 0.21446754214041844 7.6999787104630215 1.185658706156977 -0.3207952558820604 -0.6141519559371938 -1.2685704727039184
Ni 8.253831174273797 3.915871185286831 7.661457070227718 -0.913002589227363 0.6033625786311738 -0.5818236761181336
Ni 8.672567941487832 2.3110490890903153 2.162862297049843 1.8710280230223195 -0.6485291478654831 -0.3509090445483053
Ni 3.87443705935534 7.512375478364923 5.100177995737017 -2.7757120650816587 4.491731363833845 -1.4945928091784517
Ni 2.9265679431329814 0.36792155625161055 0.42102686376652254 0.6845942690191564 0.3802530449280613 -0.19915405132877959
Ni 0.6238786298852734 1.5138461637969067 4.632468252488868 0.48655993311711687 1.1955478004892894 -0.3670311469211485
P 6.848090495718692 3.5134975273107276 9.221727554218068 -0.6173959167957883 -0.6478676030220842 0.750661592961875
Ni 6.530007165690582 3.762333139406979 11.621702569923103 -0.41257463987890236 -0.4909092112247481 -1.209627675621123
P 5.594835157370118 4.645553199323039 13.283040185960473 -0.05651336170569622 0.8573528610735428 1.370050628928292
Ni 3.1361487147267213 6.39273988644574 11.138788617103705 -0.020265949337887678 -0.2821271498879012 -2.3334985192904005
P 6.324627982529832 7.692923735599714 8.858558871738897 0.38707083918084306 -0.061471734152236064 -0.0276558140440556
P 5.3532392053430184 6.733244000463521 3.729323429140141 1.4263760429928982 -0.8252768064746046 -0.48023424800940523
P 7.438048917272308 3.380487242060629 3.3361369367288343 -1.9799139847924612 -0.9246306603845946 2.6781980925938846
Ni 4.920946544019906 2.7337104169285724 9.96366250823611 0.2310241605644989 -2.11312438224058 0.6938265862507018
Ni 4.134021350431813 7.885827433105585 9.807357877972688 1.4878323505261666 -0.2753574352642355 -2.635017186331036
Ni 2.4532659318518233 7.829018263787437 7.762092038893059 -0.16983396220842364 -0.8043765659868275 0.010769836921994356
Ni 2.315361488646813 3.5853031353435494 9.863270400616456 1.039580311850313 -0.3205286324842351 -0.6428992032732154
Ni 5.063385009028429 3.6186111122178275 6.1474622348401065 0.027114853938921043 -0.3708222385324646 1.0003974710032641
Ni 2.8967597509094793 0.4044255106130494 6.300658613089143 0.03153252339064247 0.5761117133350206 -0.16378955578655663
Ni 1.7921944717873066 4.642275036919277 11.938406301463546 -1.2386844837777635 -0.6537402597527773 1.039055035474462
Ni 8.625611727901555 4.6454885595009925 11.546678822178421 1.0151504609427227 0.2773945202989223 -0.8685741837106589
Ni 6.925362785844547 1.4732985268534755 0.8935365755146021 -1.18392024355269 -0.6235603937352874 -0.6071307874243543
Ni 2.5133624978340254 3.0677597830020455 5.3290722227320755 0.7204395608525399 -0.09443096268707608 0.052034499998736196
Ni 5.783251004373936 3.666315300887781 1.825386096981902 0.46230183190070057 0.28936480528692105 0.7066407072962346
Ni 7.912320525884156 1.243577833562258 11.981329913580183 -0.19711876606630568 -0.7265389888820585 -0.5882406353880708
Ni 1.6753718448295867 1.3295672654040323 2.226641486036609 -0.1026572072516103 0.7705724729531891 0.001458586823397488
Ni 1.519940775589816 0.9711302178986293 8.527109873363733 2.174649338228255 0.22641185860346813 0.5719629812739698
Ni 3.546232980046884 4.835862069686776 0.9460841337078599 -0.1506951844964437 -0.6430118175916797 -0.601853341075499
Ni 7.474459605604794 5.5382383760386915 9.350190889700244 -0.3282316575554476 1.3250157001758407 0.04910061418139286
Ni 2.814611771349296 6.679971552837318 -0.3465036129296807 -1.3148403023047357 -0.19694598793386728 3.4037546629580153
Ni 6.001419638039503 8.900294034555916 5.296892672465514 -1.1093317695128377 0.0293375726218527 -0.3656736044519896
Ni 5.033918484435743 2.8130973526613614 4.158636194666933 1.4590452510911451 -0.8191298130366022 -1.6681402156827208
Ni 4.329464469518062 2.8000493428683604 0.18744070911695357 0.14506112613911792 -0.919096617940243 0.5033178693017462
Ni 5.934443548139547 6.165863345324546 11.033220706590225 -0.42596211692940184 0.12898967449855206 -0.18331939828936816
Ni 1.0577660479608637 4.0834730095918355 3.5282160147906034 0.3066837561813428 -1.7188223154186202 0.3745925042081742
Ni 4.551169824875575 8.500265878694055 2.7750374254406722 1.9933215164476186 -1.4103722113654744 -0.4045805659298322
Ni 7.6202224043185405 7.497314399828205 3.1074449400341773 -1.4786563404538533 -0.6269779040572686 -0.6595414398155868
Ni 9.249589164371955 3.135853218397368 9.706047884879982 -1.0689888469194169 -1.635827105372312 0.286811442737448
P 4.794981999372823 1.5138092267557375 5.898741127571479 0.12999549005524708 -1.1823099616427768 0.9577559821836538
Ni 6.430341794355931 1.9946833314765706 7.644738441968533 -0.17842093254648625 0.46189148383615936 0.3699449781338338
P 0.729361585204065 0.10114100612935842 6.225769685544726 -0.2868744347648995 -0.5249403326675282 1.537939551595203
Ni 7.379088165306057 9.072716142733494 7.191423063664001 -0.6303488774120305 0.488285657558972 0.49275834861834494
P 8.653323743038706 9.255037377944404 2.259780475947539 -0.6109555604870833 1.896867352682927 0.6710530399996121
P 9.625792928679717 5.57966326770989 6.934930402933385 -0.262563883043993 0.1980865292962137 -0.8869025497062016
P 8.654274871848813 8.210079249008942 12.255352894049675 -0.3855459178958844 1.0366662235273114 0.9986308660211448
Ni 1.749772280004541 8.44355828623912 9.991179680481094 -0.04361619402805392 -0.9385830087996287 0.23563054898825872
