# total energy = -340855.3671467163 ev
CRYSTAL
PRIMVEC
9.39733026147417 0.00000000000000 0.00000000000000

0.00000000000000 9.39733026147417 0.00000000000000

0.00000000000000 0.00000000000000 13.75394273436740

PRIMCOORD
 96 1
Ni 2.417867215669621 2.690201837715715 5.4851406766927315 2.6136546614948597 0.820007330545549 -1.4275062999425996
Ni 0.6524547391903343 2.2043504818011153 7.119645527723824 -2.194457116982801 -1.0643505768164572 -2.2775117195121357
Ni 1.2961925151160045 0.9267383674687386 12.035525087569626 -1.51168087500899 -1.0707798773815689 -0.9210897371108717
Ni 3.5523316822896533 5.2494706771923605 4.105771454427239 -0.06787326680320568 1.2794920047124287 1.0773032803223834
Ni 9.227708147624632 3.28417887207277 8.8046412928609 -1.1555231804672357 -0.4305227397168908 1.6269164331462433
Ni 2.848612628738179 9.285060052329507 2.3421454103720705 -0.9547177095779622 -1.0629125588183501 -2.0507838723301455
Ni 5.905808393119391 5.920797134394875 3.4857854299584865 0.49482680111159943 -0.5941143205600283 -0.7255928229187052
Ni 6.000279751139728 8.448049270720691 10.553812363981931 -1.1572082814791425 -0.9963549255027744 -0.0020198586435061987
Ni 2.153238404185218 8.590512792812437 9.744503031609396 0.8850467274443855 2.2240093767186213 0.7958621007579132
Ni 6.335679854502294 6.109354559907465 9.154899514612598 1.0645562650693603 1.044314998321821 0.6283557582414018
Ni 2.644042152985197 6.296032519429399 0.585706444265172 1.472554855541806 -1.4281043385379146 -0.3872176491713525
Ni 2.6893278860300596 1.1788574533193337 7.465213542095839 1.86962137248278 -0.9899287102614565 0.2415093763665389
Ni 7.946908458972102 1.8374975150849178 2.8937198125139294 1.7251053202138549 -2.28949691689847 0.820523093839703
Ni 5.160985418352264 4.065876969576573 10.574306061144048 0.612940452127596 -0.6987613045481579 2.334915454242585
Ni 2.2950723051700934 4.722543592051968 2.418961064876183 -0.8303141117881959 -3.5878093967515112 -2.2178564697433485
Ni 2.707577500799332 1.4663593659100236 -0.22528125123701873 2.196457692352598 -1.1020432062712244 2.6305496374779858
Ni 2.677318098349766 8.410112249699294 4.494664918815863 1.092318265673977 -0.9266206942314299 -0.17022297011672619
Ni 0.26472936291490323 7.212666877732369 9.909013629504535 0.005870599848164083 -0.10448063361359426 -0.7816158752515442
Ni 9.113154695494131 5.13823448253537 12.071326095492642 -0.028871945839343823 -0.9243658367589823 -0.11311876890456647
Ni 0.8380238137777812 0.5331687916953619 3.3693854024921674 -0.6879122776487959 -0.911338571261379 0.5304486640802671
Ni 4.867506803911286 3.724105476505683 5.104583583705664 2.532905052949618 -0.06662396777713687 0.5588267010023279
Ni 1.1038291709723351 8.812383753009408 7.812156385840019 -1.5949676481537887 0.1383340918279295 -0.9387789268605187
Ni 1.2615163675883965 4.915217048084095 7.803079504838145 -0.23596067863416784 0.36992775174265324 0.4293541733300864
Ni 8.28105871745088 5.979737187861855 0.11183480457501549 -3.8830733411316865 4.558363816251414 1.218988805121049
P 0.6647746387590862 0.5709751898304082 1.050520937346356 2.242819567446589 1.3129474561573968 0.7891862313996344
P 1.3596432869605604 1.0160956985285003 5.428158087055019 -0.9057654480489755 -3.184098377910826 0.0021910941140478395
P 4.907605210821938 6.355404850074231 5.285997158987771 0.5939312580149448 1.4791052550658141 1.198054111850911
P 3.2036813436929616 9.089642575951022 11.566928169182246 0.8677789415028733 0.6724686894002161 0.44527521543571696
P 7.259258839640738 2.020717257184044 5.243072035227172 -0.019720104136746682 0.577367954339625 -0.40632351676286793
P 2.471695121642017 3.509724188281476 0.2920333050941622 0.8378934667973504 1.581624394077663 1.0118635626613348
P 8.760773616905988 6.903626284888759 2.680395723909466 -1.5395246366941358 -1.0613899515262366 1.8878978021944646
P 8.26315680388988 5.541614870779972 9.962213793836053 -1.337571168243348 -0.04691826181809339 0.0213560970782729
Ni 5.205209253112406 2.6919215490971653 13.251882586067527 -0.3698125663210276 -0.3892879014368199 -0.2951482447379175
Ni 2.8360859879104545 3.115177290192958 11.888879753648672 0.35652510518350206 0.885781805838197 -0.06411637086393475
Ni 7.4123131525898325 3.893013085085963 13.537743724848374 -0.09178504042379676 0.744777366266956 0.5210188861259349
Ni 5.238569774446554 1.4978780105733294 5.8080423312174325 -0.2863913244808939 0.1602154652820531 1.6857368457185613
Ni 0.8054620654896614 2.519499339114359 2.2968812911861005 0.5887196319070184 1.2415368656248942 -0.9435552652032395
Ni 5.258548497927231 1.4592549844653429 10.815371067770597 -2.2510805219038006 0.395556508054351 0.5541912591128455
Ni 6.278431320426904 7.506991251869142 7.062498484811929 1.5670531811317077 -1.6953525144314545 0.15656655567555616
Ni 2.9163391857114775 4.6434556631651525 6.373521962491162 1.9430201970899053 1.296056336829013 0.7885779083916742
Ni 7.275140327261784 0.7331759240230303 11.576569829714312 2.2292886228396895 -0.12807616154534715 0.6634955393673283
Ni 8.072917256315652 6.03310462466654 4.778408839158235 0.8686009231835363 2.337164141067446 -1.191974224205418
Ni 5.156775414533194 0.16305307201938488 8.19227462351827 0.042131124842095184 0.9468763591566725 0.0008273809973018009
Ni 6.021263988925406 8.803146177665333 5.240568586527617 -1.2510527755351293 -0.564077407878306 -1.2418155732075773
Ni 4.507438709421358 9.168862067457184 0.4609164806165628 1.293984541901649 -1.1497801073358715 -0.8051592097891229
Ni 4.626399509299947 5.155751105568286 12.861586100316881 -0.3097089161609118 -0.9158817105473711 0.07256835828602987
Ni 4.476512096545109 7.430309039450366 12.518398429622032 0.866131121486805 0.8463847920978133 -0.36673264184412324
Ni 7.439866124012853 1.0983317329496656 7.399455725747752 0.9809450187056075 0.1330468752870612 -2.0342221113167223
Ni 7.068605809548567 3.8723013698689304 8.455483498446732 -0.16238110547480422 0.13484510483806453 1.12737525727811
Ni 1.1629383763784749 6.078991786828413 3.9193237294891596 -1.1392851213418187 0.7464670952645531 1.0620970048955902
Ni 0.516029001593572 5.0208242420990725 0.9090666884915929 1.9371287713061347 -2.393857737104748 1.0323781376749188
Ni 0.5510622476594049 2.6009459978194487 13.703822737112716 -0.9638453829108433 0.17480184773666024 -0.7690586074118239
Ni 4.174726242425431 8.182255190322081 6.527565814284336 -2.3069763046301563 -0.18780443064391528 -0.8776100686606821
Ni 6.951909766188718 7.599357607979944 1.7394335578234406 -0.0791706940938959 -0.20143384850189178 -0.6771640379933564
Ni 7.667845348679459 8.335995508357763 8.92271874372388 1.0465243472683137 0.9585388830962652 -0.481603617553106
Ni 2.686734222962954 6.708030259241161 8.578993545755704 0.30423632308211473 -0.1311195763573613 1.720756813437172
P 6.706263561209944 1.2489897267606724 9.295890475100665 0.0781039433922784 -0.40310758092873156 0.9439267896100454
P 4.721763613665845 7.541930524635442 8.577411975124567 -0.7104752505509764 -0.8501203478808456 1.377320680227144
P 0.285866777178819 4.899401341772723 5.868202158112349 0.3563993782389152 0.35147134480967857 -0.7643192929546256
P 6.1793834627193185 0.655137676891996 1.8532615360815472 2.0527193987899617 -1.86449433566886 0.3997818589896082
P 8.056415544917689 8.328938113562849 6.151134149146759 0.6108941111215286 -1.962630515121665 3.308880699196249
P 3.66509964172903 3.1106571744854294 3.5628764262302304 -0.8283808993212249 -1.5228744297319645 -2.015735879587077
P 8.336531156165101 3.8483099864982035 2.047742098663691 0.39670219162302006 -0.38825946017230556 -0.7595676372022531
P 0.9831298650523894 6.646881833235159 12.92242065550244 -1.7057654822346622 0.054038417802642416 2.1810786387933665
Ni 4.949630070373012 7.970101069296801 2.8334500368585593 -1.1850088486311785 0.4699223245604358 0.115717125759362
Ni 4.298977739067717 0.5643820231351859 3.9448365405793235 0.41085714296716336 1.5635937618281976 0.22007871729658873
Ni 8.51729819514642 8.946709187361613 0.22762400559437176 -0.9065887152812192 -1.3045975415308049 0.1410196090798926
Ni 1.9723210079246454 1.8707170764697671 10.08708645398825 -0.354971387543137 -0.22231994792228163 -1.477355876474875
Ni 4.402940400340869 5.117560356638149 8.79709053824344 -2.0749974934618716 -0.4769625192366689 -1.4718478021724521
Ni 6.152882992251064 2.8972344139164568 2.3843563370562197 -1.285022961832987 0.9024811208707489 -1.5997123619276257
Ni 8.671959451517527 6.074546849760511 7.867956791369609 -1.030128936629426 0.5504186794442908 -0.7251307956806221
Ni 7.566232019894627 4.409142638110035 6.222241865437248 -0.37134288692262496 -1.4785727796011119 0.8422064923504076
Ni 5.084688496461571 2.623076709859426 8.6409275885458 -1.1886742132979076 -0.20003979636784258 -0.8244172866877866
Ni 9.064946392833798 2.724098006857201 11.41478163830664 -0.26302308206859865 -0.2645066085926606 -0.46866582644551547
Ni 4.407845806576482 1.5653884289577025 1.7362422245713063 -2.977025328845286 2.47142483415695 0.5948619973593304
Ni 7.576804016092069 1.6775643566100222 0.4204027117219763 -0.5763050602927494 -0.15755591617201897 0.0003509555815155246
Ni 0.6941159220722165 8.206058627093743 5.366884676560639 -2.69619221517846 1.1524149738555571 -0.09770063457728334
Ni 6.977583271621083 6.228832212933485 11.722843029369118 -0.7155768334435999 0.7052194014686758 -0.02008905744039121
Ni 0.7735731660261963 4.79159517254868 10.197145163202096 3.2861781153924112 -0.6023742465759754 -0.343902274213169
Ni 0.30995589278106045 2.9749503326300935 4.521209556734896 -1.176321862380142 0.368883626748855 0.9659955964846266
Ni 9.130643126537189 8.513727209764175 11.793730848138702 -0.28478978432172886 -1.314077455996782 0.47585771620826434
Ni 2.372506303985132 8.349978735328246 13.476484410348926 -0.9459309645242678 1.7162455558303797 -0.5294701022170817
Ni 0.7816623876499809 7.639493604210409 1.472772103870143 1.3644823908118953 0.5116274176087059 -0.34972402310126866
Ni 1.9318655024757692 6.912826270913022 6.583338027824065 0.15261862677140167 -1.066361693709215 -1.5410145909761008
Ni 4.526092409378622 4.14722965498213 1.4809966470452547 -2.4349318814372385 -0.4807839498652881 -0.037677717056431886
Ni 8.01626075402732 0.03705273227279308 4.536696356497904 1.3777248576440984 2.1670506999453907 -2.7908021266455614
Ni 7.278579750024686 3.9201901633108522 3.949128301168987 0.9056713456732726 0.6304159832045401 1.2906745036918095
Ni 2.2665138194420718 6.9033161730003005 11.366354377858396 0.3085614328200299 1.465629332066566 -0.590030637408958
P 3.003687367627228 5.073345919207961 11.034595739852726 2.0444885262397374 -2.0461913678634565 -0.9516197873789289
P 2.8861079752517713 6.710511154348827 2.6928979316793114 0.5468093648264777 3.220419323829047 -0.1199815574626708
P 2.099767596751047 3.06117083495145 8.313185369362165 1.8877291378270844 0.45670916830427155 0.8756948539158402
P 5.3574647930154695 4.1983981165777475 7.075344634858065 0.08606690699309694 -0.11287991342088301 1.1388341498473291
P 6.8606710896723095 2.8285963159376895 11.741355769377083 -0.6637505928009279 0.7186773267457945 0.14117387526956976
P 6.799766994245093 8.33979202965889 12.870444023530842 -1.723138426295471 -1.1162804329165292 -1.310510821691446
P 5.901983679828405 5.527556465169862 0.9401962836948328 1.8526626331412543 1.6741547973079165 -0.9464248734415507
P 0.10726864195071607 0.2994656533542125 10.058175568386979 0.5637364795991193 -0.07813248263736866 -0.7449234049265171
