# total energy = -340866.53093790537 ev
CRYSTAL
PRIMVEC
9.33729905542672 0.00000000000000 0.00000000000000

0.00000000000000 9.33729905542672 0.00000000000000

0.00000000000000 0.00000000000000 13.66608099626936

PRIMCOORD
 96 1
Ni 8.76750903355648 8.00586555148269 6.400823064467121 -1.6917028334940092 1.0354552339383458 -1.1570743270044395
Ni 0.6369447872258412 1.032845332470178 9.932316545791922 1.2507519564652587 0.6423947528329711 1.0429543705288684
Ni 5.062534138588898 0.4755514409104181 5.909691406391222 -0.05893894042805333 0.23253005568606405 0.9449650010665726
Ni 6.750447021976925 5.07017204919741 9.712566014253833 -0.04699410936135132 -0.7872995558998828 0.562691840384689
Ni 0.16752888550962064 8.234937508644837 9.235810995498136 -1.7041765404809874 -2.1656314510003605 -0.8712699853752672
Ni 0.020077060379490818 4.099821259151161 13.044315060947387 -0.821934629475249 2.153965584626658 -0.8493618724482662
Ni 3.272499215683389 0.35265764596543336 2.3215802786534914 -0.4777976135434545 0.017263672176454137 -1.086254318868084
Ni 7.831668900734026 1.9456596858787083 10.428381098946645 -0.35391672102637756 0.5400633043518956 0.3075612736902897
Ni 2.980363140856336 1.3216199796455628 4.579421352922033 0.46668427723911243 0.7915806997737399 -0.8609552337128205
Ni 7.149149690660887 7.508673052604853 9.763375860668601 1.0888781296441763 -0.9552915798035612 -2.4386478968362453
Ni 7.97519252416122 3.183608128894833 7.557001044936808 0.5349282971181756 -0.1642783224975171 0.880297385684858
Ni 2.422366150679436 6.944420072076237 11.569389703408275 -0.5278945301998457 -1.1910249729182711 -0.6672416366733219
Ni 5.3752589577824175 6.615028174109863 5.042688643225412 -0.53271380596536 0.8147995610923645 -0.1158575079919682
Ni 6.958407346026789 3.3271504269200927 5.42796240844096 -1.0780558422176918 1.4010231660504064 -1.6060401039178662
Ni 1.7342258865887865 3.4003641886332296 8.968215209988067 -1.1217062319177908 -0.1764967189405799 1.6055857899892672
Ni 3.526389713673685 1.2769690156725717 13.306567110221208 -0.19102113780900007 -0.9681231843505907 0.6973292000873217
Ni 2.529138165115059 3.7131170197238466 0.30278806556322774 -1.670682265378284 0.5350262561486205 -1.6165137497556805
Ni 9.250480826007957 6.542561396319318 4.293335847867983 -0.16161954471843132 0.21052706905241161 0.510217938855689
Ni 3.3571698433092947 6.609220374111703 2.896566484419864 0.05723404192180465 -0.49104702235419306 0.6879793834413054
Ni 8.0327756472941 0.3366852622405906 7.903600651290012 0.30159811412831933 0.9917549648369176 0.27193221163277037
Ni 5.844383535768827 2.605797390171156 2.953814398517481 -0.5420029445767698 0.5386684808868981 -0.48107114208840374
Ni 5.311513217288146 5.104654694524106 7.994302240360952 -0.28476021663537415 -0.06245466689079567 -1.1758564927079491
Ni 2.9758065389285195 5.698189444818364 7.6811161585952314 -1.5997218750093223 2.0230077306581418 -2.2969484880805084
Ni 5.374306553281112 2.5005566927768483 7.265038643871758 0.34695571632751215 0.46642845247456444 -0.4998381382832618
P 3.9928064749406955 7.83672037951056 1.2546976900204643 0.7033101002611049 0.18878607783089424 -0.977403324100936
P 7.76593431554585 6.19611025302073 8.148879358382716 -0.49545106495915964 0.6577995174238155 -2.22397029595057
P 7.804768142221648 6.068002510296045 12.993395034404035 0.007945737209637928 -1.621399617093072 1.1057767051717278
P 9.151664190347947 4.099419755292768 5.786970351478336 -2.382515058398419 0.8569363423614145 -0.269130223407601
P 1.4585047834607128 6.361473818884734 9.352615004014183 0.78317087844349 0.720143626878676 -0.09928160591115805
P 8.712559028750741 0.6383388459713804 12.025795946382638 -2.003109706182634 -0.2598770802404492 0.3494381164297337
P 4.309107479663629 8.890387888823016 7.877115402584577 -1.3609345255596368 0.8736109748036179 0.29916533631711056
P 0.44293999030981834 1.7458041373889766 7.9452543422736 -0.04287803031044874 0.15861778177763006 -1.0704428057571242
Ni 5.636936763165745 6.114063406422932 11.378652027423694 -0.3078134989104118 0.6014612478434028 1.1140155481417524
Ni 7.444805927223159 5.910939803271855 5.8615594973389475 0.6332043445829546 -0.6883269965887113 0.9258979571327925
Ni 7.649479522013616 7.911512144760175 11.9326750631324 0.16536101403873457 1.928069489317344 1.866978021322662
Ni 9.213458435344446 6.353462416314925 11.261820940740455 0.49920667534685 -0.9048995005042545 1.0888485619578216
Ni 2.8348413354362054 2.2043682301697287 11.215028000369427 -1.4193376480888782 3.19463912954115 1.0113974216581936
Ni 4.135405705763681 4.469503602442391 3.859971257715902 0.7142948814073827 -0.2570743206843315 -0.07227628096690777
Ni 8.148175326035672 1.4350961747864575 5.499859610990527 0.2523311495723913 -1.4587192352102942 0.10200954636528238
Ni 3.971545445043895 5.84981784380569 13.449801277378397 0.3126649134654422 -0.16390962630418868 0.2352942486947625
Ni 2.026996897750043 4.688108447389204 11.574910848326141 -0.4490771056803105 -1.3556668494027944 0.76892670981965
Ni 2.294389130141206 8.7160044920937 8.915764800133303 1.087332125313295 -0.8580169770201029 0.5935311943630488
Ni 9.07027095468242 9.232226406399594 0.4826832699113739 -0.004151303164212206 0.22527260279270236 -0.023923086474500737
Ni 0.4292048234331413 6.060887488433349 6.967118112294125 0.483872873203257 -1.7858412046413308 0.8358777219189023
Ni 0.7781256823258036 8.430591272569984 11.626213704129821 -0.6984699985599843 1.0766985568588492 0.5163615898595817
Ni 7.158869818953629 2.278086206030616 13.548949387154057 0.8486620181677642 -0.8043305432402407 0.2544865053524972
Ni 3.8616454354324135 0.7784963730973904 9.877515004040797 0.9676765837314755 -0.5740831129407662 -0.8679774306669246
Ni 5.450956441038177 2.2310635681033926 11.59944180034409 -0.1633846070386541 -0.3087491233508038 -1.0810527200624866
Ni 2.487409775739213 3.1821888594419065 2.4814189646800178 0.33299591171331033 0.4941171766390845 2.51435325808936
Ni 8.270391233070903 8.865634709088093 3.8561308266238714 2.0540476306830815 -0.20508661476313067 1.3072185240934195
Ni 1.1672931012378684 7.8297640917314135 2.435131172186645 0.29332841792035935 -0.17761489170542316 -0.2324351819794126
Ni 6.663040565734521 5.274658898007218 3.5510625926369292 -0.5386831361749175 0.12896910567326175 -0.7188652743868845
Ni 5.191547599319724 8.995311118050221 3.5839569633982107 0.9740958569942577 0.020086486337229925 -0.17605834585158064
Ni 0.8457239924008486 2.7109353772761073 4.210956593424631 -2.4251573185489783 -1.255988779384166 -0.15402784841410247
Ni 4.702179757031048 3.286887993492335 0.020542057871304902 1.929855377573173 0.8457008786569113 0.41344650096089436
Ni 4.592391795007956 7.300040443024655 9.32606159302581 0.11678696178477307 0.39932291707531875 0.41921477090323933
P 5.435886040399865 1.3461490642037073 1.017468668423603 -1.838185522571002 2.246864169829608 2.1473678768044824
P 6.872224075957633 7.915732603922825 2.666471159283765 -0.40375369915316267 -2.2365206218117546 -1.4896380362763377
P 0.35847198207291586 3.3477858577817217 10.866475031058641 -0.00818999200996009 -0.2575497176588532 0.2683591495695314
P 1.166555454614308 8.24493775590855 4.633333983805272 0.07572284475461152 1.508199601328609 0.04118907264380003
P 5.107082392272532 4.794208176294494 1.6699404502104411 -0.46717355817070516 -0.04562653958986336 0.6600734010596567
P 3.571563566392491 3.733799137080638 7.3504114363849 2.2495306609181775 -0.7601893299466521 0.7235251417563991
P 5.9214629392813825 8.670662567992313 10.857304869678911 -0.8115162623554024 2.022350813800433 0.3077109118942765
P 6.790914875983395 8.75135550623041 5.448243021939358 1.1642816433861563 -0.5896621983259458 0.18410898407019904
Ni 1.5548190229800354 6.012903108705787 0.13900343696560405 -0.6224100821809281 0.03624484126464726 0.8489782638566024
Ni 1.2045489243771896 1.0890652099443265 5.9284145584110135 -1.258112767705704 -0.7616276050550754 0.7457865242577607
Ni 0.7482519278015068 0.9123708317044908 2.7234856409055714 -0.48527386731584166 -0.8347546640580528 0.6776188661425878
Ni 1.6706482174770978 3.5898366605989205 6.732144048413592 -1.619886008662023 -2.272018300497732 1.0221186647304397
Ni 3.158079953340221 1.2969881847980618 7.384316102901489 -0.6384946464476166 0.6239704846895124 0.2044626080258866
Ni 8.561985744554075 6.548602628793289 1.5929180042219835 -0.7271323994916832 0.9418236272241135 -0.7595470683769628
Ni 9.137518182313846 2.852778286877468 1.2771501592738006 0.2972971727601203 -1.0454861358117866 1.2774844873640967
Ni 6.044304445351786 7.894630308109575 7.399882314118422 1.8277352737719557 -1.0269474535776508 -0.7407474191719565
Ni 3.973879769801998 3.144354123762576 9.470484398349825 2.4167336132616573 -0.8653474492432451 -0.6208293679573694
Ni 2.2690103513711124 8.398583011486878 0.10041051260484159 -0.19764172844931122 0.36763818437752815 -0.2818864946320048
Ni 4.17524796073498 8.176999568148727 11.812140803652905 0.7400933305277254 0.5837918555880978 1.8037656503302353
Ni 3.4347347863715356 5.318534866160519 9.805672891555522 0.24254553094053716 0.745464879252284 1.415959989865897
Ni 5.971454838300913 0.14268139905447086 13.25260032300358 1.0376743530768515 -1.178615800620641 -3.060601351095729
Ni 6.035527384261319 7.32918215330481 0.23762398934593237 0.05443359635853206 -1.3224785355762838 0.8607055795958596
Ni 8.868015720341356 4.750845759587976 2.9930086449359306 1.526199123229823 -1.3455683275162116 -0.20811100341175123
Ni 0.8238000142727468 2.0113102353755923 12.742854759306569 0.8941548603932407 -0.7138819622396803 0.2768710436952845
Ni 3.4891619024314613 8.376649696059745 5.023172754517768 -1.9289081831685553 -0.977701057847013 -0.14743116903319126
Ni 7.171773966216421 0.6538294250661507 2.1675774045222216 0.4088804788567668 1.1184638137210932 -1.1731115829729604
Ni 7.045935187156613 4.01230275532037 12.06738147508329 0.1350245678387223 1.4966085540568999 -0.3680300204993081
Ni 9.000278561135465 5.05011553087579 9.500878240430229 1.6347675537595459 -1.6927032497340653 -1.2139725828533803
Ni 7.240328415712384 4.4405953246380445 1.1283724376810684 -0.5136431624871541 0.5224360781884357 -0.6609822860271714
Ni 5.9380179704658484 0.715097980127124 9.05837056706561 1.2477643345918445 -0.1334101721637509 0.05009331711196534
Ni 1.7000326975320963 4.543044169621662 4.854164840841413 2.1539820396868903 4.575091156308424 -2.6114283432675025
Ni 1.673468081784886 8.185216391297248 6.792438723185485 1.0779769093506402 -0.3552020154967044 -0.3047137769391655
P 6.275514643992355 3.006684986828704 9.196425334449522 0.10346453364425406 -0.3242284499333255 0.18481758010144944
P 1.7915755772458566 1.7456454033054256 1.1398349059732564 0.4761078845458575 -1.178307268241287 -1.8950333847979814
P 7.968105514195619 2.8410786511898563 3.273587011020665 0.3419811459310562 -1.2279028197812272 0.012380633052539967
P 4.395225388639559 4.281861241087053 11.541429161455719 0.042588009873855685 -0.20083735256847346 0.9766715881412341
P 1.6328414936948643 5.265358948170936 2.4366344773308635 -0.2107373852910048 0.5133991647971482 -0.9452064276534172
P 2.5679906663889227 0.19825980408509278 11.395324708575966 -0.9485624886098438 -1.2161202253240024 1.2712246224973138
P 3.2333572581395207 6.270276419235172 5.2772387937298735 0.09252063303824065 -1.2182457563074376 0.6513972134418976
P 4.838308239624573 2.326845581577868 4.8519920513565715 0.3875927731225841 1.3550970929422532 0.32462260004795057
