# total energy = -381165.64326324273 ev
CRYSTAL
PRIMVEC
9.27978971455656 0.00000000000000 0.00000000000000
0.00000000000000 9.27978971455656 0.00000000000000
0.00000000000000 0.00000000000000 13.58191026277271
PRIMCOORD
 96 1
Ni 4.991348293540827 6.859898896271397 1.665169165085965 0.9641495444148233 -0.15601788226093774 0.022785630435947855
Ni 8.313856337213732 6.614040149524357 3.842540031319419 0.02833329972705443 0.4953335655446888 0.44024716609350634
Ni 5.9812327343294385 1.0249620456313624 2.049741279406798 -0.33631854832864017 -0.07484995523135496 -2.790465312131433
Ni 7.813657115987833 2.581507561054279 7.528955025761751 0.8395600558664961 2.4827785686068724 0.4102835298518805
Ni 0.7602773896397492 6.657896435367435 8.19089726851336 1.415280447300369 -0.9355416508701436 -0.6624089911713689
Ni 0.8720144087273327 6.895143537327684 5.513875616621788 0.05580193746096841 -0.49397936550963956 0.14991074092193538
Ni 0.43679227456728975 0.5851575513466237 11.597892228993233 0.6096206437257436 0.19347448444549906 -1.7781250669439954
Ni 6.047778105844613 6.622800270945403 8.45031100398892 -3.085560592144228 0.7722046092399734 0.6182613501198773
Ni 7.748049003226393 5.338004115367746 8.17920287760785 2.3835229308376435 -1.3413753724807866 -0.37692655165798955
Ni 1.0894565836358892 9.017904697482138 8.877788225714635 0.830714689660724 -0.31258958014281646 1.1895756420662544
Ni 6.336026931671462 4.578314136412269 4.99012985716097 -0.18832970701976598 -0.2678359300762097 -0.5150816947058936
Ni 3.03044522430363 1.3988262106855163 11.771890140718767 0.5143371032303852 1.3519701172774974 -1.0968200101990724
Ni 6.984257357249621 3.3482965790850754 9.85974679817092 -0.19497163781631582 0.4178633990816675 -0.8600093248597833
Ni 3.1922290769037622 3.3432019745722 13.009338025611461 -0.5124185460514336 0.015434846497831481 0.5975207751384161
Ni 1.1754987931866763 2.0633797862420864 1.6260669154759402 -0.05110890286067327 1.2698506249679227 1.1004180119629758
Ni 9.239515353897405 5.449621425168962 10.220808565436437 0.37757395543400135 0.022422333559258156 0.018858013246767523
Ni 7.506162006445677 1.8715665343638757 11.710363279441413 -0.5316956491134909 1.0326187929308153 0.10464261311275526
Ni 5.967693521243309 5.278826896827478 13.296133636380539 -0.13993717464899125 -1.0716512242429286 1.0163200557707914
Ni 8.113552077814061 7.768418141488255 8.608690101769792 -0.020043034693804192 -0.161808777911102 -0.2580626527395298
Ni 4.396448819029144 4.759604106837655 3.8404613584398484 -2.338597788190179 0.151181637214559 0.48732715030044466
Ni 3.2792456643668477 8.801620640320772 10.237446300283676 -1.6165482025380415 1.0098863843303059 -0.0850837171442212
Ni 7.862524488237018 5.854322331199956 1.426317587496798 -1.50684205885945 1.3458884298597917 0.5545327016126643
Ni 6.948604405449133 8.38351043825862 2.7414540153055054 0.6387910946421127 -2.566844900230173 -1.8706079047657656
Ni 0.8505715988040148 0.32035225808967843 0.2992843516678545 -0.8002329761320993 -0.6530290926183657 0.16571994004005008
P 4.521197031172289 2.6926423217941653 5.617287736422485 1.739034271590121 0.5872029381521758 0.6995156662156792
Ni 8.626928600330093 0.5257984489293929 7.605054868691235 -0.9344337625179454 -0.7795672202526316 -1.5733716671505678
P 9.328972526036058 3.763298051617512 8.777010638193001 -0.42516481783908716 -0.0648481068236367 -0.002279540062796074
Ni 3.6315807174540224 3.6308290544931063 7.35766031675862 -1.0689713634179203 -0.46715350356604707 -1.1306171612541753
P 2.156660231712806 4.878060621604242 4.720555680007546 0.050339114574184274 0.23049297065137725 -1.894723052646414
P 8.516925973926401 8.186444825443639 6.133849082743287 0.066768206664485 -1.5320494113630132 1.4509339348379207
P 0.0406723900172719 7.7112360777207885 10.557422726892895 -0.08855444930164104 0.2821163512546238 -0.0884282081364219
Ni 0.8537935417673487 0.24612971660455543 5.428933990122417 0.6667490133076194 -1.0014721921246816 0.11908398534906589
Ni 6.783758222267491 6.780371099048549 6.222524896594173 1.1413108935225957 -0.48835893399906866 0.07402308845468542
Ni 2.274448601625246 8.715986741514186 12.281483292998189 -0.0017720042987582384 -2.1510316988093146 1.649048232048276
Ni 6.511869665577617 7.54216759025252 13.447802518272049 -0.0682681882487792 -2.0627209900873638 1.028931316776899
Ni 3.462595748092522 7.090761502958679 8.683118654584943 -0.43424852530791025 -2.2484317714270436 -0.30561829103130594
Ni 0.5166077452690069 2.5567583620818946 12.958066259866309 0.5981252414916344 -0.3229177015417019 0.2842110290001234
Ni 5.839168434716302 1.6084937778328936 7.544343700923319 -0.09867019757940428 0.031879108096783806 0.5235637640349756
Ni 1.2484101003955346 7.993814952077025 3.384503534327127 -0.5224214229004164 -0.09542597961049372 0.2705422732637792
Ni 7.493689969168254 2.5193144108807055 2.891859917826882 0.7439070478468608 0.2762645204595371 0.9829805610783974
Ni 3.241968749379195 3.130954625904641 2.067248530543394 0.3398898106196662 -0.07228116606291422 0.5132772945073032
Ni 2.4338197089187332 8.11383047150329 6.919657029643188 -0.650792489978363 0.5379645128413381 1.2030240542616766
Ni 8.947461814317771 0.19345577464465702 2.760848775655068 0.411726175835678 1.204446645640816 -0.8560426269025515
Ni 2.5227757724167756 2.0517707694012715 5.394299959224503 -0.5485656853959521 -0.1009088571019359 -0.05959739994765865
Ni 3.4727014390115047 1.2114208588867512 0.5652820978936605 -0.8213651301250241 -0.741474270035652 0.7175722666070738
Ni 7.837162823148332 2.127141220864979 0.5375717180468523 -0.432470607471881 -1.2816064799522702 1.104009585968976
Ni 5.586257047842149 4.203763266924685 2.0251173575945662 2.287620011590731 -0.2890156494776184 -0.03255787933136328
Ni 3.7461304407817746 4.498971934982239 11.027655651410274 -1.6843481929011506 1.8273349530097431 -0.1959507139001335
Ni 1.483541410317649 4.830696575276889 12.301828303806984 -0.6361351450765044 0.6623087181480787 0.4696179059461396
Ni 5.250504978843331 8.965176932742322 6.424881845462418 0.38680884376870805 0.451859553521454 0.4453214952926201
Ni 2.2197813608504737 6.722947760750418 10.870770599761595 -1.2537745453416664 -0.16017124230767898 -1.5576288024940141
Ni 8.94874242528822 2.2571232343656127 5.500985988810524 1.2832046776773254 1.0647784083824954 0.16469458409932927
Ni 3.802737157591503 5.022500547365459 0.9435606588800088 -0.9630334285325094 0.3671882413243031 -0.21241348744184704
Ni 7.758627963417064 0.222201779015394 4.754592092452583 0.4099983945112939 -0.24629805600443386 -0.24722905245913548
Ni 2.8272920694841917 5.7756668342033555 6.48946361348957 1.6579118530864934 1.1447232616382543 1.150710846680257
Ni 8.763378627210463 1.706859548026848 9.654972464101212 0.8851156330091079 0.5119120387286603 0.038136916081037545
P 7.7864209333916765 4.626077213694182 3.2985569066096416 -4.184095271041562 1.2705345384088247 -0.9545878688683173
Ni 3.571559038056429 1.0426122055284284 7.549844760222468 -0.8510811691322181 -0.8014591352297165 -0.020587337233048415
P 4.793002069755395 7.111316237013359 12.113936691031032 0.7850590966051382 0.05220342147643267 -0.2785998534609331
Ni 2.823088324776846 0.7421057055648624 3.234898477651764 -0.06949846111145451 1.0960854460258929 -1.430670299492878
P 2.265308008828921 1.686267694813604 9.621492839034632 0.669527347383705 -0.9147612237896827 0.2946407089738796
P 7.83427680857 3.844449812027524 12.845512619290322 -1.5169292678921231 -1.890101494714003 0.04777032540574354
P 4.971071953175374 4.678999854016458 9.278169389667772 0.25302560453625456 0.43381169488080773 0.3923917371731242
Ni 1.3145007622183027 1.8839272141656065 7.696121156353628 -0.31709415288138937 0.9472707663816139 -0.22496021375860611
Ni 2.1515656271999304 4.433475179696491 8.931368803122455 -0.3971475066905547 0.7259298945431498 0.6925441199938525
Ni 8.46946912970264 5.661803815309034 12.403489327302434 -0.4045571688910645 2.2158438101886935 0.1802001359340961
Ni 6.716099275995404 2.103663353073403 5.38525494826148 -1.7832886134228063 0.6790576554716434 0.23759204359000372
Ni 6.7917202817794164 7.426884763543133 10.539589755139902 0.9194714847811585 1.5531537974417962 0.844025033616385
Ni 5.464070057639903 0.24023983411945138 13.36398838621405 -0.0027626503468016934 0.8368074328220233 0.423069111652323
Ni 8.477969417013739 4.654863121160375 5.830238493144827 -0.5406220050688431 0.7665060161932993 0.1432425848731404
Ni 6.245159231507388 5.45247032058873 11.0664451721094 -0.910858803411483 -2.229298907252335 -0.7872288505629474
Ni 0.04372172889328448 4.30905176019078 0.8494236888254305 1.2315131628403049 -0.3107759239728454 0.4555693982728735
Ni 5.685560076789837 6.888267213203748 4.167961838489942 -0.4932514862046795 -0.23276711139753462 -0.8648897928805362
Ni 4.414163937453697 2.4912523270065052 9.20232845286927 -0.4056025794364434 -0.1616272580279152 1.106544436575688
Ni 1.304571387302498 4.101991813932506 6.537204419276345 -0.712154180915296 -0.902537170919665 0.5001728959148611
Ni 5.1532156642477265 2.87154738628183 11.322314955921085 1.2453305283393714 -1.2908580804575251 1.4736316335457524
Ni 5.092525839995985 2.3299603032573435 3.586901314269793 -1.2530466660367066 1.5886671598570574 0.48871168935279713
Ni 5.628545049235909 0.13799975175040508 4.1110405368113865 -2.891006501481305 -0.06467224336740475 1.2036640018385205
Ni 6.887933140776673 0.31064559812525616 9.694889479241711 0.8091163946646581 1.1346075133604911 -2.0858040971590723
Ni 0.30101132052003327 4.010363171017874 3.5920079825092017 3.397688659269594 -2.074317950896344 0.794913877912031
Ni 2.89575835745504 6.476281672304617 12.978384359285144 0.8025845070834113 0.2505547743982588 1.0008476711668053
Ni 1.169429810761502 3.0687150767828624 10.935841412702823 0.7102327955228672 -0.11611950340410324 -2.348202144049162
Ni 5.78993915067112 4.304467544108157 7.369354707664132 1.2915188539699758 -0.3400361063895434 -0.7244790210292362
Ni 5.30661986680209 0.1791203556073343 11.105479679255046 -1.052990671718948 -0.07596735666524981 1.2598143237778432
Ni 7.75987145522895 8.9372911648713 12.28625032093674 0.5059157119359092 0.05705972112746947 -1.0326699578837248
Ni 1.6125490459059841 5.6902927695067165 2.6621767724029626 -1.6511236265200662 -1.1405647593851906 -1.4153382971214978
Ni 0.44074360899640164 7.168414782674057 0.23147878471944078 -0.04700516510494486 -0.1958447844498885 0.21937783457482218
Ni 3.2099534751179553 6.885603913576798 3.2644258403102677 3.0262624686045427 0.7046486165668703 1.4447375762192216
P 8.078808545398386 8.842943543591874 0.8362640191356148 0.10059543962657513 -0.254040161843698 0.07037932105451106
Ni 2.4428489442393673 7.971487778200925 1.2717664029428142 -0.019699535311456396 0.08224701902637449 -0.6035392134183541
P 4.235620784762029 8.797435455192709 2.06104127925257 0.9761897634088091 0.9563364761283076 0.14131502883312438
Ni 3.096517326547116 8.645293304029511 4.9116803714944 1.400134849908182 -0.6578542819211508 0.21855096779815267
P 4.790125334966703 8.716673445947615 8.857918340135456 2.6815829499057173 1.1064678177014815 -1.3490321176950961
P 0.8516127912017281 1.741612360232165 3.766725077931911 0.13745348899518908 0.3251162518549175 -0.4957089466062366
P 4.570370636479625 7.085472022863344 5.99339853854871 -1.004836223500908 -1.2123625580537831 -0.2022062078915421
Ni 5.422079009514654 2.663615139797308 0.1542189680848384 0.19484976752647087 0.4829339063287553 -0.13075602237035544
