# total energy = -340894.6432238868 ev
CRYSTAL
PRIMVEC
9.06078016826391 0.00000000000000 0.00000000000000
0.00000000000000 9.06078016826391 0.00000000000000
0.00000000000000 0.00000000000000 13.26136765395418
PRIMCOORD
 96 1
Ni 6.248612982062828 1.9520635315720065 11.453484800598593 0.07515077430122541 -0.10608191666244311 -0.10097236335001963
Ni 4.766640845095464 0.38708830608541156 6.196931198290316 0.11842706849135735 -0.6004479760875401 0.23138591477929182
Ni 3.1461203191897473 1.4224881154265696 4.770843234918863 -1.319432035440476 0.16190545138996634 0.5707509632437395
Ni 3.504936273041535 4.381177136887016 4.929449472826729 0.11572021108315556 -1.0969678486308463 -0.27048828009739223
Ni 4.948853133470996 4.632804061823708 2.4293102242437876 -0.251135072381761 0.09333438718878764 0.8870745565076915
Ni 7.394774485923579 6.013531041639993 2.34438443818138 -1.1350633699509871 0.7179849286644602 0.9870796708484356
Ni 5.099841973525192 4.569478269508612 11.604651231943299 -1.3339513121025737 -0.42598422841658895 -0.3312105376781135
Ni 5.6707526686148935 7.990756359627657 12.348349191919313 -0.1928859589318807 0.1730082461713472 1.3425521663977074
Ni 1.7367431526084982 6.460825513442407 0.4405242568907175 0.3524869305583865 0.2511571838689481 -0.037478456561432234
Ni 2.710097457866656 1.5277381373942567 0.4078211831744665 -0.930697692514281 0.31910732665667624 0.2974550384942232
Ni 0.6034959786642885 9.202309513672704 4.716418753001585 -0.02013276619413307 -0.8001105916216221 1.106152857564224
Ni 8.724226510995104 2.45965749512674 1.2835519250987357 -0.3332941596800195 -1.054970164042822 1.114676578764519
Ni 6.941200893492411 0.5674694107970605 4.7879771701410485 -0.5529298759019187 0.6492696255759334 0.16498666141845134
Ni 0.7873455500089633 7.499979203990625 2.7878181115712213 0.2692130129293944 -0.05597908646878101 -0.9218777802298059
Ni 7.78234029512174 3.7508096025969033 3.872518531667233 0.16305524872369337 0.11456090066773172 -1.2472385439953617
Ni 7.640004500089853 3.727478093767117 12.636399546892843 0.23266195327823802 0.16381475259753722 0.46010868090412366
Ni 7.91577840406786 8.982803054290027 6.916028234140601 0.12158001229804223 -0.011110250980548608 0.5684315710819438
Ni 7.0051971835369855 0.9330338336882366 0.46719013280763405 -1.80851319231755 -1.7161175148929477 0.5565571882418608
Ni 1.6819707367343018 6.662237594909324 9.348295897018192 1.0132303611018745 0.2348561327160794 -0.03693312558092349
Ni 0.22909095260215231 4.661019331142525 1.4361001254129726 -1.1911573847310775 1.5360672742731547 -0.6168724401921505
Ni 6.4661804344980975 2.1023999954569805 7.025951806498348 -0.375375919341418 -0.4423004490781092 0.08973715675583255
Ni 3.416947037217826 4.2001427499281325 0.27912095615731586 -0.9892586807776254 0.4772265715313329 0.10607214647043023
Ni 5.981474001546874 5.454453725397554 4.772951678454666 -0.2078554357575194 0.3595759761946839 -0.07033175564602726
Ni 5.357294980084235 3.15973867172224 9.1206383598323 1.010904284071859 -1.4443907344027642 0.8690511233470775
P 0.09579509790404352 5.598683223476207 12.368015615187293 0.5646505067729566 -0.24210021587300237 0.46300991371131867
P 3.8561502323658705 6.203843667450022 12.729189184028405 0.2598292577216493 -0.5171488616475673 -0.4206653873068368
P 2.3733898075273645 8.440343208802473 1.5153502388031561 -0.11100583632662171 0.30025162740275385 -0.7965174749537249
P 6.288969696753261 7.742554409579374 6.088200930675437 -0.04919574499836043 -0.03998528214368597 -1.2683305887789704
P 4.505953140030698 1.1798041804762833 12.605049247649713 0.8458320049181368 -0.009959425205557041 -0.4781120594600798
P 4.017531787226965 5.972313552837393 8.272891837333582 0.27886981929286814 1.6540094327082935 0.47609682880226395
P 4.967373368052776 0.8642153964595024 3.7730982156339476 0.10747622590680844 0.03768517325559961 -0.25073320895765205
P 0.018645273347547005 5.552944405389699 3.5443126113221113 2.006400461118764 0.23621547495745127 0.9528932547747138
Ni 1.6335227453894996 1.0488940291858961 2.801503513876662 -0.027912410139551928 -0.22519932635260573 -1.5968697502725078
Ni 1.9879079777586603 6.398206461977299 4.72271780734662 -0.9221829701750505 0.607847868096037 0.5720570836496728
Ni 6.134184389825403 5.646134529006922 9.390653231960902 -0.2380748967636932 0.250121286405266 -1.0156435985290575
Ni 8.66153497328897 2.334156629572812 10.136140696012212 -0.8903786811802602 0.20405405973355825 0.3805638913002607
Ni 2.463725785404245 5.2278889182951085 6.959711161216051 -1.0234492106164053 -0.0024224933985635697 0.3633315865823743
Ni 0.641625553599242 9.197416692403547 8.980359361889485 -0.941750865004649 -0.3823443802394512 1.4064821322824488
Ni 1.2540844559662194 1.0227446177362796 11.6036962257178 0.39579510642771837 0.10021954434439515 -0.6895989213225995
Ni 4.2969209424760715 6.968664118060598 1.519872474165077 -0.4411128565279113 0.6444356945223998 0.2985917232018277
Ni 5.323552634887294 7.961480979033856 8.159786118994857 0.4809392444962297 -0.8607274339727305 0.2787482061133393
Ni 5.432327300324801 2.892635934326799 4.742318086919666 -0.564843339510053 -0.6068397385464969 -0.1331414918833965
Ni 0.7879924897101077 7.608355195102496 7.081199007251255 -0.2794951115816928 -1.1987046009507163 -0.6670783716225802
Ni 5.077344056467188 4.46082139421277 7.178749178266107 1.0107793284582203 0.5869214023560151 -1.1524034038913313
Ni 8.261673685457016 7.270379035545275 9.101302655038994 -1.061351127868501 -0.003851769645922399 0.3958254454450215
Ni 4.501585844008967 0.2172938168754023 10.545611847248 -0.3382389052798046 0.8440016365776174 -0.36998148779872414
Ni 8.124783419282101 7.313435862713875 4.542840482010093 -0.4359932759131588 -0.9698129133481878 1.5070929985279917
Ni 7.280182799643849 6.043884655069036 6.9544332567914475 0.33959850463149255 0.5140943910919599 -0.26806938624325444
Ni 2.2126787503957477 5.253277224213966 2.503680201456992 1.1383921772139038 -0.16512987186453496 0.7254619537677959
Ni 2.3498136576341206 5.356706029375911 11.339623413197186 -0.9779604821559866 -1.0469398375391776 0.2656561488160715
Ni 1.172954230699461 3.0928701143770674 3.797896664766469 0.17189881515725236 1.4695970584650626 0.35882984205727875
Ni 3.683034967238923 2.6264573965044216 2.679817236756652 -0.11733203565496567 0.09908183119552615 -0.11540370828400126
Ni 1.0639168026382397 3.491807202635959 8.081636890390234 -0.26940893099028435 -0.3535853058288878 -1.071970041034928
Ni 3.6888701096414014 2.572581997862904 7.017530717447318 0.0006515175410698457 -0.37750042188358857 0.2836610700339244
Ni 4.090996592505375 6.829264015790207 6.030845286386727 0.7307913364005092 0.5835581423107369 0.13545368495634091
Ni 0.9220884112935253 7.608391438223009 11.596230142892269 -0.3573301175833007 -0.5325554260106248 0.06327407746829747
P 0.33845819306003516 5.622050975426506 7.986419870258361 -0.7580270321880107 0.20191361635178773 -0.9071109063332764
P 8.618985549807544 1.7902742416051491 7.962085333068398 -1.2848874646963873 -0.8429258870149353 1.1159294773350135
P 1.5233980237129099 3.3388612340740997 10.173604303607751 1.2980746528106224 0.908071727584649 2.5586461664694644
P 3.960883789866257 6.11173177666804 3.7742117855116883 0.5884761484376446 0.4020110054304431 -0.7157874067925091
P 6.864582936729433 3.905884854488859 10.589971614599017 0.5206195938049872 0.29554162352159424 -1.4793525951899296
P 6.148147052002762 7.759199062674643 10.250533045129124 2.0358953852540873 -0.413673786480352 -0.412010025624684
P 2.410095027826185 8.430457897682745 5.846393173163535 0.7534167871095089 -0.22156275804128298 -0.9832662106396163
P 6.923650162384336 4.045556780163093 1.649727044570544 0.5275757134078463 -0.7229034490120002 -0.618272920084103
Ni 5.313594837526543 2.9374867959607567 0.4950746836517763 0.34723365257924715 -0.46912271147727597 -0.32272846834903124
Ni 1.5822024867440987 0.991684263457248 7.036892698502995 -0.023761106975339723 1.869339065355671 -1.240727225239405
Ni 6.672086662908538 0.7914093098964038 9.279602498555224 0.3951240485026227 -0.15402476309030894 -0.5016865043459102
Ni 2.5281841752353507 1.700699369259027 9.317370548363069 0.9519257486551218 -1.3548757209600666 -0.7484208765568142
Ni 6.46907988413908 2.059433776089662 2.5070743696929676 0.36736821854559315 -0.039992481232537576 1.197414421384383
Ni 4.142842376398204 6.8257303115402586 10.545665305850758 -0.44245317260588957 -0.05327762837721792 -0.6245451262460598
Ni 8.197786124773979 7.140556177870256 0.39116928145509533 0.5175610094843216 0.5381722579767699 -0.5632767663538816
Ni 7.693753047809577 4.009621726175158 8.012385347871378 0.1750630718178469 -0.8026081612324951 0.8947415861346463
Ni 3.175785313329056 8.3166998031748 12.675466912571054 -0.11946682260978135 0.31532703367863757 -0.2552192697534637
Ni 0.015147812218111132 5.014063568052732 10.14743948883192 -0.7241483771626948 -0.7282315460931329 0.4295475202878151
Ni 8.744930393587747 2.231633902423675 5.8962691434565215 0.20215812826242605 0.803507533118313 -1.0966796279664661
Ni 3.530505794562955 2.6935977772534367 11.25693835806045 -0.16722146428624102 0.22576085528303055 0.7061079747212162
Ni 1.0623039837754429 3.2310470113301686 12.602635455823595 0.18955663744833162 0.9910039456035064 -0.5955358834979034
Ni 2.889618694544151 8.388433999448745 8.0775522907085 1.1981577273083106 -0.28178853560155986 0.4349681770827541
Ni 5.722997126833358 7.6508502539031555 3.711803850223565 -0.635998362388324 0.44508521091209796 -0.020018866324088107
Ni 3.2163685475226913 8.230105927490811 3.49765956052068 0.5131718792776905 0.3015893723775709 0.7771138736161326
Ni 3.3062424256130396 4.1201994868581515 9.079143611157782 -0.7684993924742441 0.5647361245082274 0.7103232983541444
Ni 7.074140659531487 6.0004200927946725 11.64239300548877 1.0928409709466662 0.624397287814286 -0.7575421221317921
Ni 0.48170278433876734 0.25749559222564594 0.6113109015247506 -0.01754777907577623 -1.1070645707452158 0.08201639107280714
Ni 4.663746625961076 0.6100115856543852 1.5324307154225851 0.17594213198869052 -1.3530831478360181 0.19936153935389536
Ni 5.885176030345723 5.517888247074187 0.38790558845296375 0.1386603648190967 0.7649353292720698 -0.1232463442568716
Ni 7.892736840202171 8.808537070086816 11.224408345244646 0.09045680853067647 -0.21294853400971067 0.052870108526154105
Ni 9.353624541811511 4.792409703779701 5.692402496652909 -0.5501582266940525 -0.0692187250875066 0.2491473525277709
Ni 7.777882391298728 8.721064298730406 2.7152249533411323 0.3924776120187112 1.0154944745457029 -1.2760418413802992
P 8.579589277810685 1.6473313743046818 3.5788051891136567 -0.6537325464432935 -0.6282601132038019 -0.5958544431795867
P 1.81950431829831 3.211466665473404 1.5637139648927671 0.7662579047382352 -0.3419749752834691 -0.05663651754712181
P 4.600828568751742 1.028199207373379 8.450594575439373 0.30259981591995627 1.1123597577058844 -1.140909544319119
P 8.36059022211518 1.5429058833286493 12.37772333501651 1.3789137357458767 1.0009921671644697 -0.8033298698898682
P 6.361537484798991 7.9179892344191085 1.2696662795524651 -0.3799990199357262 -0.3719072440665272 0.5053806653680457
P 1.9001090183176406 3.105020620528812 5.90736859911341 0.005334267728719845 0.007713566594173813 0.061311554425287955
P 7.014828792813127 3.878140745736702 5.840982981349064 -0.12411229180159271 0.6920201291695824 1.7574024896846636
P 2.3909224170751844 8.692676874589155 10.353547772639214 -0.3904842357377662 -1.0052226603060492 -0.24526267276138403
