# total energy = -340869.93462637236 ev
CRYSTAL
PRIMVEC
9.24696460722683 0.00000000000000 0.00000000000000

0.00000000000000 9.24696460722683 0.00000000000000

0.00000000000000 0.00000000000000 13.53386740018056

PRIMCOORD
 96 1
Ni 3.2547189219142183 2.8653569759772903 2.1059241020247694 -0.18355362578736129 -2.5090493293779432 1.2402975939011542
Ni 5.49967853695864 8.153918060073318 9.962090820920267 0.6332603946318708 0.16730065426360866 -0.6453340379669531
Ni 9.185907070271123 1.0444909065786132 5.183430492133976 0.21611921842820844 0.7116445882687292 0.3826791378710506
Ni 1.0346059012301776 5.125416884505337 12.448519201320442 -0.31062654287917474 0.313026410569919 1.0749604911218196
Ni 3.4234575351960257 6.5437810710165465 11.40689855260914 -0.3765342013155773 -0.9189325815585528 1.505879952056497
Ni 7.992447561107572 5.64197083097335 0.6250735510214609 0.2514631451451411 0.5817995077484174 0.08622117318277409
Ni 9.090755802698249 6.117773403661611 3.2284630901215636 -0.19825879320801984 0.5089159322148139 3.3371222105404463
Ni 8.670250079386642 4.280484724815954 2.1759347217573 -0.8535913371485815 -2.479752894406671 0.5425068807963819
Ni 4.471674968580457 8.893758465052718 11.939050279265873 -0.4875078988526829 0.06053919503563768 0.0023942112637894255
Ni 0.5363443004873979 7.204254777300323 0.41166377559020817 -1.130352080518247 1.2675628573750106 -0.10748779587103426
Ni 7.346981678659634 -0.0962303883625484 4.42362589019735 -0.8603980756577698 0.4550603198469389 -0.44982761069308974
Ni 6.6987324598133045 7.4332651070097295 0.36510623262590686 -1.5974091677157458 0.9620134719084269 0.28645354517739696
Ni 1.5787158027387318 5.307933475307413 5.792197945464668 0.41099186877281474 0.9548130975052459 -0.06429326276143121
Ni 0.7502404662660106 7.319222290393961 10.860617463770545 0.31023239276454956 -1.399004850068797 0.35308779736717905
Ni 5.567162885913627 8.111234070654817 3.220099210479225 -1.234238789301584 1.7847145472360553 -3.104755162794808
Ni 5.289652225939915 5.706218742255792 7.16653455857503 0.3595564358106582 0.14587050941429072 -0.3591674279023556
Ni 3.3366192889592075 6.868830376917582 3.005195125539734 1.8036952021036166 0.3568896876117724 0.05753640365357187
Ni 2.99031121103193 0.9099299998153771 10.263164596543076 0.2925537445378639 2.5932385597323533 0.6108221202330125
Ni 3.3565557450220953 4.7794509442748705 12.949989498841433 0.28336050807437 -2.2687753680804024 -1.0013999441258497
Ni 9.044631942382068 2.332593100252207 8.179368481233748 -1.3319417378717127 -1.4922641610452752 -0.10333006494891882
Ni 0.8021871403033413 2.3676853315873925 10.74313015277471 2.7177300892502356 -0.3675397111264509 0.23455402809462828
Ni 1.4330021317558999 2.9861223359871767 6.0662585628794465 0.20776081916118413 -1.2663045594878772 0.20463847148211853
Ni 4.398170845554532 1.3647410377595004 8.346634053026307 -1.3341719127538119 0.5804766751719358 -0.9881682759269241
Ni 5.838940427724544 4.422878735443231 13.36769894000396 1.3053372479103067 1.5965956706755149 -0.8331788349305004
P 6.8156140946161345 0.46473950402701864 2.0933778202130227 0.5389171065625944 -0.4572627268148963 -0.1576577318572059
P 6.86062831915887 4.6608493740232015 3.559042080960264 0.7121603515628832 0.616793507325099 0.14893192194843383
P 1.9508968881168258 7.266607060803131 7.8031002374234655 0.08358013601550122 0.6527565556832694 -0.07726113577600888
P 1.4493045306607568 5.987307977598864 1.988165854960918 0.9159575580906291 -0.20193804183181996 -1.022123549826446
P 0.9450120594893057 2.788403735088908 3.7471355162203785 0.3606686950382305 -0.3502287306518291 -0.23879480564885322
P 0.9928188673952102 1.4592820056569795 13.500168183334251 -0.6352100621590737 -1.1195243937751236 0.2342498665906482
P 4.773227736978803 6.5609064497867084 13.134713340136187 0.4786784734865111 0.368837604002268 0.5391325650075102
P 3.010987424277114 6.85820561438685 5.310296999504851 -0.012939847990119652 -0.5003878401391446 -0.27153883284909364
Ni 4.854795213291759 5.824025073536493 9.645208434311785 0.11982677705236136 -0.09713164944769077 -0.8776350083613466
Ni 0.22203257008739508 4.816078171763321 10.180323813180092 2.490350724527176 -0.25791095765301386 -0.08084962445821559
Ni 6.943203714632705 2.1421888484938947 0.5586979131434392 0.8314291992292455 -0.7120405381555672 -1.510240543018038
Ni 5.166075788637302 9.138035533611767 0.5407902411529992 -0.15105102517396568 1.1616274935927606 1.6143879616619294
Ni 8.0705104377694 8.066978097223934 9.851044945589276 -2.119901295953097 -0.14815236346993194 0.5666989046615531
Ni 6.783527126834029 0.8385415823308195 8.67408572037685 1.7063555504101775 -0.6087711512412548 -0.8659796835106054
Ni 4.250838955735427 8.219571510002122 7.769847227382765 -1.4044779573682262 -0.5699909451492635 -0.5446861478358876
Ni 5.001378098963789 1.1914066829826768 3.2671699599887445 -0.143679672410559 0.8756321189987047 0.3504778705481577
Ni 2.6629501639362188 -0.048358851703193075 0.2397035197795002 -0.591044423385453 -0.006284033236498856 -0.02474455393453158
Ni 6.583117659185158 6.774705522435144 4.384025763532546 2.8697072257828964 -2.4400463198456688 2.0356416173720686
Ni 8.723706782772336 4.094223113278501 4.88232897561683 0.32745698417295216 -0.12064953006397286 -1.475728625284097
Ni 8.489490411892518 6.047357766871773 6.291989918878324 -1.020383684317204 1.2979967483848354 -1.1795424261999685
Ni 1.4447365300600765 8.030147436510353 2.8974661364748657 -1.1154579370152338 0.5734596204241543 0.7629113568635054
Ni 4.399687347778239 3.402060058698102 10.112911590550379 -1.4054043258372375 -0.7897783564576786 -0.5400360506583861
Ni 6.0133844182748115 3.097714706936588 8.135776439873977 0.6887309168953494 1.318154197169317 -0.6807227018788922
Ni 5.765621243994192 5.973058404874879 2.126698333096608 1.382569330220593 0.34296099334582225 0.12817309213452763
Ni 3.8730079748775434 4.93767575860329 1.6671694937223895 -0.33943035448474446 0.4992799517869465 -0.4275849972448056
Ni 6.477332382116773 6.714877660316923 11.534550127289727 -2.0210102406121386 -0.3751897714725409 -0.3157173271385208
Ni 1.5214493498642123 0.12312518542141161 8.504316995218694 0.16879266542810284 0.18911260793237752 -0.17411819140607432
Ni 2.6969974882514105 6.721165596366443 0.40159198155324277 1.634687335340914 0.7057102250621653 0.1000328822548858
Ni 8.136450543606344 2.0629885951642866 3.0615230114892142 -0.42344295005197397 -0.2286492325744191 -0.17583954497255522
Ni 1.6898828133083224 8.774629817808664 6.017982933859261 -0.937392073815321 -2.1612119817764266 -0.17126221001451794
Ni 4.014394066343941 3.3936638146790385 6.219299528752924 -0.12534719264995833 -0.22526746058637978 0.013883442850311574
Ni 5.824977510908699 3.253128443972281 2.1091716360550508 -0.7037986098617492 0.8994551895602315 1.8413582638720287
P 4.449861378667491 2.987842271436016 0.2961266494662018 -1.327647738482049 -1.090481212465238 0.6665782920577101
P 2.2405765537393147 4.1434262128659896 10.97798363952778 0.5240270768246394 -0.47066280227088614 0.01994610410462371
P 7.697376915019099 3.804053358522741 6.674064331873154 -0.9952722339615567 -0.06401918316443812 1.9029832357726775
P 3.237362369024589 0.26372066139923045 2.4063219245222554 -0.31499227604703817 -0.814272742054617 0.34790445339402665
P 4.383052058141349 3.441766525457861 4.040224537756775 -0.34688758209373804 -1.2076646383574814 -0.6908759882628102
P 2.3287833507633806 8.58951482990377 11.48827739084061 -1.0273626867381984 0.5323476808751929 3.014793805843311
P 6.513136629739919 7.1405801778341615 8.432695554221715 0.7660403894107903 -0.8491808667857118 -1.219798445506538
P 6.110902908831033 4.453809832627999 10.815292541211246 0.5114572105794288 -0.3470480189310023 0.5201531956915301
Ni 5.34272980376968 2.09109936809155 12.09709847656702 0.2409203366322883 -0.08515853624621463 -0.11518927828035
Ni 2.056876351445563 2.763131780348708 8.609407825232198 1.65599869522418 0.5546759120587479 -0.4642874948721617
Ni 3.193901634564676 7.956486115083189 9.78854563534649 -0.6010030772600617 -1.140455744611152 -3.4338563674394025
Ni 6.574665933377421 2.8183269131127973 4.86759116315253 -0.9038574323929852 -0.12700401152709095 0.3282753663091895
Ni 3.9366733273789265 8.656971437964422 4.6981599522087985 -1.2358408436813813 -1.448077182115416 -0.6910017152073971
Ni 8.072591004844607 2.9780312418058097 10.469420920021522 -3.9713997335829214 -0.5242049971634004 -0.4734521920905653
Ni 0.2708611676013464 4.448206171972104 7.585394322156027 0.7852041068234348 0.32595314593391606 1.0603897923964962
Ni 1.130700359210479 3.230242206144986 1.093187272496229 0.6045758822129845 0.5460100088536339 -0.4602084397067816
Ni 7.000941762710938 0.2247151145696974 11.77622417526357 -0.7201474835334178 -0.039723800952183204 -0.1187235166858536
Ni 8.080580382413409 7.79954662885901 2.3137903220711884 -0.9417166693326039 1.870729003724662 -0.220249181436182
Ni 8.432316428665786 0.20052413001212746 0.352546080366992 -0.6927156125747103 -0.3998445939067436 1.7453360454384328
Ni 0.8600842361757683 0.865919995647609 2.1786819949930534 0.5584004120981867 1.2854942450424505 -0.44934809995351
Ni 6.051509654057412 8.301407148293661 6.503185970941554 1.8627400719819145 -1.3100179412154278 -0.6132772666417244
Ni -0.10809886765601615 6.618561275181934 8.497698942526576 1.1462612955493354 0.39562207118496384 -0.5495133940212019
Ni 2.3360329711498853 4.78817083206119 3.490830920573669 -0.49722846857455655 -1.7063354958055192 0.8808619999390764
Ni 8.686922356882647 9.009511970152547 7.439458724018506 -0.7056225504443654 -0.20536172280138826 -0.49670216375744136
Ni 7.954821661423022 4.944167127877942 11.90268474088066 -0.39474918166170725 -0.018679321577058153 -0.6569219999148685
Ni 4.644186343491976 5.487121158789157 4.71319644163545 -0.18157361924285503 -0.0002637951843479328 0.1624780360639847
Ni 2.683247251625476 2.2023496013441486 12.432697644584078 0.9383603512658614 1.0027780554202987 0.262094142496426
Ni 0.11263080509405941 0.2858662173477508 11.835191144960893 1.502957121982747 -0.4860860788044919 -0.5633729256121136
Ni 2.136927325534811 5.677192519815438 9.231559335383588 1.1151306355828021 -0.6823550952759926 -0.1111827282241182
Ni 4.762408788187718 0.947823136782032 5.99064428249102 0.30027579577246993 2.075301654965852 -0.190643185644291
Ni 2.413300608840744 1.2789569455074548 4.547392814974404 0.4396059329650816 0.7520170785485049 -1.189344499892055
Ni 7.5329843751832835 5.0294056492080434 9.236553621060567 -2.289040546087342 0.5143422454367077 -1.3966322360715624
P 2.724396244890713 1.1496751309363815 6.853848444583123 0.08193334444069761 1.95748188104119 0.07019471584753072
P 8.977064370744072 7.79140005288897 4.809016264761825 0.10398929579947253 0.0871583402850628 0.07333634680030597
P 8.953974699691646 0.6796620828960674 9.756713883792276 -0.11211603867166497 1.868037315825112 -1.1762848384946194
P 3.692766137411027 4.457406901926915 8.10015528215345 0.5635318197874811 -0.2932425430747724 0.744617186540008
P 8.21266402731243 7.4097593225422616 12.444960044577119 1.981862880988716 0.9766366211382406 -0.8511413329461923
P 6.885891026934292 1.0723705053864085 6.305889031637195 1.4313966361359414 -0.24302504168011696 0.8769811768274317
P 5.3482502417425675 1.0216601505399907 10.156477740408768 -0.6626804996652006 1.0257830009559041 2.686778635174044
P 8.51525245576599 3.6349633605793428 -0.12393521953602617 -0.246190326781976 -0.687402427891913 0.9822786499153662
