# total energy = -340868.04242333834 ev
CRYSTAL
PRIMVEC
9.23781989221728 0.00000000000000 0.00000000000000

0.00000000000000 9.23781989221728 0.00000000000000

0.00000000000000 0.00000000000000 13.52048318540247

PRIMCOORD
 96 1
Ni 8.13995134146108 1.3403337892144638 0.5508567533091556 0.0342136697672314 -0.9368452001729156 0.3629181531940395
Ni 0.7535206688570943 4.802262286380783 11.317969295586964 -0.14002613481837176 0.1496474599582197 -0.5835558283178917
Ni 1.3356040253399717 5.581176798821064 2.9641633433483374 -0.2917032236121105 -0.8069070457181651 -0.5433872265188061
Ni 8.531570247576983 6.624801045291755 1.4794248746227938 0.9692578121756664 0.929798063518147 -0.12291698594191089
Ni 3.9111544492223262 6.4517120106894925 12.713039940046599 -2.057046822520722 -1.2831594262616868 2.266408667620439
Ni 7.725588922339317 1.156916871776885 6.407316895009739 1.2964916245942188 -0.10455930937032962 2.841558531262822
Ni 1.8049314738625701 0.9312646409913027 2.796374046118724 1.4718403459732847 0.9312512510249059 -2.7883734625994108
Ni 4.649635023227741 1.8544831407039286 3.2355594115435093 0.5801375466649622 0.3903924473549083 1.432444103563849
Ni 4.583510707185524 3.32381384933911 6.369337445366772 0.4410917734819887 1.3826883722969607 -1.8090616086218523
Ni 5.04291673695577 0.8156893503464631 7.17464440973952 1.1977373519414403 0.41310737245392076 0.6899041112678441
Ni 3.0319541621307056 8.918173017396306 6.162217205418335 -0.9968058969972639 -0.26484008067267933 0.633196888383787
Ni 5.32584345215903 7.617312433329703 6.775898525441643 -0.045317235879560665 -0.8046228776696788 0.06475657555109492
Ni 2.958107028512171 8.344993995676365 3.6517610806406844 0.42861318139900373 0.12027080656831544 0.3707296788186583
Ni 1.0938595119970356 2.563060891151274 9.742441531239335 0.9302341226143012 -0.5331748047621786 -1.1824716840316216
Ni 0.7496389368647864 7.840766062939252 5.966589737415711 0.12974583593828623 0.052863937878567024 -0.2801108907888208
Ni 6.813234099025914 3.5083854942851094 0.9499047143232365 -0.2856014815897469 -0.8502689576435679 -0.30347810475985154
Ni 4.747518964661564 4.189674724253452 10.759776789362313 -0.062394245966505446 0.426426201050014 0.6023310520428659
Ni 2.374184422053881 3.919967329566595 13.056784767445379 0.3212706528565822 -0.710590435972602 -1.4437919244765007
Ni 3.3025576253640976 5.388429683115444 7.198549116727848 1.7486064886595887 1.7467774058706498 0.26471975304473117
Ni 5.500844715515237 7.845957717817114 4.128763310075252 -0.8044765818998018 -0.2836348447816793 -0.25472176129175483
Ni 2.829645902655361 1.4600836507477468 8.037278514104331 -1.168258368645717 -2.316831600157681 0.5789239859728352
Ni 5.812325532546729 8.478757630251843 10.059320930318195 -0.7311037254346054 0.2723248190854987 -0.6485497166907734
Ni 1.184750423639863 1.269553611858295 11.828841068516528 -0.6171724879310726 0.1403632064428163 0.9072083511430893
Ni 7.711140971753954 6.301098592311136 10.258287870275174 1.31718900504257 -1.7790861453056843 -1.4199565126197997
P 6.876199080605091 7.60465661983741 2.3049044666766525 -1.4058920641069337 -0.09900366965942303 1.2909529541641767
P 5.59725984355835 4.78486747119393 13.19008373967147 -1.2929141916556055 0.21644651986064012 -1.4636421264332082
P 1.0909403608557475 1.386984780554669 6.182037872154878 0.012237422606456345 0.3791176457720373 0.15242116604861491
P 8.62134338299166 2.506811804761074 10.844834017632596 -2.3087058857267526 -0.3253759332742074 -0.5253933610445468
P 5.3078297030276635 5.681185438870382 5.512760579620134 0.4764166740355279 0.32063867569953813 -0.13609363253318496
P 2.686598258912177 6.820559690339337 5.606173416141353 -0.6386100889795582 0.10019126220962099 -0.3363607144204852
P 4.335142676854286 1.0077815046093064 9.609305144646427 0.9345983131202679 -1.4666261487621965 0.5269841025704344
P 5.685434836101371 1.1981914518378822 0.10239661653673342 1.3937808826656963 -0.47191030152474217 0.5264233449709579
Ni 8.684557785712654 3.6969294018600776 7.99836604463456 -1.197744293919976 -0.7263572118885555 0.10778475828616277
Ni 7.714605154279217 4.885864557990457 12.651427375325285 -1.4359744853146108 2.5123130877308797 -1.5771514459079743
Ni 0.9781742912933941 2.9243705096261454 3.8561635539253016 3.066983343362673 1.4531908491928973 1.0847509948496803
Ni 8.632733615134722 3.5283668990908255 5.3426322663494625 0.06284341768878209 -0.8088919373586778 0.18806616894573416
Ni 4.526901345812697 0.10428390317649656 1.912715587062592 -0.16984373240043651 -2.988091099741144 -1.264380345881971
Ni 7.039468312475741 0.39175193072487424 4.4700748956682865 0.3485037775409224 -1.605321737694603 0.23443472890794467
Ni 6.33617459510693 5.203054347823583 8.472895309637092 0.009061853091952135 1.1136723058697207 -2.64436314632231
Ni 6.805603659650269 5.982818739710061 3.711454026351999 0.07932778849705048 -0.9190372254572173 0.7045488577642124
Ni 2.6208157422124545 4.310117422291787 9.36804561685703 0.6559964027768057 1.2867574280255905 -0.37519748478202475
Ni 4.976016444027896 4.161517848688116 3.8703334461266365 -0.8598591724351643 0.7454072865414711 0.6091935834906541
Ni 3.8186931081680466 2.026223453576355 0.9493707683233428 -1.4301661061629498 1.277395012974084 -0.3602915142044698
Ni 0.830125291765738 5.125244189396148 6.657093692901251 -0.3377151715658507 0.7885663384274483 -1.3508522016229705
Ni 1.8690327073100321 6.3150015115125235 0.5670571183612978 -1.5969021461723403 -0.1089237569866124 -0.8319071673069286
Ni 4.226090210959014 1.4114927171933944 12.04518250045621 0.3520477861384389 2.6396248603063763 -0.9685175915755321
Ni 4.8103823302199995 8.502046174641677 12.514329811487494 1.225984776822908 0.3597176439788708 0.08262060031570932
Ni 6.946812977200047 1.295595026628204 9.302796122375193 -0.2866983141983514 0.9835510888698867 -0.8464264439690261
Ni 3.488653510621213 4.864164918652212 1.4388902439491926 0.34956821424969475 -0.9482498424654314 0.26621484953301894
Ni 2.917054156132791 9.035484094431805 11.406447288628195 -1.0089587303097138 -1.8799996303933106 -1.80083922071206
Ni 6.910009502051655 3.800060425092166 9.926982691379111 1.7589420662576416 -1.420811147310611 1.020663677451468
Ni 7.579880786416731 5.362997964469981 6.2339839819576985 -1.6799971150213067 -0.42952103792525376 -0.2617645270711492
Ni 0.8449242795136606 7.058886210257347 10.120933495039509 -0.8429384854204258 -0.2726608622686788 1.5267953620529253
Ni 6.779691574361303 0.45032248129800345 2.3617170600909616 0.036613280347659524 0.7268297806495999 -2.192246482484728
Ni 1.5988541837997392 7.184437422792937 7.962185198558708 1.0919737378503644 -0.21440069307520496 -0.2390737703418528
Ni 0.36838024595443486 0.3343592022103344 4.310749289184395 -1.1667349900226551 3.155752222667965 3.381601523899744
P 7.189222613587833 7.690549870823792 11.604495989270475 1.1237407458493163 2.3290232571278664 1.7669934758072086
P -0.12389025248747702 8.928925839954722 2.117023834582522 -0.4741119371617513 1.0182987767637173 -1.1989030901147675
P 4.496961570974359 5.87913344727393 9.134858096242494 -0.8385200446377559 0.4380894963205552 0.3414779810423925
P 1.486623907801293 0.04338634572839751 9.649379731880675 0.42309456557361974 0.17418324031605487 0.6359726513567112
P 4.76560661635347 0.3472413422942781 5.146436672412696 0.26940404589427797 0.8783644303282034 -1.5897804475258943
P 3.0474552242037483 3.347398003971099 2.940651243712874 -0.49288073312882213 -0.03876812190713324 0.8348487664337557
P 1.6234544986391384 7.515206808125092 12.309075611192666 0.04380105634535037 -0.8824154604691253 -1.3086354590456044
P 6.527850123684735 2.893118964338242 7.339310400004358 1.1912278329576969 0.1772996744578495 0.20877897601305334
Ni 3.5228888717908764 6.03338656675883 3.6236522417396997 2.2142780083634706 1.9699280772243428 -1.2139751539565415
Ni 2.433426562145908 4.7084152723163974 4.956663210986761 -0.322226074791316 -2.1131868600473993 0.8704001811758042
Ni 8.495838359556407 2.0246253107047005 3.089254512444572 -2.506827896246592 -0.6577655788620865 -1.1176423462610623
Ni 5.65017407690423 6.335066056698846 11.444115423734893 0.15012645647716724 -1.1277899762180255 -0.9161002543160804
Ni 3.5650779960385433 8.116274808628416 8.525124096733974 1.2086527133023635 1.0197645626759664 0.7457934662362962
Ni 2.34987047963657 8.759947635282439 0.47576528532754664 -0.3189440616059346 1.704628797527058 -0.3256618399457424
Ni 0.5648991635935607 7.6334786184475965 3.680843585776771 -0.384793356000576 -3.283566645911493 -1.3621331738534284
Ni 3.0293029077713713 6.705428738839738 10.435352862634431 1.2190052601812813 -0.5989603357984201 1.0057546215501194
Ni 5.542267100697312 5.986264446595189 1.4443932133633235 0.13741158001366013 0.7275766861179535 0.430041172094782
Ni 1.2107179358492326 3.577576766589691 1.5679028676640248 -0.0968817382204138 -0.5108049217074107 0.22421690783467835
Ni 6.375084293230682 2.3868494733662415 5.043302877834586 -0.8243252411946125 1.5836663642083564 0.17719477344886903
Ni 8.325650000455298 4.5135249823551495 2.584413188454987 0.9104795656951933 -0.7912737100562824 0.11104465998435714
Ni 2.356281526763323 3.370187706077294 7.08247498379937 -1.9493474248595135 -0.6124079766628937 -0.3224711009225866
Ni 0.3834526731763514 0.13101261175941725 7.885065105290305 -0.5849352251639217 0.36068335032624976 -0.939829222501904
Ni -0.25503496507385764 8.305095850805406 13.077471017922235 0.3408766000129678 0.3862383159772187 -0.09710696685734244
Ni -0.255430343772741 3.0865866300091165 12.800099003925482 1.8628562858448048 -0.9533028315083065 1.2554154233791992
Ni 4.686281455434986 2.854163077114154 8.538063511302335 0.5563468720032677 0.8215204247559657 2.094233715983664
Ni 6.6409672304096485 7.96888538945357 0.23637179719175538 0.308265755956482 0.400307135365459 -0.2506244512939297
Ni 6.602676466230411 2.792907092247441 11.982649848856187 -1.451288747074178 0.8590474751671463 1.4678235115044076
Ni 8.504438770039124 8.720178819892423 9.993800767708384 -0.7135533752556679 0.2951580149299304 -0.46181872161669496
Ni 8.539228400412831 6.6088658056755465 7.9089827452267265 -1.2809382502406519 1.6220043405566065 0.6967507018760323
Ni 7.612785901496693 7.61964036398668 5.805654902676084 -0.1298967596938537 1.001009136445334 -0.02386009444704923
Ni 7.414006489287083 0.7574190289255233 11.73682037147946 0.22003295166031783 -1.4659152387381011 0.5358474664983353
Ni 2.9527213794128957 2.0557937156119976 5.089298907732015 -0.1335793507517635 -0.7662648467167706 -0.3075651303450316
P 9.37056754173542 5.017327975369162 0.3787700221842029 0.6708018432207543 -0.6842024328973766 -0.20293151609334084
P 6.627147451588866 3.192110248638654 3.0376197171780226 0.5355790433282969 -0.6260739041857605 0.035768672959177114
P 8.92605287791377 5.674635824442619 4.434218297076801 0.09250932018433099 -0.2398291604506386 0.7596347429947627
P 3.4797020629759343 7.3054621034955165 1.5536248929679017 1.6521276423045483 -0.9337099969780436 1.8673346333311323
P 0.7256446230218065 5.274102421961706 8.801604661094226 0.19148316504708313 -0.6971924173991412 1.508599407870189
P 7.020503067877436 8.652899776341785 7.978828978974084 0.8314929625876455 -0.0798990876194882 -0.35278337875288274
P 1.4498204326529016 1.6976064803198962 0.5989008079155197 -0.029903472427651727 -0.3424151481446812 -1.1606299055661817
P 3.0532750508461897 2.900084280669037 10.933582678801802 -1.48238829669246 -0.01642703520777171 1.414846187976428
