# total energy = -340867.43191539677 ev
CRYSTAL
PRIMVEC
9.25442468306639 0.00000000000000 0.00000000000000
0.00000000000000 9.25442468306639 0.00000000000000
0.00000000000000 0.00000000000000 13.54478597525097
PRIMCOORD
 96 1
Ni 7.417782231292575 6.46186495213722 4.572231758417468 0.11763542582799741 1.6003916473828372 -0.38015971388330655
Ni 0.9384264166806118 5.708554790526599 2.7161902750738105 -0.43171676002499204 -1.7926751968440287 1.5272537897465825
Ni 3.6005912118840233 0.7278253271751993 1.0312186811577295 0.13355569660267969 0.6734747620672271 -0.10849566831025831
Ni -0.0037258313398579363 7.395099636622948 8.072827987166123 0.09294203684637542 -0.7691977040928495 -0.9532370112673777
Ni 6.469166693138581 8.310602843594598 8.704163907240575 1.858286407085935 -0.48694508437067746 0.027500776523430054
Ni 8.68570318106882 8.734279655740739 3.0231280736742385 0.2253757040294699 0.22029263307960772 -0.12829547664500487
Ni 4.181139775252052 8.6710996990661 8.518248069886026 -1.0705536203033756 -0.04908878710685094 -0.4260508199884663
Ni 7.418143153851577 4.29780105163121 5.043428189947369 0.22974915050681724 -1.4616222677897022 1.5599188840797715
Ni 2.5107161367911535 6.731011382482696 11.790180423214876 0.4129669902213146 -0.26222269765449036 -0.2229300707024548
Ni 1.5518004240686998 9.158539496636038 1.9436225813342518 0.18143837921657138 0.08353796992365613 1.6243391593373702
Ni 0.7030715922823726 1.161097126736056 9.04496457085758 1.2762583282664794 1.6715106748168502 0.3865458199153085
Ni 3.751771491983177 4.201971485003717 9.228076317561419 -3.050790021432262 0.7320658322375586 1.4700868536172873
Ni 6.0177913881951355 5.62473746701668 9.639783456943096 -1.2673353147452369 1.6057302859869311 0.5170933258192837
Ni 8.446467050997615 4.026646411149746 0.5232090740520176 1.5403862133634825 -0.7412498127296718 -0.3735468365524793
Ni 8.456165687967736 0.6331053660560241 7.506222139885104 -1.4399339841829912 0.15404816012907663 -0.9642863271030039
Ni 7.038693236820144 2.56329052288587 6.83568725357559 0.33871070270990056 -1.3260899070766259 -0.03727559652200677
Ni 3.223158759413169 5.629013011177173 0.23695398896735853 1.2550739808793805 -0.2860213427359848 0.2725060818583694
Ni 4.915293277961763 7.1493854093388745 1.7199033449727819 -1.4877446759083668 -0.6882964004610921 -0.2632567953459595
Ni 2.1752987719580408 5.71189563780352 7.87715983717883 -1.0681342122286055 0.6235925325248035 0.4108432590100924
Ni 8.688877448703124 -0.05412265132859208 0.4935245817377396 -0.0265281281975156 1.5739565931197603 -0.10732401659966033
Ni 7.293347238257976 1.2680967838434516 10.041982600501203 0.46981048157291994 0.028099329339377414 -1.194803466124097
Ni 3.0896914479789137 1.560370021238865 9.8423461532498 0.5215642171064437 1.4547630787760235 -0.657216391226836
Ni 5.585730067370627 0.3209795370305481 6.219955218802018 -0.03290394981687236 -0.0969835539056007 1.0101118700775507
Ni 1.8570853824373872 8.679734077208392 13.217638398494874 0.25037865383171076 -0.1231087902377428 -0.45491196719453264
P 8.845573365857806 1.902358027530743 2.0777293735076627 0.4877894346488438 -0.7177890106035703 0.6781888797134449
P 8.493386983667957 3.0182195268718024 9.615782106769423 1.0563356769317809 0.07223565753695947 1.0259516653232847
P 5.589163458893446 7.6819405267841425 10.620223110376534 -0.2556283322664243 -1.2189160429015846 0.14763531462419735
P 2.6043246415170924 6.958947860129743 1.8282347137786512 -0.7329191813767894 0.7622153592377453 0.0931847489848008
P 8.25221667885748 5.392932639891092 12.322897493090464 -0.9861633296817532 -0.7950874273754178 -1.8201775160293556
P 5.362855759974206 3.5696351616311053 6.017894112308083 0.27443415211901767 0.9896967967563083 -0.13453271580396833
P 3.5995824796037343 0.9511234872178327 12.264302178357616 -2.4372011370873894 1.1456576005270656 1.210456856390638
P 1.4827624166287092 6.8179659559285595 9.92985876849843 -0.20828018199976386 0.596702907222811 -0.9122924505342159
Ni 3.848859660354885 1.6036807283191805 7.352624604083092 0.16396130547773052 0.4193808641674584 0.8319159090576769
Ni 8.867339772493043 2.466942708481347 12.048100311090451 -1.0438120905434733 1.0726285005545335 -0.1671607862516347
Ni 1.3650091181479531 3.7338641804018926 4.432097559508712 -0.3903867909279535 1.0125791006711207 0.9150664137349273
Ni 0.6106772680626169 1.2877531816722103 4.043809666994009 -0.07519422594465114 0.046102965005649636 0.03175620936567434
Ni 0.49659334893172097 7.164692227610422 1.116179851546949 -0.6715577475501725 0.10467218079911006 -0.4277760302096891
Ni 2.520137141023581 8.907337395570206 5.481344785209852 0.6109681588925736 -0.1192649910116204 1.0838503374122819
Ni 6.543202089857069 8.206435040411685 12.760922365120647 1.1922223356604822 0.8703119923373721 -0.3981862323677142
Ni 1.3557176758597829 3.4561296440370723 10.513936969405012 -0.3095852460988539 -0.28541019151454716 0.061791836495816155
Ni 4.262430640848952 2.0761653757519847 4.962186372800795 -0.9444271262852315 -1.8758987208510594 1.224083703145453
Ni 4.926028410485944 2.864355463641604 1.1633505791236751 -2.568980458515937 0.8736433707034502 1.0319531343223582
Ni 7.175843809241144 6.114861047717664 0.46540131085176273 1.0931039948000658 -0.11713560337344343 1.7826712915537817
Ni 8.011240716963389 6.607418542085768 10.24840439186186 -1.2263604149947716 0.02927946569040764 0.9973106045478243
Ni 1.0684510821674573 5.23435807454468 12.760312498540179 -0.954907456991265 -0.020586565902100028 -1.0914893420147782
Ni 7.015797790384952 7.998182723867166 1.6952514087504433 0.04805160409158822 0.538202339883757 0.8991538562697288
Ni 2.0155951668116714 1.9869157050078468 5.931153316070243 -0.3291269156762074 -0.4129762461926952 0.8046467889290788
Ni 6.267281420711853 3.6825021239284412 13.05056364416272 0.3028168170267688 0.8494451761906918 0.4552930046830353
Ni 2.057249331890411 2.6105806325398047 2.518219624248572 1.0892409123002338 0.11770715960619728 -0.766499588435396
Ni 3.1903980963652376 5.157879509734481 3.24259490193669 0.5951844136957557 -1.2438673135302836 -0.670081163004646
Ni 5.534405028595534 3.2681630261934203 8.94650674764658 2.4774633270415465 -2.9937192445611993 -0.4025820474425647
Ni 7.532389025412795 0.723533125050445 4.826589618268424 1.1155404694267113 0.9118389079365651 0.3110060377057805
Ni 6.666415498845814 1.370598790600199 12.281504302785157 0.29725063579290095 0.4878040899368631 1.7393343193290431
Ni 7.440742458699896 4.3895771802883665 8.345566059694905 0.7188498477679168 -0.36845322407965575 -0.825417960038159
Ni 0.16260301637035743 5.172362684217536 9.324163157192508 1.1442483788843647 0.14354417527395924 0.3690504913440225
Ni 5.284979777050947 0.31878808928768093 2.9003995965339997 -0.692191107529808 -0.05542475662720777 -0.15485420097013977
P 5.678265058844148 1.1332042910223654 8.458502430176663 0.35854753493016955 -0.04496345208456772 -0.3258564724550517
P 1.6355159489081306 4.205969396426514 0.8862620015952238 -0.18483892025768814 -1.6470535702157505 1.99946259634835
P 3.6613650181653123 7.141796781175229 6.82898334840273 0.20990589052864492 0.441332171627569 0.7863173944922716
P 3.759758060404184 4.786351380151926 11.436783562288678 0.09105150469188189 1.1162755478205224 -0.32805862231269306
P 1.1546560472215475 9.071899573626226 7.1534888212019965 -0.22499955163697377 -0.0422877050246175 0.026509359144438215
P 7.238033542484675 6.343010377130276 7.597107992896722 -0.25851233868243867 1.6140395771835752 0.1840375074023153
P 2.113238600658768 2.991779635818712 8.559939252663124 2.151316319929269 -1.1004542645175501 -0.6484782400228897
P 6.070560117206238 8.456147179118556 4.460731674632046 0.8684363725812142 -2.464645606451587 0.8616810561352514
Ni 3.794388117219257 6.450370956796674 9.544658152026889 -0.16970617838130772 1.7660874190531715 0.777208490212468
Ni 4.7010070765846885 2.8316503271412117 11.310749404684959 0.1391776707751474 0.0985627254672625 0.502633955860844
Ni 9.161288060739212 8.518882923412885 10.010003010888653 0.9549928176162198 0.7481830495143954 0.8073029956050032
Ni 6.013802731196927 6.066016194732642 12.175542992116739 -2.309951842318712 -1.0951271958776816 -2.095134373421063
Ni 0.5044697897001093 7.707473484227431 4.775268281263168 0.08270750360256078 -1.0593505524987046 0.8964590830463852
Ni 9.100569781005461 7.410221366402699 12.413863859596011 0.1310252168713421 -0.2027235138475928 -0.47714172512701053
Ni 4.219638181545665 8.166622505826318 13.040946446128986 -0.028442314501092948 -0.15587030093947996 -0.5292104207977918
Ni 6.878536164868874 1.9859624992750964 1.1243977805827012 2.5667212301681155 -0.4486325619437242 0.5709425104292555
Ni 1.131908671579792 1.771565244802943 0.4612923463338866 -0.1768661864648567 0.7672760615901044 -0.616485489166377
Ni 3.526842702327819 7.405196213850432 3.739850867669041 0.1554851496859193 0.10932382063850848 0.6214996545515168
Ni 2.56184683264986 3.3299455647549983 12.53422320404126 0.36013544824257976 -1.086718402988696 0.8104867926496236
Ni 5.063077184236456 0.5010669377784356 10.922596626769266 1.13985153536825 -1.356056628642045 -1.9789300236126368
Ni 7.69480417696398 8.07247724447417 6.241803064373643 -0.3896146886486193 -0.7843795540396105 0.53352138946832
Ni 5.241261875288679 5.273902230816943 7.5273925615767565 -0.5023444496448833 0.30273788415971736 -1.3649279629897462
Ni 3.2862184085681414 3.936832220505629 6.8004038343844755 0.3515176246665817 -1.6938278502568118 0.11969205124671001
Ni 5.892514242522863 4.842747843602235 3.2754545873277325 -2.2186578825987207 0.8093465083975931 -0.7100173370779513
Ni 2.7681649744551073 5.66590114759216 5.549136221657596 -1.6028403660336459 1.1857824935724095 -1.6742620123097425
Ni 0.47189606602889217 3.6519440139328854 7.598150966547992 -1.1650658298503482 0.5256332449694947 -1.4489004493476596
Ni 7.785534555642488 3.8482118506335983 2.7487380863561763 2.192149551895547 -0.41989071392434135 -0.44119873137349824
Ni 1.2305053111596391 0.9814409821740538 11.481454669783695 0.47223246075085124 0.3228156287461989 0.4567006836638393
Ni 6.275138427188603 2.308729065693937 3.648450468650231 -0.19383392466744684 1.1662837614178494 -0.1467652533144182
Ni 6.875565494575544 4.007887692506198 10.954805726111646 1.6725576280241257 -0.9199435393215704 -0.7298503126434785
Ni 2.8288462364904983 8.795071970871208 10.66062700269319 -0.22647022264522934 -2.5689195233710143 -0.10472668818612932
Ni 5.036591021060418 6.34872961152678 5.287558985184127 0.9061945651665942 0.25750755156700816 -0.1140273967617649
P 5.312206294194171 5.147977275423383 0.9861190938042033 -0.3010504691549654 -1.0555057248313178 -0.17096061961369913
P 3.17459153916584 0.22198865896317507 3.529284019534611 -1.002186444582887 1.5449422081652813 -0.9687263651522285
P 0.46654700861598136 5.315047402543242 5.70774595381745 0.1782502112965769 0.7303807312256518 -0.2903657357476096
P 9.176233956451755 2.317483751355898 6.01128460226604 -1.8445374329309585 -1.0028359052414277 -1.6053613326832867
P 8.438249121961862 0.11924511172463359 11.827022287506912 -0.4207695169848689 1.3494681767912502 0.12124448333549441
P 4.150378067915519 3.110060436501088 3.233763404550633 -0.011233149711658072 1.7233736822347285 -1.5789031384917582
P 7.938297342346498 6.1024231010689585 2.561034294170874 0.9775943570658197 -0.2823114979845654 -0.3707718449105034
P 5.746886617177596 0.2485507084208508 0.8227673944845302 -0.5971608206958361 -0.30493514892135226 -1.8143015168645529
