# total energy = -381173.98147861793 ev
CRYSTAL
PRIMVEC
9.23294005995531 0.00000000000000 0.00000000000000
0.00000000000000 9.23294005995531 0.00000000000000
0.00000000000000 0.00000000000000 13.51334105762480
PRIMCOORD
 96 1
Ni 5.68861745569299 1.915715020774086 12.279383631724276 -0.666026276208982 -0.5276353630011881 -0.1042057826856528
Ni 9.221426518977964 8.767904506416102 12.22692483655382 -1.164447479540059 1.4215056022744745 -1.3191962652805862
Ni 8.065665556264836 1.7759652410074667 2.4466580050772957 -0.11899682495189828 -1.1826976839994987 2.336642207125705
Ni 2.0184407111601463 5.58648267346662 4.121623192183796 -1.550532557768865 -2.6880955542132545 -0.04730624128513144
Ni 7.9196650761214995 2.905929369374139 6.723657727969505 0.11330954475913389 1.267321945008798 -0.42139043839831947
Ni 7.03935041228374 3.2853847372948928 4.218040937965168 0.8917357094287868 -1.1680228555961434 -0.22409683731704633
Ni 6.257569684074242 3.0865718403792863 10.444136452889936 -0.24689686593069735 1.4157771844311293 0.4026681793984678
Ni 4.903863720805053 3.8172759445356044 4.994949443739225 -0.4157836337345033 0.5332853621981137 0.7524837337722783
Ni 3.243725712036767 1.017746975665596 11.179073860034032 -0.9766787872300856 0.14283917878713465 -0.28282109063113225
Ni 8.529076047561507 6.512269566780502 4.392970988995315 -0.17280718590413463 -0.15730600494474198 0.1468884091558438
Ni 5.200333424049381 1.5594527981211541 5.5813611616513095 1.6165469169864615 -0.7107380172940598 0.14796107339473227
Ni 2.7616462160699 4.626210749270845 7.9117367505476635 -1.8165360626220264 -0.8425898438317554 -0.013655128889589386
Ni 1.0584550081042208 2.1930910041084397 10.407947944578938 0.9987537647522541 1.1949204513179355 0.9923270352903039
Ni 7.075460440604779 5.176096956562107 8.318718282475963 1.8980102080381183 -3.128733527987276 0.12091306813800468
Ni 7.999456143559602 7.102965368850336 7.1771114167754035 -0.22534613634311512 0.33081561623253997 -0.17321187754172104
Ni 4.111225055161256 6.776183923601924 -0.41147335723594136 -1.3142510054601688 -3.1453276849005314 4.108795115646665
Ni 2.570136574690459 0.011167240924136245 8.482986134399708 -0.5408171517987848 1.351805309564859 0.1540946970962959
Ni 5.942135522079872 2.667645653979258 8.225422193706951 -0.198637002483045 0.88669146213666 -1.4533772541720906
Ni 7.5040904469397125 6.715782030153641 12.080183874622872 -0.041800223865237685 0.14828066151768013 0.23332889743827556
Ni 3.2489238572540375 2.217899913875413 1.9998529563619065 0.7815148308973057 -0.9002748572480495 -1.8702916590769274
Ni 4.587681690671075 4.776255257132059 9.197234369602667 0.9760280410199643 0.2642821512866803 -0.08909129564171753
Ni 0.9002061097633149 6.75886292817102 12.348301989024087 -0.2700653336273607 -1.608840292370823 -0.7511084506913064
Ni 0.5541176636910409 1.8401434069137677 5.305769905618018 0.32474755566158914 0.43828361460923226 0.017807203384749976
Ni 5.5577497642017075 5.757439790416853 1.8481659084755553 1.1922169363438435 -1.1077495126273824 0.3277251502326743
P 8.701491969030974 7.212375707792887 1.0519596348176314 0.583506206026879 2.6564897543825157 0.6805679214685827
Ni 6.3050731603492975 6.765556809667506 9.597026211156743 1.2227945520203842 1.123396218025704 1.2383762085087253
P 6.583252409463231 8.93132754433029 12.36381517480394 0.784972450428603 0.35976212406356106 0.7749176372957622
Ni 8.195397596136717 1.8968982890639663 11.753944402952175 -0.08910132294404655 -0.4959675995842619 -0.15227332761684098
P 0.49465753012226255 4.17347353660857 7.0878962874842495 0.2851955044005798 -0.23736578651181056 0.04197865842463094
P 7.567594608226367 4.862204695546928 10.588864633901942 0.030019429180225717 0.4968361182321443 -0.13930391194036654
P 4.657104166494623 7.649813938883195 1.8550979998239152 0.1452264480723886 2.503072285858902 0.41596772472085136
Ni 9.345674192492723 3.8200088947741695 2.524305183848524 -0.7822923324932786 0.5557866286244235 0.22066518592767803
Ni 5.577840641631157 1.285095986165215 2.8204914358350015 0.06331212979508452 0.9446276723318119 -0.41232832819605114
Ni 2.919797245246857 6.876435186069284 8.14199057802876 -1.0487031000871874 0.4027471122655193 1.29741336507754
Ni 2.8799478762277815 -0.3993403507883122 2.2112281914349166 -0.31513085850743144 0.5484219607292362 0.08972944344634869
Ni 6.872058772511583 4.272450653356598 12.748621031451885 -0.4896270020782149 -0.7144879712547952 -0.4133585692327784
Ni 1.1577368118720894 1.6387637526795091 2.6734660993522024 -0.47483595981196935 -0.598908142404246 0.6891952581262777
Ni 1.9283733815074393 8.26084990776235 10.574959826269243 0.22705334884220896 -1.029555580624459 0.04880905108290303
Ni 4.771066344854782 0.3761287396405003 0.45695204977006115 -0.7835328897685989 -0.6806334845991956 0.6722612013751003
Ni 1.9083194358379694 4.604568737922208 1.2828108335164148 0.032516484570466575 -1.23884543483566 -0.13473197629896796
Ni 5.03158297975799 1.1040380328602857 9.824144532215485 -0.04670871691044859 0.3427015690368485 -0.1946808460487744
Ni 4.686030967499434 8.704594236869344 4.102920948929616 -0.471048210634763 0.7389216788171274 -0.2774343723979222
Ni 0.3876034374664751 9.339857440295777 0.8602662579322867 0.20567102651169095 0.04946673927155997 1.4374873224147113
Ni 8.20102968953376 0.6218699006694651 6.716535438057246 0.45214006087635034 -0.6711314586460312 -0.5947547823575048
Ni -0.23336255837746472 9.007822452190124 4.3375530365564146 0.3135624855790471 0.34202074091974 0.6896071488527156
Ni 3.25785211022935 2.2882826154584563 13.075630530318177 0.23466252864803458 0.3401446069429497 0.3150336708079349
Ni -0.006215615204736271 4.103774072585169 11.857605390159746 0.09804207707710211 0.22940153735941135 -0.19810606968023947
Ni 0.8028890756264146 7.505401524419024 2.8730988813393776 -0.40435996527859397 -0.05699904309286312 -1.463225864831396
Ni 6.4760672090595115 7.473270893235894 0.7212301844272926 0.9496078991552226 1.2960874471772648 -1.791104252812483
Ni 2.4603015205081316 8.688713580077684 12.988321079842024 -0.12649390465989183 1.1222770168195964 0.1876707332795284
Ni 0.9365340354682397 6.376406854751842 6.305730545676953 0.2936366931893975 -1.4830698961405169 -0.5824319991260937
Ni 8.588176096470473 5.307998737332848 0.47304506418161096 0.8473821230140762 -1.346958522995519 -0.4173502068906748
Ni 0.5051175278427702 5.900458030941756 8.636686886499001 -0.43687259319431854 -1.8969306018206946 -1.3962949073368016
Ni 6.891651071181294 5.232011641172747 5.775182731205536 0.598226542956189 -0.13684799420070626 0.1813465908337135
Ni 6.487950002833272 -0.20602843952181749 7.868129574950561 -0.838196599860066 -0.5235365103414661 0.5552181577154631
Ni 3.8919981279163687 3.4837544530907314 11.078696106288739 -0.02812863991541607 -0.0271099688429146 0.15926184311953215
P 0.42649073413805594 7.959597541600532 8.25905687081529 0.5354615439138263 0.894111408749815 0.6353069927482543
Ni 5.529773956016396 6.450648925252859 7.342055119906794 -0.8651913832813551 3.8631087250843024 -0.01268659432873299
P 1.2701663221930541 1.8005802590345417 12.69764873962065 -1.461263856009019 -1.0257408348640593 -0.8880986268968318
Ni 9.300894433516236 0.406497725872554 9.567134567922437 -0.5867931043082668 -0.6726574083722544 -0.48436883900306904
P 3.3427951581847473 6.540503897285677 11.02287282778405 -0.786752168036845 -0.8346165958182915 -0.6160648566891906
P 5.153476253573985 2.6289504024595765 0.8033128675721922 1.7421800163079546 -2.209224247989647 1.3871065559693145
P 7.013941361417082 0.7254330187130857 4.4966726011388625 0.20007167804704254 0.36698358151266475 -0.2886184140391997
Ni 3.3546040884385464 5.911620655395895 6.155921477785616 1.1549562522201722 0.4865851299280975 -1.7684286655918384
Ni 2.3293876643168723 4.813464005312521 12.561082477564359 0.5400442781885022 0.2861781800288233 -0.8868819808809113
Ni 8.884368811514948 7.215847293231064 10.248558778148633 -0.5994593869220257 0.5695708268927093 0.09555479187887414
Ni 9.036139879155256 2.6747088530755496 0.5345881490132957 0.3187206327412188 0.11591252959961973 -1.098440833631947
Ni 4.093950224430326 8.424808456196256 6.7215895494105915 0.5067991429821271 -0.7876111736030307 -1.173177403213889
Ni 5.103978462259976 6.498244730927866 4.3149175608643 -0.8779003462075913 -1.4409868509275376 0.1604977724091623
Ni 2.419916640969337 7.540569792860556 4.545050436831461 1.4946665998391806 3.754855768912469 1.5117202128873577
Ni 1.193579084933269 8.645891204380169 6.441620033231599 0.22264313558965526 1.2552416168054963 -0.6840936752336542
Ni 4.402127295588508 4.382211844018965 0.24265089601258755 -0.5564227195465256 1.5593249592495146 -0.7909219831438186
Ni 9.457023448834255 4.185097808062467 4.783979534732002 -1.304050410778083 0.1762555494640513 1.3722728333905914
Ni 2.919621819386949 2.571383021589804 8.93371056614304 1.0414302205748582 -0.7661640594728483 0.2907827686803702
Ni 4.59740397648597 8.130111477430997 9.20255808280387 -0.5821450640132941 -0.22191448495374683 0.3676492401211216
Ni 7.124856669578842 1.0709102441576805 0.5467082293449316 -0.07788051452756264 -0.6266120360774177 -0.6518530700323935
Ni 1.9301553389265036 6.806117115066208 0.8255827188404986 -1.2432649040595942 1.0482395301872076 -0.5123817792762272
Ni 0.9235894535950366 1.979108386780799 7.758428398398163 -0.5492447137408476 0.507576387467784 0.005294672740036042
Ni 7.0764575981242555 3.781821454954221 1.6362763986448152 -0.9479675353383221 -0.009544449155325497 0.28780877365371077
Ni 8.17246297318876 2.8613988997775213 9.209936125153998 1.2139448149392382 0.054310183406790336 0.06676589267163985
Ni 4.593470744048036 8.267765379818718 11.856713488156213 1.4118616514268072 3.56802655769763 -3.789828685443229
Ni 2.8730324041714126 1.2616812503375097 6.306257746550677 -0.4766740414619726 0.0026016992889051965 1.6600643806531217
Ni 7.052553516476808 9.140084317620676 10.287517168458177 0.07527264459107036 -0.18712257408554225 0.45829322496193975
Ni 5.360174081245451 5.667529420744063 11.412678321439369 -0.4588344421773904 -0.8967820136034426 0.07190398522915359
Ni 3.3044415254448865 2.1789830717958476 4.329863844128452 0.7858671943287305 0.0631195541683042 -1.737762603966549
Ni 2.395227759422301 3.7437078786542335 5.759832045169596 -0.42283694103685887 -0.1265311856557305 0.281054999869645
Ni 6.647652165929415 7.924770891938819 5.3911875266891665 0.26358332544744284 0.6615309594417897 0.2700097977990769
Ni 7.346493394162464 8.376557111781592 2.80666695478026 -0.2411363092978363 -0.03382106231450305 -0.3419682904152498
P 2.036047927730901 0.4837081865820119 4.353836249531864 -0.5937265982033065 -1.680053679290855 -0.40949163007820444
Ni 3.307756150903146 6.159220407245884 2.385442689615439 0.4684480540077545 -0.534203503137009 0.7918864039396168
P 2.16968550122073 3.671330862032238 3.2449989344620986 0.07995950854377842 -0.03859328689216579 0.379794617234404
Ni 1.631100412483533 4.782727548068659 10.163842860517116 1.6260312023278125 -0.4136293063956618 0.9948881111492608
P 4.696131803854129 1.0180885944454166 7.669118169825058 -1.2165969078501047 -0.033673480993045235 0.366402255087898
P 6.802128484988303 5.328098847702293 3.621359420896477 0.607663777109689 -0.2960342468872966 -0.8508716242245733
P 5.097875488923179 4.553325920949115 6.886223025758145 -0.7503191220207917 -1.8962274051060828 1.970872186305167
Ni 4.617734910355296 3.8676231663291674 2.827991352993063 0.2031184352931663 0.35660043850612777 -0.9600010694640887
