# total energy = -340858.66511691606 ev
CRYSTAL
PRIMVEC
9.46520977310998 0.00000000000000 0.00000000000000

0.00000000000000 9.46520977310998 0.00000000000000

0.00000000000000 0.00000000000000 13.85329126101425

PRIMCOORD
 96 1
Ni 1.4151056310183856 9.271807002125579 5.864472566767021 0.18582853786446707 3.1964558710349142 -1.7819493257860923
Ni 5.717138060179533 0.2754309746009746 4.5444894529723285 -0.12854255965880443 -0.045382027679225063 -1.8942039469181509
Ni 9.324850036894933 7.515811846264532 9.394332247750551 0.9340190435780301 0.8737014776348953 -1.999080530418583
Ni 6.021330967284725 2.407125856762797 1.0169743044142763 0.2157181263350478 -1.0954364995879844 -1.0721831854869988
Ni 7.693123618272795 8.255252953018898 11.121241760938016 -0.3281642946526219 0.5507565223996838 0.4007974447383162
Ni 9.442105053797638 3.3078257399920887 11.800039269589734 -0.49961008143285573 -0.24907536163925492 -0.6292016511814648
Ni 8.42260732449587 9.279805104263357 0.2556108256346956 0.338395742572643 -1.203572984786611 -0.6328117371302262
Ni 0.6605675149033625 7.937316561530212 11.597227276315925 -0.5890065670198178 0.4817743388030155 1.1499778251689743
Ni 1.1024224308746298 3.764985899935884 1.4578931111530866 0.8269680781340983 -0.03243549482088607 -1.231087645267112
Ni 2.755085893199447 7.43549954254969 6.1953166646288285 2.695200540689152 0.3458624832633334 -0.08315873220736646
Ni 9.371437798696283 1.7632928324861685 2.1626375989649085 0.1847353048002883 -0.18744010532596106 1.0987964171991527
Ni 7.56783263839379 0.26119056671187874 2.438857972049067 -0.8806730238567221 0.7254946067779441 -0.14200845535572318
Ni 3.425591878214841 1.6285177125573977 5.189664643974563 2.167215250547713 -1.105075308229329 -0.5313272100304786
Ni 5.666196301948151 1.6668044855127933 6.335774696419755 0.12825922409043072 0.9707464809060509 2.100923983519646
Ni 7.642257581718457 3.6891790360051635 5.49377236419308 -2.2827158894208943 -0.6284480608448919 0.4014003684296377
Ni 3.845269808021833 7.614524517501075 8.70220772393908 -0.3833779637102881 0.43564720542764973 1.2967451353659216
Ni 8.203279486937792 1.3565633094537077 5.113221717956673 0.7441685290383635 1.4312184586868641 1.219504568415203
Ni 0.387665644315659 7.231940744236035 6.40180021271831 -1.5088027821302468 -0.9916762890801825 -0.10941895145547607
Ni 1.4572826051319188 1.8458578560930696 10.24036675927982 0.6475261605222654 0.3280691638356543 1.2166866393504336
Ni 1.4290478848041204 7.613852487617309 3.9419266357266314 0.2262452511186168 -0.39198910241806684 -0.14942145999034268
Ni 7.791079072738897 3.758123622953767 9.460565052140014 1.070492428048137 -0.4362326456174745 0.4684963907471867
Ni 6.025845872278476 5.886962851370066 4.340872916879927 0.9409057433955345 -0.628482513627253 -0.5650269162757688
Ni 3.789320953895914 4.06719111301867 6.618313096932276 1.3172651096961443 -0.5179842130646691 0.49908789038079854
Ni 3.536827021792544 5.089755570240723 9.097941512943784 2.0089209135477724 -0.4754003169558716 -0.22378547672421462
P 4.1448152971984475 5.4367974813432145 5.0215965956914514 -0.8919897344211218 -0.17814171074317062 0.3110577168793223
P 2.634669496280154 2.074906463941677 1.7999998619542326 0.5143224479423659 -0.4550991435046743 0.8404684266133783
P 8.515347448455563 5.568240847482047 5.19609246783464 -0.7660123643863324 2.1748007762044543 1.4433926321555528
P 5.391364475116788 6.457686596460667 9.965351307381624 -0.05119760591973763 -0.23031402187135172 0.20645007076956057
P 8.526544791448453 3.9740818458833855 1.513430228660079 -0.9680308817471007 -0.9406712587872251 -0.49979571508110054
P 0.208675690639907 8.928967644099032 2.6362539723723004 -0.24780317979505068 1.4188475958263371 0.541121827523397
P 3.661881371430785 8.666080911821368 4.190496291917194 -0.07514048988858028 0.6430300724241248 0.549755077718363
P 5.903962367866455 3.39320193085925 12.687993301530586 -1.0748684456286457 1.1024849217943335 -0.05259602892916103
Ni 2.2216929348915593 3.345251178871109 3.5221303907992576 1.0200563828847724 2.0565745108699938 0.9411381711213146
Ni 3.962733059536409 4.728856592239171 2.705963348259049 1.2262421442493527 0.416900778058082 0.1260925554564151
Ni 3.1111670794990722 4.201180620548109 0.09019871517390408 -0.17433673517478362 -1.3842698578514676 0.0076472321326126365
Ni 1.5976895247908405 8.626582592033266 0.9764603676328227 0.6806095733397955 1.3552950678856723 -0.4802337337887729
Ni 5.437781863144787 3.5071346591816472 4.906545079590728 -0.7327659436283768 1.184182238964825 0.16050754260117517
Ni 6.03172376745902 0.7303431472575245 12.021234593007911 -0.6198297230482616 -0.27788894343683757 1.333062481739717
Ni 7.533284623242445 5.774336321976678 0.850723576380222 -0.6781816806245933 -0.8147291128657452 -0.06768146250737377
Ni 6.225022278533207 1.9047882512525982 9.942146399451477 -0.1730612108964697 -0.8072888545376162 -0.7332865920185371
Ni 8.76067621686864 2.1420053350123323 0.10298715990568036 -1.2042959789955647 1.6435746105282147 -1.3722229539892625
Ni 6.945608687703607 7.877392319359479 3.6428752304927294 -0.5501654257829041 -1.3032356281862716 -1.4702832858988097
Ni 1.4935722188552778 1.3455268750245382 3.80465364697637 -0.8311759455678588 -2.761853561932011 0.3105697214993103
Ni 2.232965999561492 4.354782042431955 10.826388176175245 -1.5266297830093383 -0.8457049924219694 0.8313973175500454
Ni 4.237801516608536 5.107720538119422 12.100184853056922 -0.09946518267687386 -0.1372431727565959 -1.260031839105288
Ni 5.829991754604052 9.2180730070532 8.522503146936225 -0.5871921395188984 2.4563471138882216 1.4960400831479397
Ni 7.000431181883496 7.456275677688651 8.464845822472 1.1071841270422158 -1.7782070851348406 0.6373088536696314
Ni 3.964389471221747 8.455233902092221 0.5365600174502551 0.04514342930585774 -1.2680426252249066 -1.5633669905293721
Ni 4.770844262160095 2.3202163019354933 3.2099318093885834 -0.36499226211424884 0.1347474029179357 -1.404985236021948
Ni 6.258491259786675 7.7000048256741715 0.1725271085400427 1.3702249497226273 0.07997364961116549 -1.1733558377732825
Ni 1.906094450181608 6.213758679072905 8.164257267194104 -1.3680189432102439 0.9533912774570548 -0.3964797911995688
Ni 3.51616446916915 0.19607938966363003 7.753686762093585 -1.3263187352579804 1.763374905218015 0.010521725466930266
Ni 2.5545086359194014 6.822229680169965 10.645714361706226 0.28359242157951803 -0.8835585729346331 0.7355702458463913
Ni 2.02292353265094 6.278850925701893 0.7904074745307875 0.853272520356582 0.35984414225440603 -0.4376554941069301
Ni 8.842342045560644 0.2704437556466611 7.58101956845101 0.54918943502288 -0.6940829252358821 0.16293877775048712
Ni 3.0207364666892205 0.21071355027335492 12.151372706738696 -0.07677956815390002 -0.3651470425245582 -1.2328894743625411
P 0.17634253454209955 5.266168147334088 9.088950510315765 -0.276702122217588 -0.45986982542044025 -0.8101569201140304
P 7.08679175455223 9.404045445873376 6.367845666210797 -0.5301735560420094 -0.009959939426189298 0.4286594612559069
P 5.861728602495137 3.3702961235534263 7.8271235375328265 0.7325828810832932 0.6502836686627446 0.2487028087911846
P 1.7934679207882207 5.441359712385117 2.6261687915109966 -0.30241623915424043 0.11350494859939161 2.7571049915034322
P 1.7864542004520156 2.766718635835339 12.816815751122732 0.5844932525304967 0.43418219084634896 -0.5602757747440286
P 2.4930320993692665 7.726232921560304 12.818436195011474 -0.10990977504896557 -1.1283065108431278 0.012067215577179217
P 6.312973006419866 0.2577755190771923 0.24345087082238498 -0.9050450249431832 2.3193481959319473 1.7142120703401185
P 9.166090075762462 1.902838418068714 9.095849701615442 -0.0622903733987895 -1.1782309064773966 2.117469289472837
Ni 6.677402507613597 4.106746224064553 2.50097624981215 -0.7577074440650629 0.5271085439634405 1.1849548554647915
Ni 5.585013198947304 4.104786925671038 10.1799247701423 -0.44091873823923416 1.2951430809861244 0.2996713294192516
Ni 1.80674760989982 3.8204520283706476 7.642971258524597 -1.2822801089805271 -0.38693328516171427 0.9438352583375036
Ni 9.220978826409764 7.27658813806313 1.3715524154245766 -0.24445714614095315 -0.5328081654513792 -0.5799729960626399
Ni 4.025165582259224 2.475407879037265 11.607256612440409 0.07317822395588687 0.5499147432246787 0.6874695336844225
Ni 4.962581013645249 5.788467879955023 0.3442364229680097 -1.2983232784863188 -1.1223767756222542 -0.030366270996683188
Ni 4.7463577648459765 7.711732220406369 12.054178255126887 -0.4378239013639944 -0.1924650693443782 -0.862304034431231
Ni 7.326744283895179 7.292357177307552 5.945112366735077 -0.39387166415276037 -0.8167420295307161 1.058349107817384
Ni 6.544397381885731 5.821160714018791 12.259733266151615 0.02547577567360128 -0.48239603154741434 -0.47717926323316534
Ni 2.134575145452385 9.029885709179483 9.95112415078601 0.04219231709733379 0.23695081046157904 -1.1274657601093871
Ni 4.524019990625398 0.22427908871579566 2.302859947036035 0.08287025443267018 -0.10534426716547018 0.8193383295029824
Ni 8.78421619321971 8.755186395282948 4.676108872010289 0.9762743527028154 -1.0372076978530782 -0.22162292185525703
Ni 8.865077479093118 5.611837603040156 3.097858994758581 0.6220030765504965 -0.02706985963359854 -0.47002002648056473
Ni 0.3386349119086764 3.957120190225519 5.122684088024289 1.993815682475218 -2.243917171386142 -0.16372502109720835
Ni 1.9836902387324937 5.490209659288158 5.411123100220467 0.5467283750768971 -0.7988651492502951 -0.50643301789196
Ni 3.346983312233491 7.074146234485874 2.492872137326511 1.6219498331695874 1.0579642136741394 0.8561781240391514
Ni 8.892252095942302 2.88839390563549 7.432429028545553 0.02060147830043549 1.00455982991107 -2.92184148458429
Ni 0.8628504029588259 0.8117553083314301 12.93998557752354 0.13881463100877384 -0.25424147922122664 -0.6180039826934325
Ni 1.1480542065032977 5.762419623051872 12.75726065212759 -1.0070926236352524 -0.5206494186016581 -2.191701408614535
Ni 8.591722224964114 5.895992661357568 10.802367367174948 -0.3352461412000678 -0.6975012068888116 1.6467602073450478
Ni 5.0419657268163 8.625768584005044 6.522129529709003 -0.009616440043841502 -1.3421608444965594 -1.7498599014507155
Ni 3.7717724552409564 1.332625794298159 0.0696885524255613 0.4077808180346848 1.5324422759260576 1.5519911445922627
Ni 5.061558710751446 6.366224275801091 7.42526670441815 1.0191431270418834 -1.717077564813372 -1.498604758551322
Ni 7.582834995658143 5.187711024706826 7.6582518929520855 0.06314629364118157 0.03871824250580429 -1.1490478571555371
P 7.886639829168483 1.3126163411392697 11.250451337604051 1.9643253863255847 0.16313649558359 -0.3147673045204256
P 3.284058598609889 2.8508075581927517 9.55616650897101 -0.09687865289662025 0.9153325229121203 -1.071512127561903
P 8.320487177792343 6.922750206445935 12.981046603421637 1.0155980900031025 0.567886497211751 -0.5371379031749847
P 5.745334919668808 6.729281321598399 1.9788042975212266 0.020515603454848538 0.005398802418068121 3.4024994503946755
P 1.6114424743839655 8.575091851643315 7.74482070023269 -0.4913516980788054 -1.0378059935587096 3.1745960948473453
P 4.513551468774057 0.49212369779792 10.57682183341059 -0.706287437721874 -1.0734702797295383 -1.9064208006993164
P 1.7441541786132857 2.1812480941404084 6.122614389456913 -2.1532523606097174 1.1052023207254966 0.26411862912562256
P 7.235158915510407 2.200443539271074 3.503164950262613 -1.4024002489035912 0.6793353346130623 -0.7074860860156654
