# total energy = -340894.51841901074 ev
CRYSTAL
PRIMVEC
9.07033298364269 0.00000000000000 0.00000000000000
0.00000000000000 9.07033298364269 0.00000000000000
0.00000000000000 0.00000000000000 13.27534916487268
PRIMCOORD
 96 1
Ni 6.166039472256941 1.823000844849995 11.32107152868882 0.07735061016602163 0.9453905186397652 0.9744979775286831
Ni 4.552980551206721 0.3468849019098874 6.026278341734983 -0.05594283391420688 -0.3917885563714865 -0.343068465457964
Ni 2.7769640304422203 1.8073817317080605 4.7017566855334225 0.03238381564734423 -0.8984020657053688 0.5173206113387414
Ni 3.245619057695768 4.411818961295034 4.873765570383789 0.27081481019887554 0.08526009482108542 0.02175101852384641
Ni 5.275940500156214 4.78302233256894 2.490096613868492 -0.6275659153502546 -0.739316600262701 -0.1277725142619993
Ni 7.335840297991716 6.0820663308701635 2.5962730230021562 -0.2094798587348199 0.3166161848037063 -0.547109926786032
Ni 5.0215630157975895 4.566123463484691 11.59542007188363 0.7801796570256498 -0.8018270600920965 -0.12740098985519352
Ni 5.899099576921789 7.858155414297345 12.39848557229904 -1.0400575085970476 1.256574990904939 -0.42034271386009536
Ni 1.8300303527971489 6.692608574662202 0.4835176746370405 1.2840022338779566 -0.5089490994455944 -0.7470461076964747
Ni 2.7105329127584064 1.560233302618961 0.38014762648253664 0.5135176926528834 -1.023633044492437 0.3149282555783221
Ni 0.5588549521315779 9.191693888370216 4.721045655340413 0.2796596621840151 -0.264155395900829 -0.05865997573505382
Ni 8.738939154576489 2.491293897802717 1.4449022065548933 -0.6875672356045514 0.3446175551126388 0.20803875541291914
Ni 6.8458337072444895 0.7312275573286288 4.777359723780027 -0.6154830160437916 -0.4712137896783498 0.018941316989193185
Ni 0.8577940746754574 7.536911436278825 2.5280777255819276 0.3758392321310817 -0.9445073447038638 0.8622130173793215
Ni 7.655333701773074 3.9565970969701763 3.9273126203789746 0.31664163872500306 -0.07688421205256436 -0.35884552578656265
Ni 7.79505310876399 4.039581572077934 12.641822647530857 -0.13539326403205068 -0.2664413637215282 -0.5765565141819232
Ni 7.7875882248407535 8.740843924471847 7.192876432945706 -0.043671729856337695 -0.09495521062166228 -0.6045077479792105
Ni 6.97081382337847 0.7552086103111842 0.2932229987912391 -1.7132517633093785 -0.8466228762505484 1.0392059592300296
Ni 1.6402517788896611 6.328461922333956 9.39341083435518 0.5261001573035843 0.5279688350812068 -0.13706679507973168
Ni 0.2596047171714564 5.007875883549518 1.4244186739135283 -0.7578622244753721 -1.153935524265142 0.04128677456392889
Ni 6.548453774914953 1.8929875330051438 6.920624950702358 -1.3513450820989887 0.47813031429252495 0.9389306219470345
Ni 3.450581368769109 3.957268301599969 0.15232535556505136 -0.16352447505062806 0.8286467513881018 0.7876386844068565
Ni 5.901276456802198 5.653846847395213 4.681273152892058 -0.015527406211637772 0.6520222486204061 0.8119379232738533
Ni 5.359242436913197 2.9171732354062283 9.018436018688465 0.32940947991363273 -0.6011190340126357 0.1569059412928459
P 0.5505111529566269 5.5265991480524725 12.427916988282169 -1.0088013787962433 -0.8166656677668257 -0.34134402656768953
P 3.9190368487002862 6.1311186908420465 12.73336951683489 0.43866028122236067 -0.03903603085653923 0.6894310282861674
P 2.5995573905217237 8.552307986162758 1.47854225697348 -0.2902253535150034 1.0586861794418283 0.181193610195617
P 6.192851376117311 7.738544935201707 5.826936008886231 -0.3362187895259822 0.6547905553941625 -0.04401111547362743
P 4.67631893709756 0.8880871722779154 12.721978992860649 1.4065883188430097 1.062932356312692 -0.41803386322126074
P 3.658545960010847 6.243091949690583 8.477425132343257 0.7927901467008088 -1.1555686889931904 -1.6462292745422424
P 4.683421007707395 1.354617927581498 3.9005760002811347 1.220050927836976 -0.949822329158874 -0.927068580402126
P 0.11832521293291359 5.675670068196312 3.6145983833585236 0.48862170074215205 -0.2995114068026197 0.23019806511877772
Ni 1.4064367390680668 1.1269162920907188 2.5410746055012527 0.4033230393736473 -0.05025632505239087 0.2584002385846066
Ni 1.570673255712089 6.662068764006631 4.906143937505021 1.2868471595259192 0.4507601498096882 -0.5374279236115777
Ni 5.734518387630035 5.359886430544485 9.15653909236818 0.5938610668986417 1.1627171271125136 0.35710308917415917
Ni 8.618240235540647 2.3243725626395233 10.189003287547802 0.2022638006023549 -0.18228735748042801 0.8220331027263262
Ni 2.2283993709119922 5.160819835813919 7.143385975897892 0.07330909310679631 -0.1305027687089688 -0.010033730086918205
Ni 0.6034945951792144 0.09520402750311972 9.188652605770628 0.7323815637057645 0.6869563414934298 0.13261313018375226
Ni 1.3916974482111306 1.0008568063493686 11.491712607347663 0.30662359236736875 0.18963351343285406 -0.6012229065803517
Ni 4.0278808427207355 6.8831581268606685 1.5442287003315376 1.0669939279765754 0.5037881240699452 0.29886914523293046
Ni 5.403560083145191 7.82416887716446 8.07300529519416 0.37768502709056895 0.043851964187943834 0.10772819401661449
Ni 5.493610347531441 3.086679615427408 4.927862849478519 -0.8414739850597572 0.13114528738897416 -0.37028513508207195
Ni 0.7730653745635224 7.428620732561313 7.169192886880141 0.035574554670500025 0.3211207575422792 -0.23890716285700148
Ni 5.05433412833058 4.7328452513255135 6.897340499281533 -0.23520014631905942 -0.20095150954883456 0.2218594633460953
Ni 8.25060150507091 7.405718142152844 9.343084092619975 -0.29691510683035316 -1.2668483478064891 -0.5742790310016561
Ni 4.617225718677291 0.05377437524580282 10.366175912881154 -0.899308122459406 0.3055840953592608 -0.25114201436029654
Ni 8.068115478762792 7.3730468032810395 4.724802587200685 0.30054576160440494 -0.22571766074992095 -0.07468797573219395
Ni 7.194733130077039 6.226883264914371 7.012211729470864 0.12146431265578436 -0.9776318951719744 0.45251338505536903
Ni 2.4328718840122407 5.091332015964697 2.3653613967210574 0.5394966332151483 0.3398985523704146 1.0133558309361452
Ni 2.589280703419626 4.93310005965747 11.409963511572037 -2.1593039661204356 0.737545110184575 1.0356478095651263
Ni 1.0509522545972803 3.284086339249162 3.8155878886501178 -0.33655457559884616 1.0042132452049284 -0.27265134918698203
Ni 3.9217942298821376 2.818261255840145 2.339209813091077 -0.8265109359920217 -0.40902343219253423 0.7614957074629015
Ni 1.0565758609550033 3.2870432677533845 8.313249386929229 -0.09330044862705866 0.20836708528661538 -0.19309010452288683
Ni 3.632142221128053 2.773988961272328 7.256796882500782 -0.27367104870074804 0.3455760623711661 -1.913757957790678
Ni 3.8488052615585917 6.805951453768831 6.171868975170019 0.5207160101735355 0.23063978064188667 -0.5785226367693586
Ni 0.8014228631389835 7.431858841383422 11.467392323917078 -0.495855756596746 0.4472089421233201 0.08072364040331258
P -0.043919458620534674 5.643171065648373 8.104135584517293 0.7443248521105698 -0.8344577016429242 0.5477367617367536
P 8.46622145722542 1.5961699613113793 8.015124780273936 0.20001691354970716 0.29636437653320574 0.5355322492507616
P 1.7954995956941615 3.122607203786991 10.501491673280661 -0.9901112585859076 -0.5756759113491827 -0.5184341561178942
P 3.964061980893412 6.128588067981071 3.6846394935106823 -0.40516472056807634 0.6999087878890398 0.6828675161360368
P 6.744590652139802 3.807861779141233 10.48338366080879 1.2935770220505851 0.528912944162031 0.31287960057940956
P 6.322856456641903 7.787751490831785 10.128958591213138 0.08026187027554564 -0.835307194127413 0.6613988047392996
P 2.414495389688455 8.53711517866407 5.911685570763687 -0.6133207182851502 0.14239566349181285 -0.6144797715902579
P 6.97180248965749 4.048316302598074 1.3717681129059867 0.5440968509913211 0.13816388479865238 0.8050190846668329
Ni 5.473655615294359 2.746152109801598 0.3797095294066043 0.0023813557479829954 0.28575009135246915 -0.2563194447961779
Ni 1.3133751241805829 1.0925125196474217 6.9269705555537495 0.8532743201287951 0.0986102908757463 0.5679147793465251
Ni 6.7880284760867955 0.8726784908577538 9.323981064636103 -0.39781419374027616 -0.9336056101896953 -1.808051422189783
Ni 2.9079124255816553 1.7639711187595717 9.163322794295503 -0.9384778506803322 -1.6755169677627662 0.7734767910841776
Ni 6.571356365323423 2.060516580468285 2.5865686739019496 -0.6109684160028896 0.3374400635275931 0.12242744790000205
Ni 4.134157932548868 6.619991489984893 10.576935073669368 0.25751217955269845 1.3755193653523472 -0.0475720933520084
Ni 8.418810827496678 6.958006513415397 0.46395750187828233 -1.1170309379293084 0.7876140018165081 -0.6655953593191505
Ni 7.656240735056578 3.8144377704466352 8.389038366998951 -0.16817842888287166 0.2930792780240307 -1.0696089970019194
Ni 3.284612418553594 8.434457151637117 12.42263351940576 -1.086428382552103 -1.2798432174042604 0.245840399641725
Ni -0.015737027468789917 4.747829441168995 10.361542786869018 0.16150153108332832 -0.08221076647180035 0.07135274071137389
Ni 8.571927116084945 2.1793923626042853 5.811854766481415 0.6872013676247003 1.7224334298086463 -0.3710760064144835
Ni 3.6522420786904957 2.422540774913133 11.393355732151086 0.5668061196633786 0.05707823307023073 0.6242530489269378
Ni 1.0847845960719698 3.1714781571021726 12.724355420063429 -0.5277904005218136 0.7060005026090744 -0.84247928639582
Ni 3.0126294181621627 8.363100843223878 8.100591805478643 -0.22464808183482599 0.5782498427239461 0.32852836286026
Ni 5.794518639333808 7.90053200930264 3.542181753036868 -0.8230222061124729 0.13794868346405273 0.0630197953656463
Ni 3.104702366770627 8.429368694916661 3.6693060958530515 0.6030810428350131 -0.2030402737570632 0.35161995457240086
Ni 3.537112344015366 4.218911122559459 9.449538960971676 -0.8313559227891488 0.4566765152941232 -1.1162452088032195
Ni 7.317971742306693 6.160080263584321 11.37929762329006 -0.07827209353902648 0.02065907101124829 -0.35793535526746745
Ni 0.7147222726687112 -0.15212943637581455 0.373802928664428 0.001622880315403657 -0.008656904344049607 0.03348784734480039
Ni 4.832183536534844 0.47534439771938836 1.774568895644029 -0.4167511398540952 -0.6265999518925596 -0.27262383838315635
Ni 6.079172894695787 5.8511628678886165 0.23542593093309713 -0.19184517637219217 -0.8034931349406098 1.0074098977653554
Ni 7.847797094199732 9.089289830662644 11.23098498297123 1.19475744337751 -0.574532798883675 0.8118777594598792
Ni 9.260356307931449 4.975322459004569 5.799415712031444 -1.017764501526802 -0.9665404132445031 0.43118351322934123
Ni 8.165177110430527 8.974604542296431 2.4056264182423552 -1.038910539476798 0.38749918496751323 0.2876380524038014
P 8.468352985441653 1.7577488704347357 3.6529640771841643 0.27301104651924596 -0.4769072405187013 -0.4149266850508467
P 1.7575946747765403 3.202997563703928 1.567752608539207 1.219996420449957 -0.24907484741862268 0.32787144600255147
P 4.70294943430123 0.9998953510688546 8.19022664862105 0.8222477898402936 -0.10885922229726414 -0.36854321269030077
P 8.678195135580243 1.4423008350978044 12.772903469529684 1.3542105765722419 1.0926496808714667 -1.9374504163116117
P 6.441441988127181 7.8297924835221835 1.410173716196102 0.22814838167860066 -0.2275511144142339 -0.3131048292163382
P 1.684333596467943 3.1712060471171215 6.016215714487792 0.23205003072585198 0.5787123841826614 0.675405917651669
P 7.03019729244946 4.1358994364531965 6.074800087236015 0.05624211032218056 -0.3253098559229623 0.3302944536217473
P 2.4021053150357936 8.368624675920417 10.292311657439027 -0.08215060265782625 0.5324500107810121 0.07971962461883043
