# total energy = -340859.8692912656 ev
CRYSTAL
PRIMVEC
9.37838154564036 0.00000000000000 0.00000000000000

0.00000000000000 9.37838154564036 0.00000000000000

0.00000000000000 0.00000000000000 13.72620937337934

PRIMCOORD
 96 1
Ni 4.517566467289756 3.5073178116474057 3.204342625800774 2.704964562054451 1.1851191489567976 -3.5535862139025833
Ni 9.063380620274916 5.9428366485226665 10.58253684291823 0.2123720926809504 0.11212632308431013 -0.5771710078374706
Ni 3.3550691630487304 7.210034206118108 11.504334229348213 -0.08806439703909995 -0.2154129363898032 1.1389781316243608
Ni 4.860196264499562 8.292111887238914 9.989454548762371 -1.0312008295373658 0.1351767771458704 -1.2202262770725758
Ni 2.5551776090491236 7.489144224040073 1.6926891085214455 -1.9185864895275733 0.8447416000674354 1.7214235004868932
Ni 6.039715331535129 3.935600368968812 5.672754260829917 1.7661396124473454 -1.0066737909302792 2.598516777412157
Ni 0.5102411728794128 7.4380039086028065 13.723162743415356 1.6732317712730151 -0.45321863865250983 -0.27040780456844393
Ni 9.016188603535447 8.70426362802775 5.08884121046702 -0.1785191486872474 0.5730947808855678 -0.413393793346088
Ni 0.301422125836287 7.1926560648187765 2.2675285745847735 -0.8392674643267417 0.23805612771061585 -1.6273946583342425
Ni 1.9946692480691788 4.351250246133607 4.130065802812463 -0.5456649668093894 -0.42493213300299076 -1.1003491063982533
Ni 1.2148568092999383 4.4635751238141745 11.861709656112764 0.22573463003078542 1.0703075657308405 0.37124827032628965
Ni 5.9405201882415355 8.566288876384059 0.36152348499266324 1.5322214181645033 0.5277479773196524 1.6097964856365052
Ni 6.997398157721055 3.4212148892139678 1.5396554893740633 -1.2931689879788888 1.180490906156167 -0.8915171656600774
Ni 8.543011732992294 7.936924436926137 7.960625483170967 0.3912334551989649 -0.8135530902797731 -0.5039513891206869
Ni 7.389714621203856 6.0571216079795756 1.333324526997269 0.12422876277479897 0.12830987482270806 1.285240734270748
Ni 8.838008729522498 1.5196635930935534 10.299873356168249 -1.1715648073111309 0.6538600731600933 0.6615638695622542
Ni 1.5505466040480587 7.406201816241214 9.202421693918465 1.0677302919219676 -1.3483016672869748 -0.09685319897532352
Ni 3.182750777601394 4.931593884419589 1.995584578123585 1.063849983030955 3.575884106068835 -0.6701022460505685
Ni 8.649146878747572 2.7613988443599697 2.940881375591742 2.0152941640639677 1.2895563309269662 1.1129423696822318
Ni 4.421775676555071 9.336385311706938 12.314963092561854 -0.19890439721181874 0.5549507629866893 0.36908545834701595
Ni 2.6729513265002858 9.498987693707914 10.602329917506594 0.5009449981941954 0.2737731214962511 -0.9285611057872524
Ni 7.049654500581214 8.885632151820396 11.782510160452361 0.8943469217993887 -0.5037493004122099 1.1696015129371726
Ni 2.4554854115251668 1.2732091002683354 6.412541642158636 -0.019771783310288532 -0.6363176934009558 1.8789385361186481
Ni 6.286638743445596 3.137650139982137 9.547937219178895 -0.11637969904402536 -2.3509539957626866 -0.6524685921292053
P 3.04774897295818 9.029974824641771 8.318714604783265 -0.08574089111224588 -0.04160584846624447 -0.17379397529743618
P 7.460465132786239 1.4326509676347319 12.775120893622153 1.025594539094182 -0.7901773916683101 -0.8517506843954169
P 5.4030451327290265 5.530534853626549 2.077791720796774 -0.9215931591098515 -0.04148809194145758 -0.1737474383302169
P 5.879813923465188 4.672703657453566 10.895810429715102 -0.9766173378645311 3.189743234901429 -1.4872227419666257
P 0.16887370584709663 3.7537629260909187 10.016015063589052 0.05881424192473096 -0.48739168498979296 0.013029322380132399
P 2.427791050350356 5.597655931489104 13.52687790352094 1.452140553551512 0.28831888052090987 -0.1379815935845172
P 6.038158520172102 7.110998495313501 8.295050134227084 -0.7543405844753589 2.1450268873761313 -1.8802171457207555
P 7.779255083701981 4.566193376430086 13.47377094144014 -0.6455674941339978 0.6920787503216597 0.3213701545489239
Ni 4.223272849387425 1.8461344386256764 8.634979895344028 -1.345068762171974 0.14646803378897355 0.07336128650097043
Ni 3.418251320595193 2.274979698849381 13.220206697444375 3.587247353600454 -0.6533512518444748 0.08876605109181487
Ni 3.0089974997531956 8.981394807409965 3.767336257932539 -0.5877253863145492 1.0749381225243166 -0.6889034379174717
Ni 2.181777341465272 2.3905776317449874 11.113164741947934 -0.6146435508616317 -0.3892277376228458 -0.5150760382789387
Ni 4.682822931313241 8.402692385922355 5.250411970480446 0.5832634938884534 -1.4900779520272338 0.16228803154036567
Ni 2.4145393970012163 3.7612656314549042 9.125279815204138 -0.40646441321610643 0.6157506678828816 -0.5393639642920259
Ni 4.802190973654249 4.3825646626465415 0.16895623560610046 0.4525280403433884 -0.32200444569881315 0.4538246476676248
Ni 6.5718822230026195 4.989102121034537 3.83068347499701 0.3690219520989322 0.24037989074778598 -1.2647847804092411
Ni 0.4327710508054103 5.449421230260161 7.9089187134787196 -0.21891066513041654 -0.7039767873108264 0.9187508045650499
Ni 6.010586077959455 0.8202304504032008 10.321217615090616 0.11453364697422211 1.6305709991796948 -0.6276415057831966
Ni 4.11735340641136 6.799561195654463 0.4895684060871213 2.089715516398337 -0.7801086945783985 -0.8987633056995296
Ni 0.6614863346356551 4.882357380468434 0.6133546040493472 -1.8064550242369406 -0.21742816704761908 0.6075946144346503
Ni 3.784992937168508 0.10410753963066247 1.2429656949461099 -0.11021162256010052 -0.14892189464610484 -0.5101888853899665
Ni 8.32291987113978 1.4189585303454582 1.1280298757988756 -0.24641709808080142 -1.5008241348001443 -0.5325366569575474
Ni 0.9104617364631721 1.8254738637296013 4.835880934253056 -0.34595041499144935 1.4120274875807102 -0.12763598868413503
Ni 4.270305433637909 6.012367970483401 9.529475874792638 0.4207031825233077 -1.390119374653709 -0.03159243009430043
Ni 5.217897121109274 7.804773660321237 2.727754837831518 -0.7091287638254109 -0.8745463421336939 -0.20133563236113067
Ni 0.3795637400403663 8.284749857600502 11.500532233405014 -0.5426781162669234 -1.0663357255672863 -1.7048056894245545
Ni 5.299470285179208 9.352609912056556 7.6498221621151865 -0.15618346130452457 -2.1028895918864494 0.04567307655708263
Ni 6.752434827586929 0.3388446823536761 5.513598434105522 0.18045673202959245 0.22078217112151655 0.49239890839639716
Ni 2.8296640847905326 6.903314232456677 4.014380650967 1.7981117944785678 -2.962249456087692 0.2892845868682889
Ni 8.08416502969435 2.648107993363789 5.196385926992558 -0.4299290719969499 -0.03478394044840461 1.7295433013805506
Ni 0.5838905422468058 6.561275273294285 4.236264721563336 0.569284148890226 1.2439094796221288 0.3493576409007854
Ni 6.2018394160691495 3.0732112792872064 12.082111942399711 -0.19935511159599215 0.1513929818944167 0.04644363617452002
P 8.18092179374465 8.440665453445826 1.4122623658081013 -0.5802285637168716 0.1689937256953154 -0.6391338226935122
P 2.1696792290658453 8.771928652029196 12.547718583230607 -0.039535596200777075 0.5598857383944615 2.022106301889795
P 1.5248123246495886 2.646054127770398 13.246643417632548 -3.9263907729723986 0.6333411272711351 1.0478867748334793
P 0.9725381828066174 0.37835580447676465 3.409083014640403 0.40588334390165587 -1.0624487318080542 -1.6891337872152523
P 4.30594328411684 2.1200394547013763 10.77890421257165 0.09011022382453514 -0.16909991225587653 1.1366895927005005
P 9.649041800987623 6.845515266008874 6.25846514696566 -1.3712994137337287 0.4723854413889477 1.6801313266063258
P 4.749137468349167 1.8144824003713629 1.9993734443323978 0.5885805352259927 -0.1357429340619856 0.16505248165938027
P 8.266668337673298 8.635032414281575 9.921853297756522 0.476164963036038 1.3063363785987825 0.49980959903817146
Ni 6.5408960498493585 2.0012059801175512 3.4468159955922273 -1.309782171055538 0.8543495554708448 0.4984021771676836
Ni 0.41936652983447975 2.2870965680122177 8.206049291846806 0.7092364930478688 2.1323438925918246 -0.6505631475763763
Ni 8.006896542827006 6.730648846886257 12.91464776743802 -1.6508868279189115 -0.3308693522886108 -1.7891975227080734
Ni 4.131083357227453 4.495930540696363 7.430683143843899 0.43696335313591195 -0.9620003592823045 0.6680042258709592
Ni 7.774969163262805 0.9022715957202115 8.04122517121992 -1.3656355305797319 0.1707767857376672 0.4300481140733174
Ni 3.9482518058888325 3.7875907489007883 5.114605500686945 -3.129205325417372 -2.014734949126388 3.203952436522276
Ni 8.732895827373062 3.1846452107058005 12.228090204990437 0.12809133105399875 -0.2467716532067427 -0.37362062721320816
Ni 5.737318791839694 1.7210080699178087 0.08869135578401333 -1.569115205867059 -1.113670763207824 2.2194577527921973
Ni 6.83487080277372 7.084617107577386 10.232134242951334 0.5088750516745494 -1.8498537029375497 1.594452656190583
Ni 1.0873952235475302 9.410174418961734 0.9002693112261978 0.77622478614296 1.0749419791790584 1.4387726168850383
Ni 7.039619632156883 9.265409718963635 3.1328155842132186 0.4406554572755185 -0.22085313356876804 -0.6644525039639588
Ni 7.466917459399267 7.160234999264655 3.8355555442927476 0.4000942480237045 -0.0887259418824988 -0.4018081453910176
Ni 6.551099729144379 5.136708470689247 8.620759455164762 0.6867678796317075 0.05372371477570103 -0.8476752287744628
Ni 1.986857056108929 3.254532911171325 1.8560989691872196 -1.8933626819637779 -2.9050259556888487 -0.57578235502006
Ni 0.8494872499700622 0.13803195977209332 9.074026959186412 -0.06089734970600481 0.4501765093920763 -1.054058707972146
Ni 7.229203618323091 7.117188227238788 6.166828979326283 -0.8205883998599998 -0.31622614845413927 0.3064467004698722
Ni 3.1475255759174825 1.7849311196189648 3.4997438305824624 -2.469959305355017 0.6161964971710485 -0.7557912008789565
Ni 2.2027661597210213 5.784857808702247 6.15381647471062 0.4879606701193854 -1.4350519735003413 0.006622904633156335
Ni 0.10723335425293294 0.8879489311803632 12.610200175663705 1.1739903860334877 0.36360412351747057 0.4846920266704427
Ni 4.424176542271546 1.3769246235437298 5.278606199400134 1.4241073015633798 -0.4154020820253684 -0.14164258737587218
Ni 9.417208205240472 4.799968297190169 5.354937785935152 -2.168145475671466 -2.7018404146031725 1.7725671132402443
Ni 3.5762301604156126 4.495058351197799 11.683434122606423 1.4354299256650505 0.10317091366323522 -0.040230051164640394
Ni 4.129648464826591 6.74981825909124 7.156599000677634 0.5680749590734733 2.0460391585563085 -0.1680249340241429
Ni 1.9328844693967586 8.212067399386894 6.005339811233688 0.8266993978537439 0.6979645196784754 0.3288834322068336
P 0.16372684996740255 4.885658570828588 2.903381916344372 0.18130751006566193 -0.9444847189960444 -0.4114618664306979
P 8.053582126954407 4.198467029777748 7.254562762453363 -0.28754137892493703 -0.6712813539603343 -1.050801634487429
P 4.530461742134105 5.686347287273118 5.16581802966334 1.0298941949108003 3.161356713338936 0.533521646578636
P 2.2686961831070436 5.736999926861725 10.37881213281725 -1.1213912717805332 -0.712534189962534 -1.1004195546248725
P 5.595498903696959 1.9420283915591159 6.96282569140381 1.8658145971421802 1.3870181100205663 -0.27888833123562934
P 2.3725336253446025 3.4191891587656915 6.689125124049279 -0.5775849554464375 0.6480272685284001 0.9553939097093805
P 5.395467400311401 7.262918900552501 12.579783270279938 1.1529119680966338 -0.09275768874971121 -2.431698462101606
P -0.0280516775177712 0.8678688781118267 6.628002459125231 0.17807794738477073 -0.15521826917777784 -0.5842052889764326
