# total energy = -340871.27648229693 ev
CRYSTAL
PRIMVEC
9.23952589408176 0.00000000000000 0.00000000000000

0.00000000000000 9.23952589408176 0.00000000000000

0.00000000000000 0.00000000000000 13.52298009158231

PRIMCOORD
 96 1
Ni 7.411430027306115 2.313383181581958 1.7258297369442974 0.09076842623382432 0.03229948346365405 1.1128588088294897
Ni 8.325477816407997 0.9255325194295299 8.30294723321896 1.581728009535063 -0.5324070733582186 1.2019297927562331
Ni 1.7389618746874085 0.6771093944741858 12.319556576303896 0.38447582476015724 -0.8805598953176255 2.431819561060502
Ni 4.472290734565395 6.3580132339707225 0.8424313021810136 -1.6865220606240179 0.39481397346137165 1.1771248178974116
Ni 5.239411587488459 5.619765898564878 10.097027497906039 -1.788560660455023 -0.31720368187606013 0.4189178084881107
Ni 7.77094920814211 4.821711113914568 1.9960322716569492 0.6154953573389657 0.18592649689491206 0.9064601601231549
Ni 3.4885307247699426 1.0228432031067598 10.525164939603913 1.812652154186588 0.6073614153779217 1.1431402334218506
Ni 2.2656702713551047 5.185656027515603 7.909455240684066 1.666047337709434 -1.1103231868918297 -0.08341301431001764
Ni 1.0548581593298518 6.650906195665386 9.14189893005694 -0.861574355354058 0.43911870891601795 0.6073202777273411
Ni 1.1751198246111683 0.732680521228525 7.159146628552788 1.3851412047128273 -1.0162303242704627 -0.5610044253799371
Ni 6.403601053308308 8.66024430814683 7.335554119081108 0.08118669608266017 -2.0507195947511137 -0.49449410036252905
Ni 1.0486214795461324 1.8979371522558113 4.467560097455374 1.9863445709091532 -2.5470512625430133 0.6876253425359964
Ni 3.451868287167279 1.1506443212821726 5.105857940671055 0.173941556618894 -0.1428417498902959 0.3860367414893739
Ni 4.087492211672726 4.862623733295766 12.719146655738426 -0.19274634803022286 -0.40569796736372715 -1.2402325449911737
Ni 2.2626951441101304 4.979716241294393 10.785292695596317 -1.1690752081200575 3.1843503460206324 -1.6461305441808487
Ni 7.778470181984995 3.516905307904463 8.32732941733934 -0.6547527601776917 -0.6415776562483144 -0.31216843344499784
Ni 5.949644681258397 0.6411584003431469 5.350785753089835 -0.5893333542316174 0.10632360035960399 -0.6932632575480641
Ni 5.4469498116394215 2.009014729085251 3.181673144075112 0.047121636078151105 -0.5135757995843284 0.9850636688596711
Ni 6.643948832884437 6.759766286349503 0.9301966319551913 0.12910048904480348 -0.019743758285830512 -0.3236774625258619
Ni 4.797087778175884 2.1982217344348824 6.720975062047331 2.1152229166408216 0.006587937630162847 -1.0827267653308
Ni 4.45742433786613 3.528103612938341 9.482908569247416 -0.22232097636354617 -1.223075830706229 1.8603250347825189
Ni 6.46913700842819 8.325459337356785 12.359814113319663 -1.5315945832137816 -0.7402535102546735 0.35353979730293306
Ni 7.0087899804692055 6.229611546630952 8.115802489984478 0.6325463992839816 -0.06068857612930838 -0.563083676506469
Ni 5.537321611586913 3.01924597974049 11.713632182904801 -0.6598456013195668 -0.456216287828253 0.044996362205032184
P 2.9555209716392885 3.387625865632169 11.613561652929205 1.6982308644205142 -4.287315035664862 1.2104583990525346
P 3.3366976004945985 6.7490299575959005 9.857102888602641 -0.33875055480890043 -0.5551420530618891 -0.337587901959367
P 0.9729312857857957 2.6127160926236614 8.622684712607871 -0.03947980326217717 -0.12115243784232035 0.03507087556120411
P 0.49396998558969296 3.7932502792396585 4.540948725387379 -0.8375916192862156 2.8779450403116567 0.5680762446250539
P 3.2296669358803722 2.4284891915753994 3.3241512486748768 -1.0836960712226045 -0.11306811817228915 -0.8949503597113424
P 5.852426392837222 6.081816095045216 12.20720764075114 0.6926238241918523 0.624049417556564 1.2331355289350763
P 3.550703492569418 7.07411342650016 2.920125272997141 -0.6448869231272055 -0.28955069604548195 0.7228283727996906
P 2.9191541988560017 8.00170636013972 0.5644638701494911 -2.1162523863466003 0.6214693155342137 0.26532061985352373
Ni 1.287084395898737 0.8273154382903994 10.12629092340381 -2.133181558001771 0.693437064121767 -2.4405296872399904
Ni 7.12366500232251 9.00392694209498 1.2522864945632657 1.363842443235051 0.5165238264690588 1.1504902460290187
Ni 8.677429825773078 7.970716991258839 12.34845504054025 1.4976616779117626 1.5141987563348376 -0.2961581740596706
Ni 4.110055133201381 3.7438280567757856 4.782604821789248 2.216026615623461 -0.8970566074210681 0.5654778877702584
Ni 7.051328756356973 4.12345244532937 6.012100178541401 -0.26150793097565284 0.9313533238204089 1.3186367932326903
Ni 2.1755756571757776 7.500840916590635 6.599024411485327 -0.5379560282009057 1.0861090515394713 0.47846352926222757
Ni 5.156403689448558 7.975854167495503 9.906285807353331 -0.2930486818964114 0.144091563136997 0.006246238020027953
Ni 9.188421789385803 5.196226044808305 7.388725741035695 -1.8327864630426176 -0.3925925403300206 1.5596520035716301
Ni 1.5562964534664783 6.373729667025695 13.156926466358211 0.970117331962484 -0.13577661551339842 0.6836804989556354
Ni 5.392177903849959 6.032449309734977 3.6252941827826994 -0.5958392736709351 0.3596749636663935 0.15831824825934024
Ni 8.221699464806909 0.23474215939126558 5.888121452108988 0.45545087041713817 1.8853390403283528 -0.7168279322418816
Ni 4.131269083991632 7.93919172989284 5.068696568685694 0.298622319329447 1.0208493110997128 0.5731703713185098
Ni 0.8322779874931188 2.692083617574991 11.617524485461407 -0.0947711196353142 1.5665461595883021 0.11617786744586443
Ni 8.262870790905062 5.807928837521088 12.96648228853 -0.22449638674831013 -0.7555389756588343 0.4087439532789025
Ni 8.54706935900494 6.002023551916033 4.264687833735194 0.582490620278171 -1.9860599497891989 -1.2884407292652842
Ni 3.929533281920929 8.092420022534615 12.262435057152953 1.3185306066721292 0.2541098387393688 -0.32863326386924047
Ni 1.003181492618235 5.848231648212321 2.0160866619837083 -1.0826645446342966 -0.04360848071857006 -0.46526477118376647
Ni 7.3110887792302774 6.3329925986310025 10.486921619170147 2.0373305750387174 0.8579964081948126 1.142297168695265
Ni 0.15178507874219516 0.5280425841651316 2.868277675061822 -1.2783409218271211 -0.12034613989094113 -0.01752978135364723
Ni 8.036733401710206 3.4963935610602315 12.911497871651614 1.6760741258178167 -0.3013680003953842 -0.186254312547976
Ni 0.47154935275536264 8.334079814746726 1.0608832539772046 0.5949964660546656 -1.0430189052182168 -0.15350334336920016
Ni 3.6037845671730726 1.940743874386139 13.237942322677565 0.6257874832935933 0.4598947651211047 -0.32128685080649827
Ni 6.93375579302686 1.495768321224783 13.047227426749114 -0.9926898179463614 -1.065826132920719 -0.9791334194181653
Ni 2.5091779686883173 -0.17616726286257517 3.4170408193498703 0.22236262823475897 0.17817693485648023 -0.6818663285650322
P 8.814756894847772 0.8716254312367432 11.73989368653334 0.5707080258209462 -0.8819837722483457 0.6757612441085588
P 6.316731033565305 4.127379243711712 4.006249986976038 0.16318560365397056 -0.6682659641727782 -0.8602816046845635
P 7.220375116835382 0.47279576475954593 3.541046340406539 0.17236701304292248 0.44978261638776734 -0.37792542523614914
P 6.985044399663045 1.8093116226477606 7.100321340880189 -1.6124917730804813 1.180329183767322 -2.1248298436029662
P 0.4450697963225319 6.296875293039064 11.355192178659529 -0.939005441049028 -0.6895372148467286 -1.4637102606669823
P 5.3902098848959845 2.2904783976058987 0.9856679718329909 -0.8891355528017784 -0.6643149499448302 -0.741324117611033
P 5.58582912101584 0.6944926379483921 11.155362490721242 -0.21315550781419418 0.42349231523267067 0.15748701060729653
P 8.245121662216878 7.104733214356821 2.2893594910550714 0.8820364798631518 -0.4597847219058017 0.43277194076238373
Ni 4.835949222872659 4.109999696047748 2.252887387679882 -0.44074390322426676 0.05275363755294785 0.6420898199980426
Ni -0.08633320330532375 1.4174356231412701 0.4808923610476542 0.35343695317648166 0.28094315688212906 -1.0060484986414544
Ni 8.579398459098618 7.297368083706096 6.135483879524821 0.885839655659326 -0.773643655679345 1.9508263233978853
Ni 4.658633486977318 6.253375606488324 7.817688272370142 -1.4946928250914258 -0.5731847694962128 1.4785601811956213
Ni 6.893111119888222 7.61058800173288 4.42958749512185 0.33618536518488557 1.0738775424702862 0.48073407046395916
Ni 7.608767815188594 2.07920740511031 10.465921101421383 -0.1643073759632396 0.859372462606733 0.3551181975336465
Ni 5.258371094030965 8.748038280450386 3.1743572877006687 -0.30706325100794857 -0.0716011092767541 0.0018720202117322598
Ni 8.960944668978149 4.440054029727771 10.066951918107542 1.007511456340226 0.4327495721648805 0.6844366603953697
Ni 3.2335752552115027 1.8598703067611109 8.219969825613559 -2.559394871710031 -0.5440289738678631 1.0037447902089423
Ni 1.953633012605825 7.967898935949158 11.107654200257194 -0.8837989710802133 -1.0526366308136388 -0.09688482354420734
Ni 2.640296076556108 8.512347221779434 8.872535344269268 0.7227532965873811 0.7293021534494923 -0.9299381886404372
Ni 5.664882502096583 0.8395688971484266 8.854603272974094 -1.7029341834334544 2.4584610749074303 0.5108450309167267
Ni 1.4996674010303084 7.068634387816093 4.17885726062281 0.4328986961482351 -0.8725403674472587 0.5017093871640456
Ni 2.6729762786227966 4.8429712623328465 3.379555140015756 -0.5036891365982358 0.6584592624950015 0.7793862145900772
Ni 0.3765984439177798 3.091803974320559 2.443751039970581 0.39112906841061673 -0.39597945452438255 0.833427460606197
Ni 7.813802127900465 2.5450920047169343 4.504571789125926 0.002470830137995745 -0.9599175086113468 -1.1299389042402281
Ni 4.783431759330941 -0.2461224830795721 1.0177365173045947 -0.6120984158422749 0.9687016825618802 -1.759576357407531
Ni 2.0296096316599326 1.0203485311932723 1.3490603618028154 1.3320571804036543 0.062335367704111994 0.17221094708103246
Ni 3.6318634854882172 5.827756859470512 5.670996296189749 -0.591852263998729 -1.5249426251149028 -0.02886526097112448
Ni 2.746088644739196 4.2488512868473505 1.1573753156857864 -0.20501565231587918 -0.42713505419158054 -1.0926432531135635
Ni 7.361083852281692 9.018285164885944 10.062976150239493 1.0059029742025256 -1.673923140913085 1.379053860868167
Ni 2.261309215269304 3.1830165710981526 6.1869526569103135 0.49477075106268337 1.0231504484290637 0.6181253387626452
Ni 9.214671281631055 2.6938391274400377 6.652832636754135 -0.9195085086666809 0.48707749618348367 -0.5640632668109189
Ni 6.155861653247772 4.28165160274691 0.4364410033595462 -0.2442910528767341 0.9551835934707872 -1.7932030443230407
P 0.8973233238033477 8.960279423134553 5.022164469831226 0.42674604628327795 -0.20169764368623974 0.5825615827254225
P 4.2365627177920215 4.000511317622456 7.530879538286707 -1.4268601817181685 1.81536029714637 -1.7227956982440717
P 1.2503665211424406 5.5860970672584 5.940902242130464 1.6836797060792164 0.5620446937189933 -2.2480908431478572
P 3.891475675951834 9.194935654937687 7.180634993253523 0.27820698889788864 0.37859699738187697 -0.5707429928239396
P 6.680047659425164 3.993905056814516 10.062800599252988 -0.04432684694183334 0.9651173076447315 0.16790306373429792
P 0.723809652694675 3.8716291749511984 0.6009535286233313 -1.2443362827469022 0.9813183428846262 -2.222361556702553
P 5.792489590234279 6.712524591928531 6.164071895700828 1.251902010909302 0.2668331998433082 -1.3630394877177816
P 8.568089279757475 7.898149757153164 8.61074354971531 -0.6027416572177232 -0.41308526096673376 -0.717604662506906
