# total energy = -340895.5017868581 ev
CRYSTAL
PRIMVEC
9.00503035743252 0.00000000000000 0.00000000000000

0.00000000000000 9.00503035743252 0.00000000000000

0.00000000000000 0.00000000000000 13.17977217052725

PRIMCOORD
 96 1
Ni 6.352634610560388 1.7431127106810433 11.234226389910713 -0.48300846832043265 0.6900650623257406 0.502137732950716
Ni 4.429718460861267 0.37070377681423894 5.840075492708041 0.0054805634985970126 -0.8775316500142629 1.1338050720638537
Ni 2.7359713260152057 1.6933959386662785 4.7335022558695785 -0.7705717016222405 -0.6495280214436427 0.845858230170382
Ni 3.481677881085424 4.139342255393397 5.056537905051113 -0.025341821198898294 -0.05345117784060472 -0.3654275498794545
Ni 5.310500469693751 4.341658270038519 2.744081256259092 -0.18701073109802632 0.34879199820530254 -0.3270093551125723
Ni 7.374768579239959 6.088454038092147 2.4949435868248426 -0.686818787474301 -0.10007607678799539 -0.021451485005556603
Ni 5.040934889135522 4.461650298130666 11.38431773161622 0.12618048718453106 -0.05592406486112949 0.3238813510065519
Ni 5.628720228697148 7.872935857745447 12.306810140067466 -0.43826818799026457 0.185528490125545 -0.12210168912946713
Ni 1.676871708156028 6.4884394717729705 0.17833291757811956 0.8571404879524206 0.5589403437620568 0.7371481318564724
Ni 2.756655880501334 1.64154497448207 0.3798357779915932 -0.18358987834193544 0.18559816702121584 0.9349559535700027
Ni 0.6136576919752518 0.0675107117903807 4.417253697988085 0.17830394735264773 -0.4406508292898282 0.9304225844760234
Ni 8.692636746386635 2.44111962051268 1.3231307068252545 -0.5918826030160322 -0.15806190927416006 0.8657716812648574
Ni 6.825146557881297 0.6986804860943977 4.821911841866057 -0.030044883101522445 0.6007228270154815 -0.6134081357926339
Ni 0.7422648325083556 7.461820206674614 2.3446289203691175 -0.7958474454698939 -0.1288832308276748 0.47368667669887454
Ni 7.690367874440368 3.941843931932462 3.7645781104390643 0.6619485065951826 -0.6944601060696427 -0.3556673851688972
Ni 7.4176235182036 3.663210285911659 12.633496428512684 0.8166805801651612 0.10424949143939465 -1.4129091188547152
Ni 7.986705409934279 8.974188022208702 6.885969233704395 -0.5381478324967377 -0.5408965988864685 -0.21865098371112668
Ni 6.934818821306006 0.6694807750030961 0.31343178441903796 -1.0755647003647217 0.024635282050176927 0.7161635591850053
Ni 1.773963944320345 6.298460348571468 9.541205961005895 -0.2764547820934723 -0.06532658912195202 -0.9044978941904617
Ni 0.061082921197346984 4.926598020040888 1.247320058652695 -0.4036534261298726 0.24754298415512851 0.03823564644243092
Ni 6.236460715294587 2.0538042643947576 6.904540307590657 0.704036179793852 -0.3370166028369293 0.6883388236632532
Ni 3.669324701451964 4.336867593945084 0.5734475303962752 -0.6315500968089833 -0.8213954691423274 0.8485468327461386
Ni 6.0773328257323875 5.711179290703887 4.69889142210056 -0.8774133792688438 0.4624656111720745 -0.1926854128853004
Ni 5.309771062243434 2.956639592311495 9.05377808157753 0.5578242278797425 -0.5039092230288419 0.5643985386631506
P 9.057079325667479 5.70999963174103 12.193134240193242 0.31960046424301086 -0.03947054729079654 0.5112564074225324
P 3.821815883719312 6.145681005336094 12.709636660792421 1.4250107872142554 1.7626053740418417 -0.44863950392225965
P 2.4711333863386558 8.382872710788755 1.5074492680110925 0.3027983050840075 0.7425626180038244 -0.209480115845136
P 6.1948844906265625 7.865749843605295 5.757306657660676 0.16470589695323892 -1.2285777343610647 0.14732858201705593
P 4.715952352413759 1.028005248403104 12.572012783469173 0.6750601042764761 -0.9454684230655522 0.30854240665663635
P 3.9364138986912187 5.994603612818125 8.228422033938829 0.3885988457895953 0.48680264525554223 -0.2692176409150847
P 4.713448954004032 1.0227733258273788 3.7885783170635436 -0.15787319030212166 -0.08720102059754015 -0.7009485420074638
P 0.11577587292871369 5.809406160679806 3.720900111710498 0.24440598118804358 -1.0394224461162098 -0.30205191383628627
Ni 1.4007414605449524 1.245314638415838 2.5000845585950344 1.0794504085723733 0.13998474005747505 -0.09185805975357729
Ni 1.95989980893923 6.316182248105077 4.6265089889444875 0.014622635009181269 0.2803147792695108 1.3661191550843699
Ni 5.915881638365476 5.502019453068143 9.181503629649079 0.2370433701753853 0.2451130345573972 -0.3885389390859373
Ni 8.528889276305765 2.1814775832908517 10.194513701678522 0.23323248106972733 -0.27331880756765187 0.11086648253528002
Ni 2.3930237539430625 5.0381703448485196 7.095752219433495 -0.8337264799038544 0.5436044847359347 -0.029277151697562485
Ni 0.6536319217616569 9.035467253065518 9.004947404539445 -0.7530738019477934 -0.14463046635960253 0.19362695086296333
Ni 1.5002830649374919 1.0759210143677052 11.320132577497464 0.02995489449087745 1.00871858927445 0.41285437590285023
Ni 4.099792162531806 6.833899447285091 1.7892860032921114 -0.24682770325565878 -0.5859407836103006 -0.2810148906603289
Ni 5.474401025288884 7.761417563119321 7.74693837497903 -0.23042406508665478 0.43027282848961373 1.5451903196203454
Ni 5.453455324925482 2.7675969922560775 4.8614907508244505 -0.3350682208613068 1.0393134313421712 -0.5211322717753476
Ni 0.589082063917745 7.332048715730079 6.990538346485966 0.9450369919550885 -0.726368267632149 -0.36435128609614026
Ni 5.109868395705531 4.608648411945015 6.851082846009702 0.00933798957147424 -0.1894460800123963 0.44427788451945416
Ni 8.046886027100495 7.178017673289841 8.94244889258667 -0.09283070807949173 0.5111111400939198 0.7776928860480542
Ni 4.352581371732762 0.24248475308494521 10.483045676951024 1.6955965121214602 0.5273535700947111 -1.1536354765262196
Ni 7.918861512024618 7.488727237064057 4.526777378413655 0.33273365919085923 -0.724934620509416 0.4467255747289983
Ni 7.130426088414269 6.10169143256085 6.93557794535615 0.7697754309731905 0.0017732898503388815 -0.049591437774882334
Ni 2.1685463598506773 5.351482362365223 2.4174336894439543 0.3449625971568833 0.3275017213679586 0.07799107196349794
Ni 2.5584641697110864 4.987796205625446 11.577401789248201 -1.3738268081412726 -0.4285910699118167 -1.2428229314261694
Ni 1.23421143611658 3.5345824338089784 3.870727606029654 -0.6759893009589649 0.037839182334960635 -0.1077662463434015
Ni 3.6099275219175704 2.652395640257366 2.845802978475355 -0.032039287823731916 0.7790149472935873 -1.583217963817028
Ni 1.1102661997443242 3.2195054303631157 8.247782848978087 -0.1280285961368634 0.9358458123741238 0.37127603824043154
Ni 3.769982929595605 2.6120080795824485 6.996284456289013 -0.05008637513342987 0.3248606842006857 -0.9106358887673994
Ni 3.996873671795209 6.796474541562693 5.96641696763004 0.1046104743232392 0.049761130583527206 -0.38878499365847236
Ni 0.8892287272077516 7.710719242807216 11.388166481545419 0.24450291177722405 -1.3003053419133541 -0.005823291549996423
P 0.11713203048448685 5.449285995919354 8.236118633294202 0.5702128313520824 -0.04432453294898817 -0.8641709124366407
P 8.591861452849734 1.6883891418468238 8.018309464102549 -0.6387507283224805 -0.4997741178145457 0.17682787702775354
P 1.799358129627651 3.1029263087360293 10.515665498531586 -0.009053882672152149 -0.19298160396948055 -0.6037682987100247
P 3.922068885501666 5.7146192122596995 3.7763206698861302 0.6930542268610516 1.7610028054414122 -0.3697883979513115
P 6.917781304071459 3.846435636425048 10.437298322270818 -0.9864142693502947 -0.13550073614419245 -0.8705135668252169
P 6.224880246392036 7.642866339867305 10.02126592468304 -0.10040697776485288 0.3118069363405211 0.9956818106951497
P 2.176254665745377 8.37600187270738 5.742913917810793 0.6928446819534068 -0.41374680581013257 1.069822398564306
P 7.011334563347205 3.9691832037739445 1.4750932938168793 -0.510751699871972 0.7828677453807743 1.3478833488026336
Ni 5.39067225401678 2.7396813984785426 0.5415670217993052 -0.5846333776527867 -0.041149220544800094 -0.4279261826343082
Ni 1.6860028088303574 1.1194783456909108 7.0080270157360784 -0.5258800708729782 -0.14813873662317711 -0.6512097800214398
Ni 6.841292577121013 0.6525945422767627 9.063900636082476 -0.6494814844764234 -0.5259903711985974 -0.04709026861958342
Ni 3.020440231638539 1.7713795006383604 8.981501007275392 -1.244943577313598 -1.0070805394503946 2.0829709985856515
Ni 6.279513764923748 1.9692470303395788 2.6272824118938853 0.9959273510470524 0.21993627818145348 -0.1466384979285668
Ni 4.123862608392241 6.736104818761211 10.35997302801007 -0.044538448732007165 0.25709771772309914 0.32267730339612166
Ni 7.9178529486365266 7.373084638583055 0.09901300911681644 0.7842749101409461 -0.58406002164782 0.8795548510918788
Ni 7.549385120833565 3.7056780085745156 8.170839367999974 0.5822679627444036 0.523852241809672 -0.08653201955497355
Ni 3.1887172319355694 8.36884287365798 12.365116810438487 -0.5836388749500012 -0.6620868319452597 1.003553757244059
Ni 0.07315866676369359 4.47226722879638 10.355676728077407 0.08905067221176921 1.4264585754043757 0.08484614721211839
Ni 8.552635541077171 2.1076813603854 5.853980159918329 0.4718069431776585 1.7095506603087074 -0.569074346872265
Ni 3.642642796818791 2.5528180157438234 11.54081435133913 0.16520289119431547 0.7432398465765071 -0.923523800473661
Ni 0.953389567744828 3.513429617749807 12.694097580591611 0.5454117131480025 -0.5748513585653583 -1.229366034590315
Ni 2.9362071786723893 8.043554165907691 8.068023534608239 0.2970390340027271 0.12117737754298484 -1.0228426873806578
Ni 5.466008337095122 7.9288210754820225 3.618361633250486 0.1483868480782412 -0.32395771277044205 0.170468510468629
Ni 3.079171038934372 8.40791569991628 3.7662125234295876 -0.16397056144911115 -0.09762478703402541 -1.0190374547019547
Ni 3.3692140582829606 4.211364487339437 9.337130363449761 -0.23954016845531 0.3193325552936049 0.1324004999523139
Ni 7.04915569040064 6.008444344313632 11.409175217120575 0.5221337164566685 -0.2998654477079287 -0.902763170887542
Ni 0.7658715193108744 0.0635818170919489 0.33406681123878684 -0.6334442285079026 -0.34484124108767056 0.05535148018711113
Ni 4.580876898651493 0.21824321164974383 1.531779058742752 0.04884838896127071 0.5565708150886156 0.11588656145769073
Ni 5.843066963757363 5.694691080314639 0.34798048347932536 0.40700434487997644 -0.27207336519632497 0.6868175019227204
Ni 7.945354311022523 8.820742306734768 11.326551363060249 -0.8380323063680599 0.08712440172333381 -0.994546668649442
Ni 0.16594739897114483 4.995369436066383 5.914448938052571 -0.32008820251270687 -0.8019198769162189 -0.08109902146486034
Ni 7.765902068184228 8.999501162243751 2.5537392303384823 0.5482370984119397 -0.3601043378943282 -0.4666392829337899
P 8.572716758536494 1.7727032400852305 3.609913113869169 -0.8798906371647427 0.6248937678347303 -0.3170026216088476
P 1.8327307717371817 3.4227489631240724 1.579569654786867 0.17624500794109002 -1.3122972241679076 -0.2868260980254673
P 4.750900874817183 0.915838591598918 8.13676973654903 0.9284356359529817 -0.027984401028067936 -0.2661680554554835
P 8.531987006712047 1.5961686270481992 12.471108717999687 0.4379563131768006 0.21685609659423297 -0.9165741086287054
P 6.256046656090117 7.658102851051688 1.5484518722521412 -0.16975245823821086 0.5042563219556154 -1.1572000539490264
P 1.7492271262213488 3.1895186796278923 6.036494113041903 -0.12781699434668953 -0.2334471681836947 0.2033323510761853
P 7.030740403537718 4.126465062134727 5.8351596466941205 -0.19170607969116663 -0.6671264512516962 1.1886235625656303
P 2.416941114289234 8.540478750238568 10.071784144390127 -0.2252777449990249 -1.0372040983086523 0.9691027746550407
