# total energy = -340858.1828809889 ev
CRYSTAL
PRIMVEC
9.41760215653076 0.00000000000000 0.00000000000000

0.00000000000000 9.41760215653076 0.00000000000000

0.00000000000000 0.00000000000000 13.78361270189303

PRIMCOORD
 96 1
Ni 7.534119432773753 1.1809861514551105 0.8617303785351164 0.008341429986159828 0.4413630248655044 0.36759961783010886
Ni 3.290350110475438 0.9759461162923486 13.3107108742683 0.8439630700301981 -0.13237581736196555 -0.502420040077825
Ni 2.304590852687609 5.3508838020734375 9.098314410188692 1.131280248759471 -2.677722952729679 -0.6826664558688242
Ni 4.784028907875302 4.155027256739859 0.5567639334376677 0.302253231213815 0.08215651619509722 -0.05496890003671178
Ni 5.596108745836213 1.368095072023444 10.998895778930802 -0.02551948442734315 0.8417817461081633 -0.38934523703731655
Ni 7.33735746994739 6.475166570664548 0.08422820882257917 0.002623296555459998 0.6486893275924311 1.0131038628263391
Ni 0.3779500368896982 5.30288228364497 0.3028813879697142 0.002750823272259779 -1.1289482581921848 -0.2554990057774116
Ni 2.481359246037097 6.788283008708436 5.4095714737216 0.013156077765983794 1.1890989595401522 0.31235740952735236
Ni 0.8071468979270027 3.4653762474173786 11.343693030785435 -0.5200503515650785 1.346382595887391 1.5489772974666034
Ni 9.36304603339445 3.655818999165558 9.192111844609695 0.26898418474804 -1.533244460112379 1.132631620581043
Ni 2.530754569591602 8.211442800812565 0.23850171755008548 0.37872349565741226 -0.5380035936093895 -0.5724383782484915
Ni 4.140938523844237 0.711139152268966 5.99737394049977 0.00574538712420946 -1.724127786791934 0.3394144136451445
Ni 0.8743264214815702 1.1609643291716256 10.381886502440606 -1.9163182623186867 3.0903662410629877 2.062415800142119
Ni 0.8167038806425627 2.929298077218504 1.0756342608913008 -1.771403431949446 -0.3210292262697374 -0.7846289510462552
Ni 6.908291513580706 1.5773071049621152 3.529211580429676 0.906442162401026 0.012342323615436808 -0.3102619604509044
Ni 2.8692702807768615 0.021725466521999606 10.417558496064963 0.8920002759440832 1.4992922715366501 -2.136410863572346
Ni 6.4076141100627435 8.539900512845067 7.576714305777505 1.0379039525891545 -1.1047559772166973 -2.2223942097127014
Ni 4.300595133990953 6.537445174032698 13.079697092229786 0.7957014068103329 0.18705932494777464 0.13770134333993705
Ni 2.086460350462738 0.5588339224018775 3.1210649438364197 0.09675035484887208 0.17099841483017 1.9776904947785812
Ni 5.614896862231111 1.872614857240212 13.173109346720688 0.25459140636147765 0.8620052722438897 1.7224383149046527
Ni 9.277232842121116 5.078686845601395 2.741478127683848 -0.7660002802014744 -1.1519490899627323 -0.07325330016819642
Ni 1.0797375101711286 0.5042221889871549 12.529083794790868 0.08698350527009535 -0.9958144796182721 1.2814051625747414
Ni 8.609506010727117 9.188358930131818 3.034710240436413 0.9032959034625605 0.4218180128540413 -0.19181612290646965
Ni 8.13209950225266 0.9855709057437698 8.99171186205233 -0.7978801596292066 0.32128119437954344 -0.18682792566325887
P 8.40183846454973 2.942915930003979 2.865337490096907 1.045918852473831 0.8009161182420529 -2.2718385803867585
P 3.8255618612716407 0.11889346077144054 8.278658111255503 -0.8236672958956395 0.7435424654185904 -0.45616100911028534
P 6.279129763207814 5.391304150728525 1.8681622149186543 -0.6845135363798921 -0.15311562101247822 -0.8723935574567492
P 4.471110239477677 8.992171441039835 11.722452981464588 0.6677653703872757 0.2309416281530216 1.9289292662144777
P 1.2241281871468526 6.692279971851501 7.799939730794174 0.5936661772790163 0.29340555101519794 0.4825497835164593
P 7.855156074270326 7.380499505639133 2.178775454296996 0.2537051471017824 -0.36856660972906846 0.8398382492285472
P 5.558909217134537 5.326831246047088 11.655546568373905 1.6049239880355521 0.7348423665414312 3.0203882692119532
P 1.025765231945987 5.143809564834837 5.1783514461948394 -0.28786636636452356 -0.47421169596440915 0.2560031991073397
Ni 1.9709346242390746 8.671633932460018 7.091007122721361 -0.4137851152472357 0.7380757858770643 -0.3672005826194773
Ni 5.590825471000355 8.981991013058439 9.64074098603258 0.3174047421432727 0.48978846735674353 -0.04368561381340863
Ni 3.244561728564665 7.532480769990439 8.552952367738145 0.5737915498422763 -1.41201154674111 0.5114546394762676
Ni 7.585991585707636 0.546882985206326 12.156856834759905 0.4476352310274614 -0.38470748115498904 0.7528292900371552
Ni 7.082865605616905 6.833544004895843 4.597523655608178 0.643210306755731 0.6336653433797732 -0.5140738222666694
Ni 2.692144018543661 5.339036458502119 11.756663363227046 0.07976667580668198 -0.618938835802876 -0.6218177000125678
Ni 1.8634986183077504 1.3217133811738846 5.797759385966131 -1.0418963615779993 1.792370006898784 -0.3210870760908664
Ni 1.8081325349565711 1.698323293270102 8.31923761738782 2.184429300433154 -1.5284709499831353 1.4694309652008435
Ni 5.4867138786466745 1.301211261178049 7.737403085125663 1.618727726687864 1.8515058938289919 1.1261946067064474
Ni 5.918746379707288 2.7340900187556283 5.574616835848847 -0.6691301119452863 0.284846091480961 0.3614803923062484
Ni 5.833366398135289 4.4684544756564435 7.993130538865176 -3.5419270323971 -3.6447310496392196 0.17430125395115786
Ni 3.596101983596613 4.613287779935707 5.656078153144198 0.6036631405907281 0.6495007677501331 0.2941516851526031
Ni 1.935166571072247 3.6549243269562774 7.154549568305146 2.5033666771708694 -0.6827790701872886 -0.8241900011683289
Ni 0.14550477931633382 4.770646495144901 7.353984246636709 -0.4659206596002105 2.3996182937376096 -1.5716120041469837
Ni 7.732510640781228 3.1824997300471836 7.444212409822792 -1.2771648992411488 -0.7160434886673732 -0.18254498201718883
Ni 9.100040656672494 2.08516072135873 4.565918182615057 -0.07543770941402493 -1.3745112358028069 2.2610911120622674
Ni 5.69307237811785 8.852291795519326 13.515728307185777 -0.21486194898233962 -0.31613024630622333 -0.07026747806699511
Ni 9.039862178595605 0.06686026683988737 6.365851753093735 0.3349995724069005 1.2021678769089683 0.2753492077341193
Ni 8.410907615471176 5.989491407455896 9.641926662149933 -0.7530334356281612 0.022849650904663874 0.8758953999624206
Ni 1.0426415750936844 6.850166072784061 9.994415269723717 -0.23022634725355187 -0.32413357622667405 0.4103094979938095
Ni 4.497008645535807 7.270925704007737 10.532113267501503 -1.5163584829903176 -2.4548777284315464 0.4725661899411861
Ni 0.26540686528371094 7.00884325230167 3.9793983932569295 0.12298383462410431 0.7648013747973668 1.3273209512702495
Ni 4.386766194148002 3.353033670738314 11.61491338190903 2.823953673696866 1.3002924863975476 2.6285115240020342
Ni 4.157230975655351 9.22203627560959 1.8785545389496165 -0.0826275422942448 0.3207307211927121 -0.18612652872086008
P 4.098239115456034 7.870374919430304 4.031858204568277 0.7105593256243504 1.8089793333206912 0.8133687421831088
P 1.3327508109557493 8.843740612719042 5.0311015851902985 -0.9030447066837028 -1.2861254508685465 -1.5556804205183916
P 5.208960536874888 1.744290609622731 1.6487405594317581 1.1133663445935276 -0.11558805638066545 -0.6973541397879861
P 3.5607765577333246 2.603467876200626 5.246318281293575 -0.040793894087910385 -0.33002063113507035 -0.850146830243407
P 8.953465095985685 8.164769164294713 13.007209808073632 -0.9990895508251181 -0.11541245003474962 2.164384980187769
P 0.6052579924613499 5.786174793496275 12.069317397002767 -0.21671802835447193 -0.22624653667019745 -1.4492367496411558
P 2.837203345275795 4.8625057870325366 1.4152461809729846 -0.15692933833161363 -0.47165370542924573 -0.8198461223773366
P 3.515289539093046 3.390468639495065 8.89502039847436 -1.3293330966042718 -0.5991652527203746 -0.5350717646745753
Ni 4.718595407769163 1.287461561961733 3.7948491769673596 -1.5890191438798376 0.24861719105591373 -0.2878267713758398
Ni 6.611137911270831 4.022549846550874 3.5056412056361177 -0.06792160354263786 0.7580432301379267 0.23441724540644787
Ni 9.039899849004417 8.290060944002843 11.027497036821183 -0.7144450338320019 0.1969696420829511 -0.7953723056056883
Ni 2.202730067260435 7.780191960734795 11.624767960854205 0.08856884747934424 -1.1336708604788346 2.435134484366348
Ni 3.107027065992693 2.3588362413766366 1.7638057649076968 -0.9978636488378169 -1.5913850730088528 -2.482575194346815
Ni 6.671419982971953 7.215973995153488 11.401983279620632 1.2786060025630495 0.5669017647009785 0.4624478705602616
Ni 4.609341804612669 4.890768011243607 9.973023186319702 -1.2658862410035359 0.8385277579472398 -2.950776679561402
Ni 4.172459238417532 3.5807701272102004 3.099355487238165 0.8262599963234804 1.509111314509601 1.9215609987748647
Ni 2.305240667239613 5.326784158036073 3.451085977834613 -0.10231602186210766 -0.5799048618288658 -0.12750280554038043
Ni 7.7510538995188485 4.773471775805788 12.197698150233467 0.25312793444207377 0.7523585210483237 -0.08316156042084388
Ni 5.087134434777447 6.828712774965727 6.082005222696636 -1.1611873207315486 1.8980690863005119 -0.13733753224261508
Ni 9.027176668428224 7.168471609641777 6.562129651166866 -0.38400299888879674 -0.36284693363647186 -0.8591580326030817
Ni 4.807346890929822 5.864727013471132 4.014173831151566 0.3188355610525283 -0.5671334210958104 -2.746871486700882
Ni 7.628201278781285 3.8798166675628707 0.8898296782280767 0.22226466920431398 -0.07065288643087186 0.3112703471107607
Ni 7.494038117797972 5.579288908301733 7.58641820308743 1.09638317977197 3.13291131351405 -1.460894645595058
Ni 7.939707306848467 2.792432064402942 11.022437900917753 -0.036676786595743284 -0.720204047802966 0.058968765224724246
Ni 3.3393310595330132 7.082404143108961 2.290809133623803 -0.596918622778043 -0.8181864752867264 -1.8280191235609615
Ni 0.7985128402273325 7.04261477380147 1.661518362100729 -0.195395869837928 1.4600994033872725 0.20717126520630127
Ni 8.257202929916728 4.88195313558164 5.181204979662336 0.4519629118685377 -0.5809939811279865 0.5477030802853406
Ni 1.4012167789712406 2.940081231740889 3.284441506853303 0.40213853214724293 0.6359394841259306 1.155708042784532
Ni 2.5201409319088697 3.2631614929155037 13.246148502365934 0.14843569903830567 0.8624122778743213 0.2766383588591881
Ni 6.168840223808993 8.817182974506705 3.4524232773474326 -0.3564006637904959 -1.3451299544272124 0.25089595978776147
Ni 0.6046759846452072 9.004150631041995 9.153477073332288 0.287413337987505 -2.728854224187855 -4.002518566474913
Ni 2.727017399501208 2.4157844818979126 10.950914979227182 -1.0362432770572798 -1.6510598631616662 -1.895947411971819
P 1.2488305577252068 9.40818460075322 1.3533687674586814 -0.9864204399978818 0.2538401300177499 -0.5829459626480348
P 7.1285786467100545 0.05964261651154177 5.427641968828632 -0.88060077585789 -0.21697513867060053 -0.951208153762807
P 5.259259950240877 6.505359403327226 8.087644652813823 -0.43276628433542885 0.74265389216605 2.5296747189377786
P 5.973877023003395 5.006416166295909 5.578752104976165 1.433211577857493 -1.9308853614995845 0.3761624197984554
P 9.098552675524427 2.061757979884384 12.848960187696036 -0.7652127513031725 1.318607996877284 0.6754689096791205
P 6.531766359904315 2.592741227291459 9.444104277315516 -0.1869251133627555 0.2953649887344139 -1.6104184354912199
P 7.624933370816859 8.105720798482178 9.318494182652927 0.6183626515844318 -0.15477578232372055 0.6532494361592879
P 0.11966005359076118 2.1788281928693323 7.284845861823927 -0.3231989802275466 -0.289830689179746 -1.0627549501945632
