# total energy = -340886.4618074443 ev
CRYSTAL
PRIMVEC
9.13248273664249 0.00000000000000 0.00000000000000

0.00000000000000 9.13248273664249 0.00000000000000

0.00000000000000 0.00000000000000 13.36631161057922

PRIMCOORD
 96 1
Ni 5.498612967395379 3.0050433934260257 9.54380046443562 -1.4606298219694458 -0.14040100165928723 -1.1225667801458732
Ni 5.0026369708794265 0.560741736487077 6.19487069966033 -0.6802377918226736 -0.4229390138323619 0.5007058856001957
Ni 2.7004203044391892 1.7891994574273007 5.136272588493781 -0.22845562850637427 -0.8885061467478955 0.16994914763004923
Ni 3.7108290447682033 3.2278394384830724 3.2807210788709575 -1.8757879063048082 -1.1628281987690812 -0.9421383302510549
Ni 5.318127714138189 3.2972645710672532 0.3666098145084262 -0.30370744716183823 0.4600696001360722 0.9098139070867364
Ni 5.18792590997446 4.722717247275412 2.601004099057528 0.5455734355368476 1.0709714245670847 -0.43484656390322524
Ni 4.919330464771443 4.97563221988608 11.40102230512259 1.3037609045621226 -1.4622830413021526 2.4289041871859203
Ni 5.795866142938985 8.371162303529733 12.646429000485726 -1.0057661915143452 -0.2682488492439122 1.0409550807106525
Ni 2.385057415936568 5.569298382575799 11.340486731083192 -0.5808358582835674 0.5812562336504375 2.1348046954274915
Ni 0.6621205123754922 7.659796705330289 11.313406180484419 0.0011341136044432081 0.11565979015886532 1.0876314017212687
Ni 7.76513075942473 9.581435425153774 6.799696756064582 0.13935173445916643 -1.5832349330978928 0.30419878497596
Ni 8.651693903466704 2.4407290297530855 1.565355003369903 0.29988910185701256 0.23077836310227998 0.14032309723350028
Ni 1.6836188263031604 1.3869227321970226 2.681469489834423 -0.4807461546488172 -0.33397241669396677 1.3480247594765042
Ni 1.7699390516630231 6.729324585036704 0.9430831654903086 0.13281804710570674 0.6219575680245418 -0.45689557328346475
Ni 7.712144095487158 3.829186019023792 4.048962865339411 1.1176850265735396 0.3668809944965294 -0.23471755025568608
Ni 7.550371299039359 4.345837956104146 12.870327336190353 0.8934568058849516 -0.14172434845640108 -1.576193709980395
Ni 7.120423151587287 0.9011751161722941 9.407116424135577 -1.6784513678007418 -0.21062991317886307 0.5265832675875898
Ni 6.727151054182319 1.112820399997391 0.5875912352765392 0.23243081110403843 -0.4474948487948552 -0.013943349553969534
Ni 1.8489258935099815 6.857416785724118 9.415831552263056 0.7416028251937163 0.23893441655051112 -0.666374146466704
Ni 0.05201770753567938 4.8706543326123155 1.235120780231649 1.12112053461765 0.9415464623033268 0.9084517366318872
Ni 6.448929972338454 2.210754853387019 7.4817260804676335 -0.4699331231937133 1.0309624882743147 -1.1207855198757344
Ni 3.163135799393501 4.760014306138053 0.5466283979057047 0.1380589837896719 -0.8981138450409888 0.20166396223482688
Ni 6.045475156855169 5.8137932062463715 5.163459989138756 0.6273448004783841 -0.4051631779061796 -0.4824371691979949
Ni 6.180909873538068 2.6135977925373473 11.667212254413654 0.9975648866504757 -1.5463077210542402 0.8378862677084989
P 0.626596068381911 5.833555898552628 12.534806318885698 -1.7172395443125326 0.6052492541309255 1.2179199975369026
P 4.102475560273674 6.467615031700101 12.928404445918824 -0.14210384328300688 0.002107276150989919 -0.9980482540447974
P 2.603670783971311 8.854416751809724 1.64841401919993 -1.3604023072052507 -0.523784364686214 -0.47126932550663353
P 6.537049296766862 8.020319720198179 5.954357638395271 -0.18515465172589404 -0.779547936978922 0.049352839401515004
P 4.637730364372441 1.2733785762618584 13.10998559708579 -0.14869460912664714 0.25571934931833384 -0.4229613824298651
P 4.400422804493471 6.360472746054532 8.271126915829049 -1.4607727753052133 1.1181807352630355 -0.13452885914922638
P 4.61378499504388 1.4995445073914604 4.222832548214599 0.9377162899239593 -1.1359951377366373 -1.1721836718420522
P 9.286547562598761 5.727372523578113 3.876818308423859 0.32114723990484045 -0.5796670347864469 -1.3897293383041422
Ni 0.09280154824791746 0.15339374367931996 5.004601367882697 1.5704277540308955 0.8434141395052636 -0.06133829389816533
Ni 1.860652001144563 6.682721526423566 5.287926594241334 0.16573253844554037 0.02889277177495024 -0.5653889276008779
Ni 8.145836560797623 7.4618775428251105 9.316345940013774 0.25725969722226016 0.01644091916484265 0.20276645127038628
Ni 8.681438399234485 2.6678447390711586 10.349067161785786 0.6512408903696913 -0.1448214993244861 0.5655053985740841
Ni 3.7084911292273524 4.496112956981901 5.307107547407154 -0.9399870882360069 1.602438759719853 0.17412564760524207
Ni 1.4682109596545063 1.2777713003835356 7.295733940213829 0.1244838162083985 0.0931757501237363 -0.24613453384337608
Ni 1.339068523470226 1.0551761699432805 11.560722941272658 0.12313630104156857 0.957198567018287 1.4359775706384044
Ni 4.185170190048701 7.11469708500872 1.645687059901109 -0.07626303352879768 -0.056982073811998636 0.4856132529331314
Ni 5.976040891788406 8.005981722545304 8.273425561694799 -1.109308115363754 0.2419544343237575 -1.4117096992299754
Ni 6.822832074188168 1.2904015237936806 4.7192030679780705 0.7104037738830927 -0.8024788347434825 0.8712342470413253
Ni 0.5996598110079251 7.866537846009148 6.953141641646358 -0.7022798592243775 0.25390697869994333 1.9910892846829904
Ni 5.229296056068427 4.6118032463237055 7.454993477455215 0.7313186696588889 -0.40770317071921397 -1.3258687922047552
Ni 0.4754909248375022 0.2963591054988825 9.58249570638148 0.055030863622898774 -0.5533751909694534 -1.2173708099016516
Ni 4.555483226243905 0.44761676150240143 10.898489186113157 -0.42478300901963617 0.9287086871087101 -0.39974997731040834
Ni 8.408112328054278 7.144934734835899 5.105075114747291 -1.1146562670495448 0.37557543694673384 -0.5989978739045749
Ni 7.612326060871913 6.309394770976484 7.189377961318524 -0.7468843853076298 -0.5961485773812378 0.18107379678830107
Ni 2.1749737866328993 5.383945516102696 3.1455475511898876 0.9943903455772358 0.9373411659727275 -1.2344017972420096
Ni 3.56799701719433 4.761712947898202 9.640786516202358 0.8106253751100168 -0.860958319036614 -3.046978875216288
Ni 1.113468806260674 3.4917773175695506 4.027069564846902 -0.20373370027966206 -0.30330738350994213 0.6146204109331802
Ni 0.42545039978070676 0.39916346191826185 0.5340621018736299 0.05681006701050862 -0.1705628699546482 -0.2842079436763299
Ni 2.571268735772328 5.511151865979709 7.299756798790958 -0.10742248985073757 -0.15726255330131628 0.4644867553671614
Ni 5.529590348311657 3.3276392081331547 4.852077949793389 0.1903829900043689 -0.1801371439066446 0.31095050187749673
Ni 4.374294771827943 7.1955926157152 6.070738343420233 -0.8907599757790787 0.5028666406969404 0.5982640810623439
Ni 0.7915268773063763 7.967990595006472 2.9516695122270007 0.2077237952756616 -1.3493455351704566 -0.333075101690678
P 0.4913723120466433 5.984342318454945 8.031575504979816 -0.914935801694334 -0.9042374414402232 0.4900198666412593
P 8.637081931336384 1.7231533433982562 8.23886094162053 1.2723759624929376 1.5309839462129764 0.5299660680168937
P 1.8723963737443075 3.6550661061258714 10.39274782597286 -0.3226971008904636 -1.2046297081858997 1.3852296506615756
P 4.211837039186534 6.311933601134127 3.900009334691192 0.08098666425671214 -1.2813449987607675 0.2200895159298661
P 6.936595409705287 4.274988156237259 10.547303221436541 0.16449172405990378 -1.2903322898610423 2.0561371662222587
P 6.18073635636902 8.311289747725748 10.383872879400208 2.3778006836418855 -1.336315698569692 1.2768226854103817
P 2.163293341411225 8.823366311032796 5.942475365308546 1.5490413179353193 -0.13220663877395294 -0.8735135299938053
P 7.171829896038268 4.189480721827145 1.6153589984963728 -1.7460333286157734 -0.4551909318875322 0.6928860767143035
Ni 2.511697551893531 1.8416655698577291 0.488176856391394 1.3268393836481407 0.07208653355360488 -0.6850915203705492
Ni 1.06796164555731 3.6442806441971793 8.428809273328618 0.17042325905299038 0.20982952876475472 -1.187929107601767
Ni 7.830994223802145 0.20666077483214168 11.64788518152653 0.5839229818493235 -0.40091957213847723 0.11113799102911183
Ni 2.5325470096269806 1.7393087050848408 9.385623126380137 0.6459328478932166 -0.305394605056274 0.7803791746309657
Ni 6.324919991364949 2.305559155065048 2.7194158682086047 -0.5250737729215988 0.43442130344034857 -1.4147492573872475
Ni 4.422642134614137 7.089180928676148 10.725408549733006 -1.1916744335768124 1.0850438434997507 -0.45536859511597705
Ni 7.361137127469139 6.8124210440453155 11.618332467892959 -0.12984533763062797 -0.6316411138608928 0.17641341519815426
Ni 7.800254287432986 4.031634892889368 8.471995870208035 -0.20102427176829896 -0.21393918005775417 -1.3386086083689268
Ni 2.8019369808145846 8.503583300960752 12.81102099430642 0.8045876535563692 -0.23759641446537794 -0.20209976422066483
Ni 8.792681169559124 5.1855788619510275 10.395742367011318 2.0693827183782556 0.93669016265229 0.2909097811765377
Ni 8.896517496510208 2.6350956565340793 6.263613635795677 -0.5846236074607738 0.03275945381920809 -0.7711530280470074
Ni 3.6643538409112058 2.580583868005406 11.384555525779978 -0.38584673696575483 1.11397852425623 1.1867430577134657
Ni 1.1005646083730853 3.652883442788905 12.636283725585994 -0.34962066475418496 -0.6505801168572408 -0.6004271501519336
Ni 3.111071516196657 8.7234752165569 8.186719032321742 0.5210890772422381 -0.6640640102762886 -0.6144872277894255
Ni 5.8599761706607625 8.022137084231888 3.8070196573020967 -0.7711170326027493 -0.0144547419727493 1.6580581488563702
Ni 2.9534174693930906 8.003433759905079 3.7040317379828305 1.216929094378543 1.4645147588461487 0.32084256418022805
Ni 3.87484843193104 2.7432151178158626 7.563754952262473 -1.123022379626053 -0.0035193260071681325 -0.9325787115870776
Ni 6.158900590516774 5.65276927337025 9.357995540074734 0.05314007435808913 2.885440063137121 -0.5937363683953194
Ni 8.029689647326746 9.130126400943691 2.91447108417624 -1.3763562594313459 0.5434175655361093 -1.297104318477553
Ni 4.681484088420167 0.3518224987125429 2.2005894870256073 0.13835594620480043 1.1136581648023336 -0.21718931156393562
Ni 6.0964709395899845 6.05650719581356 0.4330038761238238 0.14879693903246632 0.21207410182455733 0.39812246900931436
Ni 8.506898392137819 7.356552621213251 14.2168096090202 -1.046404533860998 -0.1911952014930191 -0.41503158605982715
Ni 9.432028010121256 4.9248738816983835 5.907561884399665 -0.5752591355267384 0.3984960502986492 1.1684954243571875
Ni 7.253656939968058 6.044452318806046 2.862154744460147 1.0262326868988132 0.5638863749134224 -0.14167909704076245
P 8.824745315902595 1.8634739382622312 3.819262663450788 -0.7780602966898019 0.12882692366844264 -0.29698066996096595
P 1.7876012729755468 3.4411742315857374 1.919389389363673 0.4560733344924855 0.5387996071481237 -1.3253175476869756
P 4.800717781003574 0.9995684835048332 8.490013345092978 0.2719319545224542 0.6974042762996312 0.10985321077941726
P 8.313052316863969 2.1096765361755336 12.507993350026563 0.6256041636381936 -0.26021363764426153 1.3278922503926873
P 6.394518641118177 7.9428032080468345 1.7786012113915282 0.947573128113381 0.07081589437129739 -2.114831080519042
P 2.0077854280142993 3.558581427652855 6.22653575651499 -0.32755442898276493 -0.6182083853947546 1.0297301585291105
P 7.014102789374051 4.001954324499657 6.173137217612997 1.0311216395599982 0.9320398083644722 1.0668136936449693
P 2.592383035500639 8.731877100531833 10.432272297337116 -1.238109328000584 -0.07744574098298919 -0.13670041287924845
