# total energy = -381167.4767906418 ev
CRYSTAL
PRIMVEC
9.25618221168180 0.00000000000000 0.00000000000000

0.00000000000000 9.25618221168180 0.00000000000000

0.00000000000000 0.00000000000000 13.54735829602981

PRIMCOORD
 96 1
Ni 8.73625298891026 8.084821413006651 4.3104984310202745 0.7454702785689226 -0.5348203107854015 1.5020880891142323
Ni 2.020022876002783 1.905024070992319 10.286631075149407 -1.0626441356483116 1.1019084804655732 0.0317189283698357
Ni 4.2563997497771835 0.6472792526640961 0.6175752390485874 -0.15659869446507224 -0.06337435049158763 -1.113614970269224
Ni 2.91153204411151 -0.016675937468355734 8.688340214089296 0.6158542833402812 0.1325233986834234 0.32579322331728405
Ni 9.283672847822352 7.145189354745848 9.804060027240476 0.08396888681348764 0.9186420469013277 0.450439790355792
Ni 7.397355520626407 9.342912412541201 0.2195131326838903 -0.254574179970297 -0.33212842150669253 0.5282987076167999
Ni 2.269837971658563 0.7472469437453508 12.672428643508717 -1.2777559958579285 0.6008470112981718 -0.1943013512221686
Ni 0.6929196348071736 5.451113671244552 6.971863644560486 -0.16729371228507317 -0.22271846891228095 -0.38405519228297086
Ni 4.118241977434445 8.911315158836443 2.929764871390133 0.8912798528382908 2.5327664704892254 -0.3826809376432635
Ni 0.19774999759530348 4.900620759912669 11.145709358429158 -0.6168302741003054 0.8713023812750994 0.5051096710948462
Ni 7.879102768338465 0.5522923131102181 10.62733354735688 -0.4368260562270993 -0.527513235601027 0.3399916263048532
Ni 7.317141447524293 3.497041091901424 2.6387134849808422 0.07814970902854929 0.34963660559378495 -0.5314151417585945
Ni 8.13335157516617 7.786966732836682 12.138663504264319 -0.27568653646888003 0.08842409437136385 -0.8550558375092501
Ni 9.012772169599458 0.4876443612561789 2.698769444950972 1.194025450307492 -1.382325075420271 -2.096669064898034
Ni 5.418994719748552 6.363773215194306 6.329217110981044 -0.06430586116692151 0.8053283883771357 1.0890061705816083
Ni 0.11064932509462216 0.24590806123893205 8.811539996340525 0.05699955731349538 0.4109766992641632 -1.0872693903961599
Ni 6.021118614205706 1.7817965201951278 6.0078600591270686 -0.016300022711604183 -0.06359906490788401 0.18526932292688736
Ni 4.100377546198917 3.6671604606463792 4.780239485076579 1.5194402072394348 1.1746020514755577 0.1892182802723064
Ni 8.477931462008133 2.135262341744917 0.8896320144016985 -0.3431625678336671 0.535589070630626 -0.21659075874798828
Ni 1.8256800789970118 7.4435716372890965 5.8331403679344165 -0.5623485981126572 0.14163256007354316 -2.2973043287580306
Ni 6.65360278558127 5.502328126180394 1.5382210168170003 -2.5940219748655973 0.39759102198587654 0.5581165623091807
Ni 6.737491562932351 8.539373998039963 5.555716858265058 -0.4444257229512282 -0.04554066474427641 -0.0704561970390335
Ni 3.3244966034757923 5.709722139788287 5.230174160916415 -0.5560686786412165 0.620964350873337 -0.5070451975546622
Ni 8.435658478872043 6.3811285564205305 0.4638245025300096 -0.7077167139692327 -3.3844850160951263 -0.8740465196791398
P 7.3501304801271 6.679048029864413 10.508035245813305 -0.6896488007239284 -1.2727924812050662 -0.7644925853076963
Ni 0.9870885033097934 3.756047576270613 5.2366229429069815 0.3616027768167256 0.16081581787021337 0.4785925986409241
P 6.481447056799105 0.32935624432741684 2.354016467505847 -0.23314480645192753 0.09459679884097902 0.3050601045349908
Ni 8.283607177366337 2.528187267106652 6.032002032986397 0.8374718058788996 -0.4663921999199903 -0.052926415685386266
P 4.551135096617427 7.82420435297167 4.794342203952459 0.2841408378838203 -0.6172606767695047 1.136146832823153
P 5.644382751139794 3.5332420196538328 9.038390504485763 0.17849600875879582 0.4627281208048418 -0.995260406887015
P 8.216684981598013 5.698855382135172 2.9505875783888076 0.7950804853968824 -0.08285971290970891 1.2276194842128534
Ni 7.83743143703155 7.429150505752851 7.722251210854135 1.032060863544816 0.364708669435559 -0.541463527133532
Ni 3.463505944561364 2.7632665210386183 8.645164753209441 -0.4091329611872051 0.2799877349473952 -0.4485739407916468
Ni 5.021969305766434 7.357174434619451 10.580635183612651 -0.07784220509045948 -0.6442477468813098 0.6974045334099473
Ni 2.8638349383308497 5.978299516332363 7.500332396471739 2.393758749633039 -1.1793981873126205 0.39647824853767205
Ni 4.940996225741359 4.182646491702218 6.99501613256537 0.3401384362953626 -0.8091001967147421 0.887687250391026
Ni 3.7442274318728055 1.6652056518828449 6.1940962919483455 -0.32698030164684977 0.6850802075166396 0.8221058649457906
Ni 5.0381861366082195 1.69078048271381 4.009476285374243 0.10524116592870261 -0.9336338923244694 -0.6102515924415233
Ni 2.3683144918216605 6.748349064403477 10.190932335200703 1.096289848727215 0.12532251005960998 -1.359265108277014
Ni 7.161267342857823 4.215978003038558 10.538178002455012 -0.1438334243796039 1.7960996491445456 0.911540917080172
Ni 7.644069795316435 7.702920600391816 2.2401635778254136 0.29054854118237705 0.24486543732296534 0.0610331039529207
Ni 3.6802209334304874 2.6644382659600025 11.941670662355577 1.045677425886986 -0.34959598216383664 -0.49899173112256634
Ni 0.30676468095096493 8.058283939249005 0.4553134431926689 1.514841789235475 5.24484681765285 -2.0900952683352583
Ni 0.10324530512296487 2.6569592709142476 3.208746196487958 1.2279737822284786 1.8706421004378107 -0.6706259797645224
Ni 2.450537156415024 4.645326004520396 11.429539997270142 1.8522391724505907 1.1772204629350114 -0.5659442858837156
Ni 7.394189906386744 4.2105075994840515 13.33996134797927 0.4585750178684167 -0.7485226922420012 -0.45114555817356494
Ni 9.049944996460535 2.5810863471641854 11.097480947802428 -0.9199576803889575 -0.03093165658184996 -1.2918700666618075
Ni 7.428261912282069 0.7097122001685696 7.3377503367190595 0.4068313096372219 -0.5953535922837682 1.1979409833118142
Ni 5.40003805903852 7.863580151145729 1.5495737240244483 1.041943926986483 -1.2397936576815423 -1.7982838012800577
Ni 5.922401433310938 2.2488634632752955 10.705257641035331 -0.10777318832193698 -2.2905659815929327 -1.0188726469893161
Ni 3.3327160930805326 3.7204205318014183 0.3787638925393336 -0.0774141164141054 0.9450447052645724 -0.30438261885199186
Ni 6.004642610268276 8.629473673504537 8.91581458890048 1.7945037654123352 0.21418394907870852 1.8083095609471758
Ni 4.400055694220391 5.062122623227429 9.82843248003129 -1.2962028897092064 -0.06619382221825373 0.016442204716423298
Ni 8.845568498180508 5.072156324501684 8.940592462462336 -1.810104705174386 -1.0348847061468565 -1.2593972908450828
Ni 3.9738085137043035 0.7637081377916007 10.532190178327417 0.31476576185852884 -0.9517761104511351 -0.02939285133982035
Ni 6.27496014902597 6.561031709526082 4.221952868511372 0.4545029046815721 -0.7325669402436932 -1.923308834703907
P 4.331310030600564 7.281616221056958 8.419276887990883 -0.480741783773443 -1.1570478446418784 1.1386554581776194
Ni 1.322402951982448 9.002544088503468 10.690965170428711 0.18126405842223622 -0.8418426812530858 0.7600309499919169
P 5.404018217293069 4.330828709137224 3.1606260831904778 -1.268843266749331 0.38036463080526106 -1.0125305068213724
Ni 3.4455767200519256 6.794666999068027 3.0900301087913866 -0.4479759021963317 -0.46710645237819554 -0.19872416288021258
P 8.97701553858244 8.885268262724125 6.433938777130986 1.1794850905994718 -0.6222108216859285 -0.7294610476248599
P 9.033987338714395 1.0422553479542207 12.579304047770687 0.7150767538787298 -0.8374324680005318 0.060325022142302565
P 2.742588210478945 3.664179970046462 6.570306403877377 -0.6232672879749008 0.42993292865169186 1.0375509401251097
Ni 1.4744912782161033 2.0322410362260452 0.9601178402351405 1.4495116005690973 -1.1442830887770423 2.986520669930231
Ni 1.8338347753278408 4.459100879117504 8.975436433935403 0.020317371401113397 0.07607585721865609 1.1148840667896347
Ni 6.481909865898471 3.794544037155877 4.98897749630903 0.30596307596523437 0.8038482042871834 -0.15906129707295188
Ni 1.162678275609254 5.93862752033471 3.879854564060211 0.5375266539729712 -1.6227142221394375 2.677305405576286
Ni 2.9369865445766403 0.01657134261189902 4.748606483134913 -0.7010454725966442 -0.03736712779454855 1.9397908915193305
Ni 6.029069674532814 1.9596170323535325 1.0445240381593128 0.887591091132794 1.9187924348907923 -0.41503724248678203
Ni 1.7265186013668525 0.5742572329661285 6.81326451991695 -0.7714039677155489 -0.19770832002118854 0.443019843742637
Ni 8.38551774104673 5.562622895645797 5.23518638346255 -0.2347445468388796 0.6945192414423522 -1.3932144686392651
Ni 2.5595749802256536 8.488677889295412 1.1753564680772863 -0.5810533736110122 -0.356089046087348 0.1663200355178942
Ni 0.6966054464745244 2.5118501058990317 8.034382626121348 0.5269604484213506 0.4336707984275693 -0.25054063333087173
Ni 5.661164209082805 0.12364870707761438 11.951506281335304 0.6076565780208373 -0.5598520569430487 0.6806352843714084
Ni 5.347370383530669 1.4991404908483363 8.228705985144947 0.020013209897133274 0.6604523816656303 0.778506383088285
Ni 2.9099492369916784 4.579708930412284 2.538097861160475 0.5502865247418006 -0.32066772916526065 0.8156619090926598
Ni 3.9801212298196558 2.4271652968970407 2.1175330507664043 -0.4740839121372932 0.2432081042252005 0.14439263931718357
Ni 0.6940877649739733 4.964923456178582 1.7906630169207813 -0.20486472856031168 -1.3662148001219696 -0.7366791626398538
Ni 3.5549107416861494 8.165664906483904 12.54418979578359 2.278205146034735 -0.4842053168420113 -0.5867853909987829
Ni 7.694441937691431 2.487043538173014 8.915963613430476 0.2342030725131128 0.05694890658121806 -0.3531639020207531
Ni 7.379500345572867 1.481683331620251 3.9298314674643477 -0.13911082209295397 -0.007896114918625111 1.0977476642196642
Ni 2.5693865331322128 2.40896764310997 4.058652529036476 -1.3912745713040748 -1.4773648753359396 -1.2469282118437943
Ni 1.7070158259195694 7.025358822738003 12.34353983637166 -1.4641000399062332 -0.48434518485398514 0.33556855753649306
Ni 4.812196453387801 8.815504419085693 7.096458333437204 -1.0403673265279825 0.4565286768623492 -3.2962979774352332
Ni 6.344649943208502 5.903842788426362 8.672111350210928 -0.30075582073268203 -0.662099173240434 0.016466373086139387
Ni 0.8863886482333415 7.276701188421691 2.3118434511352195 0.100881089187794 1.3218059349892912 0.5930606824845335
Ni 3.8171198650229505 6.320370977855761 0.7616865876455702 -0.48788405124517914 -0.7294016551418341 -0.7499969627946825
Ni 1.4662069953374517 7.606943249365294 7.919501374622123 -2.010651523085634 0.9932793719012442 2.3263181994918773
P 7.641468808177998 4.374841854486931 6.775426173570984 -0.09441219363399869 0.8719544130368015 2.142272721669762
Ni 1.3797172308479337 3.122045391049129 12.642665390328489 -0.7829348511732839 -0.5029563721972693 -0.5522130523405522
P 1.0019909563093787 5.143114215616479 13.167489983391334 -0.20657759748636034 0.5227158142123837 0.5742445782192949
Ni 5.061585764672165 5.229715054289844 12.25144452807062 -0.3295395777335937 -0.9430700980367047 -0.027576109846055737
P 5.655721574074262 7.135544413115061 12.972137336930746 -0.1340820014197949 1.1920904380683082 0.3196434016658043
P 5.808642956686776 3.016219462388099 12.558333241860215 -0.5601572468882934 0.8745581692082357 1.733381701290034
P 2.058547105434009 0.5844390331521805 2.882159401811147 -1.1213174811198046 0.5773625550229864 -1.1047845164617875
Ni 0.7317206240798203 1.2083297651707163 4.8121029659497285 -1.1270297010132333 -1.4327366951036034 0.564329375988112
