# total energy = -340860.8367386847 ev
CRYSTAL
PRIMVEC
9.28147643746279 0.00000000000000 0.00000000000000

0.00000000000000 9.28147643746279 0.00000000000000

0.00000000000000 0.00000000000000 13.58437895224201

PRIMCOORD
 96 1
Ni 2.1605234502870183 5.554657174315961 0.248259995342911 -1.7032689410650539 0.6202914931760285 0.6150071048486375
Ni 6.576881829226696 7.643601880698428 10.704816481171731 1.12110459377805 1.2215542518553801 -0.44122469951542725
Ni 7.812534027716936 2.5746257892451907 2.8283896999324223 1.5677095837687838 -1.1600298100883375 1.3904759866621796
Ni 4.938255781656597 3.0222064125995924 9.681776912656895 -0.8797631104479429 -0.49385878077137535 0.7193987782928514
Ni 0.18684446779928918 4.490805098967997 4.499295793330535 0.055837932905226415 1.1710199905512542 -1.449973370696864
Ni 1.7303084687694184 0.12503262122497175 11.201868300439727 -0.42800254439819835 -1.3574275408476428 0.5434201366392706
Ni 0.5609603512997877 7.075250689957356 4.028868816485333 -2.77424885027257 0.5609586597436662 -0.00695560538222673
Ni 5.0896180943634715 5.04550323832375 1.8979690535582932 -0.7805694362649008 1.0704132380707694 -1.5926073754517283
Ni 0.8649036345292342 1.8756285405165072 0.2593077363789051 0.3210631648314664 -0.18735525892163862 1.6958849898961565
Ni 5.262782594496666 2.8108300752445308 3.1537490611812364 -2.121343941936895 -1.08598229615362 1.4434980473851657
Ni 2.3637413701249503 0.20891303359050414 1.6406122834616412 -1.1187893153813118 0.7438934210001059 0.4916018664163985
Ni 0.2795097973206381 1.3244759250419187 9.772805917936754 0.6876950194316673 0.4141520116683512 -0.05770429669000385
Ni 6.180349324580156 0.5874626782376838 11.474670374962152 -0.27056464186128243 -0.8413024924788994 0.6734595925585757
Ni 1.7208228001658847 4.716846168606408 11.626190472763215 0.5316239153352909 0.15987222301002144 -0.2645770568192798
Ni 9.256908061389428 2.223999465531212 4.860151231885957 -0.0820950668295425 -1.7852272252064156 0.5430941207584195
Ni 4.307867204471279 8.543236798901265 0.9107587673430869 -0.8608647308815431 0.5108884825601524 1.7411788287369496
Ni 3.1686773873866403 7.08565522469763 12.518113412450713 -0.788477635368384 0.37228056824554595 0.10677662873662255
Ni 5.232422886079681 2.4813005467710916 12.307569623504397 -5.557815121291325 0.5160067776233241 0.8303637340792086
Ni 0.7829871825125351 7.4721730166013005 1.584047255342879 0.4997931439779392 -1.1643541484953044 0.562819881322121
Ni 5.001230597189841 0.3587114175696917 9.092771653086622 0.9306164456543844 0.8944399957338274 -0.7595745791807886
Ni 6.517870204000408 3.7202755137154067 7.975578934427007 -0.48897394187524823 0.3109021651380645 -0.0992569233208097
Ni 8.675200826499154 5.615237369008001 2.2388823125035855 -1.0528016956365933 0.23413468116902258 -0.48846512055962976
Ni 0.16100576640459538 3.6373733689338397 9.961777700064742 -1.4521073863207314 1.176178137713426 0.3782720099422905
Ni 1.1277086311134341 7.834726037140663 8.340346515170678 0.6579334718985186 -1.8267441135032796 0.7247335602422035
P 1.3432709142025405 2.4826556422858816 12.035202850212407 0.08887120921111147 1.1313717800320127 -3.232257968335188
P 5.002195870707226 7.6120634248130985 4.873735600347924 0.21045276417105044 -0.09499223450718479 0.8304035861782086
P 2.1221259835425776 7.1643064534122525 10.456833073817457 -0.5798328709403499 -0.22503220464712215 -0.26268318223067666
P 5.169448070546438 8.159577701645237 12.63387940790879 0.4800648123110764 1.9695570670381692 -0.6594576218525288
P 3.091334846806166 6.716465948726247 1.9286424758684277 0.30979607655807934 0.6507832340069825 0.05772615106687478
P 8.90010955604986 3.8346789884777888 6.515420822450044 -0.42000384246343797 -0.5619379929377999 -0.5775849554464375
P 7.65160251312137 0.1349767947492632 9.853863833411548 0.3718473373628693 -0.8949164211496136 -0.7144959416745953
P 7.0459676327713 2.168486956805445 12.97593428841791 3.93456945212845 -0.404706035764103 -0.14475002265660233
Ni 6.9182730841926166 6.435886925355582 4.101572475296682 1.17760175753383 0.33426577956466946 -0.24530689573575817
Ni 6.556573959457096 3.775305385682481 11.310788279105271 1.695331688495848 3.1636709632944093 0.25664648911829346
Ni 7.368081261817907 9.14719173207204 4.950405233909068 0.2362617548143544 -1.1521861456742029 -0.2514572316078702
Ni 6.252373579338885 2.986760455264079 1.1888819121300969 -0.8353714717064451 -1.7914490377464112 -2.1428177955399548
Ni 5.440949810263231 6.19884730650466 12.107566806997447 0.056412574461773814 -3.1312192705236073 -0.09987501652078282
Ni 5.275396120555572 7.304967224142732 2.8174542647575858 -2.1573558412551295 0.4898257483525822 -0.5334992779811327
Ni 6.39386040144482 5.682258908133358 9.699395938792012 -3.391173740969211 -1.2844220950241945 1.6413470067492766
Ni 7.655194444383178 7.979229338988425 2.564635208340256 0.41447211401193135 0.850777007628238 -0.4935949855870273
Ni 2.4330647153302265 2.8550284645694104 9.972944243995183 -0.3101190071151369 0.4903754502084652 0.23700891739302407
Ni 3.833258922630097 7.317042424586174 8.471829762305097 -0.8440458595519915 -0.44939617958262607 -0.9361618009526459
Ni 3.4918676676641764 0.6639383289477376 12.743763731944107 0.4583299917371461 0.43356692585985335 0.07888118787793512
Ni 3.4520408535959155 8.425956066538987 6.132327895237864 0.5077208834654482 0.23027519821361633 0.6288884908164202
Ni 1.052964903848996 2.8826594190045567 7.879537003890036 1.3933502228861812 -0.5449113764728164 -0.6606303020043913
Ni 9.202249448467501 7.728527387276053 10.423334370173743 0.7446961194070595 2.04203903625798 -0.4089586403928699
Ni 1.752899581666679 5.1390512362249385 8.711648255108953 0.0710866315341808 0.8708627226345195 0.3849316813506532
Ni 7.941899241998786 7.706558133279415 8.144460033326805 2.9154546072213403 3.465619775893928 2.6301912256973026
Ni 2.628996676407128 0.283186190015217 8.489203757470413 -0.5272898067363112 -0.4638552924307495 0.7595010456303759
Ni 9.0135291943426 0.2811368400859996 7.858875509879932 0.8692799515284318 0.9238642145322153 -1.5275109000627112
Ni 6.0956280104773635 7.2315507479646985 0.7327372707517419 2.3250303339183893 -1.6316845439588479 -0.7579329298123075
Ni 5.144499462712487 3.6173810693526147 5.99735388493144 -1.7898737228394919 -0.2294676147106564 1.647220691921234
Ni 2.8502206599347426 3.3573233897025108 0.5231123479421663 -0.38271461909467636 -2.156858589903737 -2.141324755934196
Ni 6.777268898845374 4.93359648063999 0.17354318435924618 1.6230564359702047 0.9006301837049393 -0.6971250544963156
Ni 7.174181944013191 0.12683694018439146 0.6123555972148628 -1.6961981502612014 2.0378419674574966 0.8795095996762401
Ni 4.384671419436289 0.22317866240031928 3.672836032926384 0.08009680545259108 0.587515070075956 -0.3847470761436729
P 5.6872894681951145 1.4645055553956474 7.001456457700884 -0.220771115377923 0.1265756657404207 0.15326783031962637
P 3.3377394750709493 3.706705995615244 4.720381482863831 -1.1094644384359602 0.10317759853145457 -0.6404129465162518
P 3.9175068814503264 4.513331241532358 12.645140622895742 0.257457415055363 1.240061052410316 -1.07273365867383
P 0.6259538878910244 3.9201613836231353 2.228123225375194 1.1241567503408125 -1.8931636785790944 0.25944719179188225
P 4.061109880113605 1.7827580903727138 1.1944350192978994 0.23988598183050297 -1.2273808858394861 0.30129935194097784
P 1.7819970093301603 0.9990209645889795 6.59654742084819 1.287194515563009 2.5468892830438525 0.49733954023112414
P 0.9679558639862137 0.18998439117362909 3.7437734268304417 -0.2977208905611001 0.17535977712265927 -0.2738713376370122
P 9.042821533004785 6.015909412007941 13.36083431903235 0.022939896625625008 -0.3894131141607745 0.7043891922578966
Ni 1.803103086046829 4.6157894565171 6.3259329902493 1.9573211870936098 -1.4647919237669356 -0.6282860813457308
Ni 2.0759970471829283 2.2241108432447563 3.3409555065495447 0.23532715881522695 0.26536201461442044 -0.12229529319751198
Ni 4.214560524949437 7.9451013512631885 10.662990437145348 -0.15488222599459778 2.0544654349467906 -0.10335937552495747
Ni 5.833853257743449 8.022072632798515 7.457647506459883 -1.1053123639407996 1.7116332538693488 -1.2534541858877704
Ni 7.01507888021498 4.679265471761294 5.460811241031042 1.8286948094717472 -0.6750246230528504 0.8964667963558689
Ni 1.0234590912358523 8.509656418267621 6.0043632557038356 -1.1846787189852692 -1.001839088545797 -1.5407610802043978
Ni 3.7008586656541613 5.646729417512686 10.292408011607046 0.4178119770184417 -1.977272433404556 0.06555078931761614
Ni 8.197770975914846 2.321946883117405 8.038487851479736 -0.03924403310228726 -0.0023489598481507934 -1.7537504947543732
Ni 2.452713600294689 5.92324315433898 4.209133645856985 0.6130862336768409 -3.212158626482152 1.289629607367063
Ni 8.742175958243868 0.6836781723782612 11.84916401454109 0.056689225161928175 2.0627485008911894 0.755090832377822
Ni 8.132782080061673 8.096389412161033 12.757864150478829 0.17664584292393448 -3.7449415951225506 -0.20164545029206563
Ni 6.587917504343722 2.085575530547749 5.066443176617715 0.6678466172471724 -0.5501556555908913 0.012076471548559847
Ni 3.4176529845390746 2.2912716045120445 7.811139950002405 1.1976476204411115 1.254831268740955 -0.7101903723207058
Ni 3.9231407374604483 1.689711292182475 5.417762826598508 -0.9042911774962943 -0.6171228656400598 0.28917068699824394
Ni 2.6403572031886595 8.001115059699906 3.8196829074966447 0.5928207985595856 2.0978692558537224 -1.3294899338971102
Ni 0.26431602089795275 6.231332472955117 6.490004428219206 0.16662316858060983 -1.6856748821323742 1.1030148261558745
Ni 8.974268550318191 0.790896856469415 1.8483716295693475 0.868004427250118 -1.4572125687577806 1.8203011860914133
Ni 2.8213367062222217 4.570161719868401 2.2447639839263442 -0.44495794130561434 0.09174621676606136 3.496011243701592
Ni 8.42707912515056 5.8617626564624565 11.198798916283966 -0.8135469196321861 -1.684102652549248 1.8526963145926674
Ni 8.892368804958524 3.802769273547311 12.567126103443549 -1.0105787824116403 -0.38008258078846796 0.4329552604177834
Ni 7.001611458352233 6.079329738395363 7.611082372786295 -2.3247989346338738 -5.2723103131804425 -4.139197124977291
Ni 7.167415747915368 2.221697659451294 9.919340006761479 -0.003292297598026588 -0.841473213728809 0.39844617089732026
Ni 4.77590420121334 5.969279275937342 6.552357384851827 -0.628602327034569 0.5436191400239541 -0.19446410205227802
Ni 4.8989023228709 5.154096509029564 4.2675187714445855 -0.28891614778527663 0.521380897451044 -0.49523920605866967
P 3.439752179201514 1.0427552801074238 10.432069167358463 2.1569421507564788 0.4178754832665255 0.3135354889958536
P 7.929703382365671 7.1399797044789235 5.8571497628264915 -1.9949084013187643 2.4445925444554546 -0.807948599608802
P 4.597393570830013 4.650242295906843 8.27428560882464 -0.7553309734130862 0.5765056063393298 0.6948362584621388
P 8.308601082367677 5.468246631557745 9.1447729793929 2.988668312400853 -0.6650554276552805 -0.40171789967005656
P 6.328611624260043 0.5618643670747234 2.9530946850500506 2.100730122341285 0.47735512668939734 -0.13793325684508503
P 2.327395109604953 6.680750828583002 6.852421939207088 0.9385464991347384 -0.08656724366828317 0.374298112896207
P 0.7204653030143721 8.88890681436252 0.10838536564053168 -0.18430233102792776 1.8917344023317355 -1.684552852712789
P 6.810728620289345 4.351295231277476 2.7971733112687587 0.5270630354374858 2.593797517559617 1.3217501420506914
