# total energy = -340884.9766065755 ev
CRYSTAL
PRIMVEC
9.15218685766310 0.00000000000000 0.00000000000000

0.00000000000000 9.15218685766310 0.00000000000000

0.00000000000000 0.00000000000000 13.39515058341601

PRIMCOORD
 96 1
Ni 5.366037078403738 2.7809652447325024 10.215771830223694 0.41715300327820415 1.5183978820178494 -0.9738642005994261
Ni 4.550449083948787 0.652686387177726 6.267176056284042 -0.3583462175526409 -1.3661973166204728 1.2545744155351426
Ni 3.518640671052311 3.3640785365913373 3.6538624038942102 -0.9120787918615131 -1.1838477384435417 -1.274749347821121
Ni 5.4691822261639915 4.639353428699729 3.1859156574516265 -0.5979000128547057 0.5569004305138925 0.637396014066799
Ni 5.128171737650498 4.996123983268515 12.344073568246031 -0.6093666187334087 0.20496294470107282 -0.3107797806275873
Ni 6.356953519677071 5.9623295195771036 5.057285303493667 -1.3451397246192254 0.3918191524991058 1.2876130911576664
Ni 3.5076580466235354 2.830981946818553 7.233769645322448 0.6382624758321523 -0.23512918387180798 1.2237520308376473
Ni 5.378291856828847 8.347645719262953 13.201175883041754 0.26573919544818103 0.16198592691891456 -0.3797002577483848
Ni 2.206628900229664 5.668599229229491 11.974514662748636 0.332315340706518 -0.03520842958033291 0.1130910009904246
Ni 8.267573234990152 7.644016428672349 9.519960337788973 -0.5315079585827168 0.9686422900788544 0.93922115660426
Ni 7.952802066674409 9.133434192767824 7.391805949977724 0.2049485465233696 -0.10218566693183048 0.14845009721600885
Ni 8.439451307300496 2.395072431053411 1.686034197931636 1.3630685411835042 1.7804454875470561 1.252501335056198
Ni 1.3327231700579136 1.426240217068941 2.9703212486025405 -0.5392526355251422 0.8358460973500186 0.6565869851729532
Ni 2.0995666164231466 6.55781656829236 1.0410173434800052 -0.7292846699479957 1.9564315853998047 -2.450958081662166
Ni 7.525458997963714 4.015348165217751 4.5519537034955295 1.6700477171180785 0.06901355105523597 -0.018013405858285102
Ni 7.766847930721184 4.195014748685502 13.236833718905881 0.7439967793471897 0.24384239537508973 -1.2280097776727368
Ni 4.911512014231821 0.5935211589425051 10.59245662853796 -1.4250131012071006 -0.76718735853104 1.088641588153338
Ni 0.6965171260542684 0.2581639763537243 0.5880005597296404 -1.3277791218535908 -0.2340282374981453 0.8759213681043495
Ni 3.456634603964847 4.5362082809394755 9.969984356382499 -0.03931396710827423 1.226035170444869 -0.023044026303657088
Ni 0.13646276940235078 5.253309590829377 1.8114127536292446 0.18935814828428035 -1.3803928913945647 0.22328205472523482
Ni 6.410475509393307 2.0210683083184704 7.323102312426111 -0.4811295061301649 0.8497459952605624 0.785240616488325
Ni 3.6820346659914254 4.494904460900253 0.735671097361557 -1.2955878818330269 0.7380032807679161 0.16019875311150475
Ni 0.49422725148194174 0.36710794981237216 5.261736009422355 -0.5070238573984235 -1.2835589756929506 -0.5283347030610579
Ni 7.337088684636158 0.7434330671765944 0.6771373700309907 -1.674136542475472 -1.7772442070009393 -0.2248270306148515
P 0.16764793146786008 5.8978798185542365 12.892028733652248 0.5651068775840848 0.6401974880713361 1.940313853902336
P 3.835846321116432 6.775894880699754 13.042443096953953 0.3688314333546809 -1.1271770252243747 0.6635181650751476
P 2.3283346832745497 8.880348764993705 2.1282349270570613 -0.09561572702379663 -1.0642479898003219 -0.47723814149555877
P 5.945416277956789 7.892516610747453 6.280785358388701 0.6366568219079294 -0.005539955981622717 -0.37983061267866197
P 4.441007231516036 1.2907329359918935 13.132485058551973 0.6371985533440123 -1.2343832852992485 -0.37858979829302536
P 3.7888681451223434 6.323694472031929 8.593457904009114 0.0948942754767398 0.5516366110117918 1.4039657936184984
P 4.5723594196841955 1.2506555090138853 4.174692317398755 0.540463882224424 0.7779679940863118 -0.7724696899759019
P 0.21006831832400719 5.669981209470112 4.3057644486439814 -0.5094463507969872 0.03213776107480917 -1.5006423578066412
Ni 2.516906344716632 1.6419755695981966 5.256484484507995 0.28862124225267716 1.3743793382106329 -0.4061250275988167
Ni 1.6516402790955194 7.027781371973731 5.349822148653352 -0.0951801821482748 -0.4267668722188844 -0.7924417622224547
Ni 6.955909247274416 0.7748195773566313 9.499037523033454 -1.8329744106837076 -0.9586211583974266 0.03061721066522469
Ni 8.083312253636363 2.575132558563193 10.639674591832076 0.008523978310611127 0.6840610222235057 0.5792898539526862
Ni 2.8127507902667848 4.654317254483936 5.6315896153419205 -0.21530443583639694 -0.022254183412510058 0.2597760358862107
Ni 1.4151477663958774 6.849423551250409 9.91099210448203 1.244949490850869 -0.13511198534620603 -0.9835603448412674
Ni 1.4221674938432698 1.4493677936785383 11.962472215062483 0.024038014785810215 0.7925271228474092 -0.4949931514861346
Ni 4.278665738084679 7.116090824568114 2.2261001781231813 -1.6873831230727325 0.4957673106479978 0.9569967354201259
Ni 5.571595198962328 8.219203926568419 8.389168276572047 -1.057969870101094 0.18394160525439934 0.6443593327585097
Ni 6.740366090672665 0.5299372548121067 5.298438109825919 0.5985019081047629 1.501277677397795 -0.6073855837476378
Ni 8.03784418850123 7.613393210890113 5.50930541407712 1.264882225219054 -0.3251926136188077 -1.2873112436465313
Ni 4.994751155214919 4.597308281511565 7.8484195432285135 -0.15929295346778374 -0.06800259329221837 0.0350662475755138
Ni 0.6944130382574554 7.618911979665572 7.417377160522724 -0.3128711159389773 0.6294510481881095 0.7419131573452835
Ni 6.357749759948158 2.319521127170457 12.395698309592195 -0.5955482247930776 -0.01700296231589975 0.09560775660399663
Ni 0.743441304144916 7.3820259229239 2.9747417549351227 0.6622128160001628 0.06511447311114593 0.2559327508807205
Ni 7.240350067792689 6.605838093607183 7.566076403976136 -0.13130623844687064 -1.4424307824629157 0.08008112172330724
Ni 2.68430899757225 5.450676504001504 2.7806192920629957 -0.2859503802887333 -0.5739715270635664 3.146344041980188
Ni 1.443080241193064 1.4152301360790929 7.615116567706728 -0.4584814297133458 -0.2382075656868156 -0.5803926000985618
Ni 0.9851048025131068 3.437424163401513 4.488460406016669 -0.9740174383478386 0.5213654708320763 -0.11254489867896746
Ni 0.6249753953065195 7.823481664025573 11.882744768240487 -0.3267226771100889 0.3721471279914752 1.2153982595563133
Ni 1.9087618213472122 5.481006851798974 7.832131395981936 0.5687611865072204 -0.3417775145606824 0.46714733291846
Ni 6.397433642884136 2.4154726559298627 3.215023273062693 -1.0998066036312222 -1.527190283498499 -0.10775570482044024
Ni 3.7034690880015866 7.098802343279815 6.5834088288675146 0.9385608973124417 0.03732419037175507 -0.701654566935553
Ni 8.393992394352388 7.296041125833607 0.8717284248787456 0.7286172115673258 1.4301121129965628 0.2983122442881959
P 8.981333996616302 5.771854203234033 8.788692357604655 0.5829580468328928 -0.0629262072105755 -0.4020629417143011
P 8.374983301903582 1.810165310537876 8.581897776579124 1.7452686825356072 1.5632718597124045 -1.6497779111254491
P 1.7112759297437727 3.636539144295221 11.002990790560414 1.2177379634330832 -0.8677336900872346 0.8818133081087522
P 4.095155236066857 5.88390442896862 4.582038772680757 0.737477233061117 1.080605862333055 -1.510228715943496
P 6.698522291599028 4.382250190822084 11.077240653448557 1.199846170754327 -0.6327716279209104 -0.041404788199031914
P 6.404462522518552 8.08015474911309 10.773010058928332 -0.5436541070269475 -1.1261262153623572 0.22824582648841338
P 2.379376430307286 8.975385075050715 6.313857701418555 -0.6738825390286072 -1.0157729250180698 0.20834086003437022
P 6.77719449125716 3.8906587692030485 1.625622441823749 -0.25152716561385713 0.6896284890089542 0.8719623834566014
Ni 2.591075668358966 1.7553437102642362 0.887040033769864 0.4003747553786008 1.1429296600729413 0.32140563577254966
Ni 0.6368814754060149 3.5902473823279304 9.081979682100306 0.28244390979737166 -0.30000145906516074 -1.2932926580409467
Ni 0.7974199879936474 0.5905906286574268 9.621923938204432 -1.2236185905835764 -0.6032718186895805 0.6239339750246222
Ni 2.9519921636496163 2.3068911090773643 9.79312749433111 -0.6553220024176004 -2.1349687318091815 -0.7236567822382569
Ni 5.015306967270777 2.723150879302021 1.1981402598702884 0.034694723168707996 -0.2943296054913641 0.5964699652763986
Ni 4.087787725512553 7.417060494851694 10.828238016305837 -0.8540867887277613 0.2839570040077884 0.05496247227880858
Ni 7.1423942100750315 6.5038644257859985 12.499028331530333 -0.5383938870692727 0.20434408017015132 -2.0629788717344404
Ni 7.34652458945788 4.299587637621497 8.78034739347619 0.003334206579555548 -0.5731359185361484 -0.11813833360634493
Ni 2.779445981686522 8.860140736044759 13.18795463366691 1.400116852186053 -1.5949961873988787 -0.9642878697649007
Ni 9.136225609810138 4.836793559368049 11.106254001533276 -1.4748310531704922 0.5482746365180945 -1.0198776912150629
Ni 8.492927536081611 2.126657090014127 6.266586655439698 0.6409271671485092 1.4242654244077986 0.07568170710403095
Ni 3.6891825240571534 2.9746346743469423 12.084529442089089 -0.5542812477234905 0.4732637302288431 -0.07597584130568205
Ni 1.1922370992398212 3.7060774613034204 13.322870683462211 -0.5684289999787823 -0.012896910567326177 -0.8691591096798515
Ni 2.898058325517302 8.607567830743983 8.393079921306096 0.45632555971260763 0.0336912216048581 1.226069109006598
Ni 5.774325293730508 8.099529929042856 3.8951762887180847 -0.3871258607884946 -0.0864803403814317 0.0892609884503624
Ni 3.2669372235188145 8.60581061083538 4.237796646929096 -0.2251697586662509 -0.5636063817791583 -0.6739218769069749
Ni 4.906313572002201 3.057480271288009 5.482166433894912 1.4953541128245087 0.4848120971880747 -0.5550623488638892
Ni 5.553958934567118 5.829485524924035 9.926959009964065 1.313071897550403 0.787446108780076 -0.43955811044628174
Ni 8.320939637526978 9.121051283724379 2.9230630156855177 -0.5767110374819164 0.15960508539156384 -0.0931155863097622
Ni 4.548042058761481 0.2820493540489072 2.099020230857815 0.2910655900281116 1.2758510655257318 -0.3376483228836572
Ni 5.690363129972516 5.903938566364112 1.2222782379273331 2.2137699583788004 -0.37885693591148306 -2.2386284121833766
Ni 7.952381066071307 0.24457206340441165 11.535127315914382 0.6412981773346826 -0.04762814340092442 1.327991494974713
Ni 9.198771655932017 5.3713453468776455 6.3910142989055165 -1.0020218939805645 -1.1367335585645584 0.2582261749005875
Ni 7.465567086078789 6.54861862033326 2.982738020737974 0.32261122604487663 -0.7539639178622306 0.628264484079176
P 8.261962944344452 1.8264928121886563 4.0232867722423515 1.7431148694173981 0.2974254708078684 0.7208722775145843
P 1.8829160451914928 3.5964525651301886 1.9622023565989337 0.13590208534766918 -0.626130982675941 1.19654461718492
P 4.643444456299448 1.502807413711557 8.506242137764096 0.20413427815219037 -1.0634378351942009 0.7139092159331899
P 8.609617920637355 2.0455870173557127 12.913354244636823 0.6396087054474017 -0.4147083983924535 -0.9278643368305439
P 6.55616002244102 8.16445554379097 1.8039253494249268 -0.731262876720289 -0.46312432780199597 -0.17808488936330621
P 1.5523207455112888 3.404091898260178 6.914657594701231 -1.8591312715847337 0.7706110395006083 -1.0844643168471968
P 6.576514486382351 4.162799050361093 6.488664473576573 0.8164730921400454 0.038767093465868714 0.19252831848214583
P 2.2866647757543688 8.8283643426975 10.773840162291409 0.8165612809784775 -0.22377030721556304 0.5768131102774195
