# total energy = -340865.42946380837 ev
CRYSTAL
PRIMVEC
9.24743569907218 0.00000000000000 0.00000000000000

0.00000000000000 9.24743569907218 0.00000000000000

0.00000000000000 0.00000000000000 13.53455689071713

PRIMCOORD
 96 1
Ni 8.059611872228398 0.7356131692690964 2.1468920808375445 -0.7252148707539963 3.605587546670539 -1.990350863855069
Ni 0.5841290748198354 1.8466296916384253 0.7231420774214739 -0.9382351385419068 0.48303289380046494 0.8499491124103038
Ni 3.6450155109877755 6.657904056657495 10.454078152356258 -0.9923707440440457 1.3628931919479044 -1.7973294077865885
Ni 5.306668745390554 -0.1075495272180179 9.970393799870465 -1.3550112180966662 3.110010754766792 -0.49813221133574853
Ni 3.7670724154047774 1.2354666631575046 8.765858884541162 -1.175254340347576 -2.016284810112012 -2.109695044844057
Ni 0.31989746951949366 3.3441686838494826 6.984507766580293 1.069424134684623 0.09943612921115133 -0.4746559825906793
Ni 4.162104375620362 3.208305357863075 12.514945037419151 -0.31884764523738635 0.602827017842678 1.5305417164692352
Ni 2.3880485597198438 5.565596946290324 2.938325546502758 1.2476383505369415 0.5877125307987427 -1.0566575790475736
Ni 1.5960334303461803 5.484062305314136 7.143322303345741 1.2253342877231026 -0.22556673699435348 0.8611874043282847
Ni 3.9248059269314695 8.176758388264052 4.049363337974304 0.7537152921865342 0.19535318952545067 1.2827706754637005
Ni 7.412337607157707 7.974507721054092 10.680754996346812 0.5937957608783451 0.757244131275399 -0.2126808821706208
Ni 4.71556340504362 0.10090339514706559 1.7343861660355244 -1.3098737023280795 1.1478093567627456 0.7729872530422688
Ni 4.6301633359254275 6.3144357981639505 2.603466650689131 1.079230322141767 -0.5526575960771385 0.47819562031282165
Ni 3.6508598903795133 4.7960068486017295 0.8150172010493093 -0.32441254091967353 -0.24287206104202044 1.0207284692511325
Ni 4.51881496210278 2.6578979822361357 10.199695990869428 1.26043550230161 1.5417360425231577 0.14495159714444714
Ni 0.06174327899169936 2.4567107701370148 9.317040270540076 0.43212453698637193 1.3700873957034985 -0.34875188899598647
Ni 6.23949457887496 1.5918813316960374 7.817817320279596 -0.1403950881220163 -1.179235436482511 0.8624624143859663
Ni 2.4431355344612693 3.2142144693050376 8.537868904674617 -0.5218413820272302 1.0314440558964237 -0.40074216602034857
Ni 1.3042028530606469 7.257165635332774 9.59156149759546 1.041938527669844 -1.2792269239765002 0.7628313955551894
Ni 6.062979525347289 1.5934718906444219 11.545599230684983 0.7158781667341025 0.006993143488381505 1.3516003926429043
Ni 5.658496685798863 7.5272092539997395 0.8140693388853012 -1.1206579931589344 -2.515786905212093 -0.27760843608194125
Ni 1.0506381648938012 8.955549684520333 2.2828876451551263 -2.3396048892984544 2.3183014998349876 2.5960922271310647
Ni 7.559436567576015 3.451799588502069 1.3444144026603813 -0.06619022267382794 -1.2390837760987112 1.2286327559687162
Ni 1.1217232034765343 3.6007665309411543 11.286737611322586 -1.2559754096477271 4.18022884610762 -0.48558985589436376
P 8.970770963758941 2.2875104382847615 3.3654350118355256 0.32257908725536055 -0.7208290829814747 -0.748975977729336
P 1.3230491271118516 1.2075024174603295 7.704207948416949 0.48082945839124286 0.513500980482335 -0.3091838968953772
P 2.0029390980601685 2.171797274789804 12.633358452152065 1.815259509902448 -0.31683961366842206 3.3900162303260006
P 7.034431897944493 -0.09378379436589658 5.884473498903413 0.06028439871235425 0.2745408529002111 0.1479351052528033
P 8.006577828222678 3.943106602273635 11.234616289225038 2.1186280856676287 -0.034196700486366916 1.3647207320749464
P 3.735344463358809 4.537541019489281 11.035806592856323 -0.3279053845642804 0.42907006643076423 -2.352962027331651
P 6.82653104749347 5.373342757122245 8.703815988631279 -0.6401807759007878 -0.022149539513845722 -0.2358118117611294
P 1.351743920232994 5.649341724409907 0.7575490116031801 -0.03837268624092746 -0.6088811944565579 0.07384182568181477
Ni 7.688299584702382 1.0519050635910607 10.030473465171385 -0.15998946531417607 -0.2289377103491154 -0.4307561958839356
Ni 0.6734602288738305 4.093543886996401 2.758397264441083 1.514945918913507 -0.9581154224056015 -2.29061663232521
Ni 4.7093583756577715 5.001105726021587 8.889537789188086 -1.3218046494377107 -1.4905559201049168 0.33105370038527504
Ni 7.718862359844302 5.876005621990416 1.1780548830694284 -0.21120275496319754 1.1064822158791847 0.08766690449036514
Ni 5.668946288192318 2.0576746702432303 0.6235055809716679 -0.07594601650901114 -0.37148558314807634 0.0246692206119059
Ni 5.284558126520864 4.74082739950284 6.614581669672666 -2.3952857278005264 1.2042314443062163 1.553767776876711
Ni 8.132398438988472 4.424028745701972 3.8467242784629945 -2.3457074026517666 -0.29511944838251114 -1.2828100133420681
Ni 3.1348807180364973 0.9012846796405154 5.5602935418897514 0.22097988895461942 -0.48987022843727246 -0.8501339747276004
Ni 2.2731676654420636 0.1372707857070129 0.4426987925140826 -0.0627058636696533 1.161291964630213 0.7191789489725614
Ni 8.63253675389787 5.803838633425351 7.721397081982396 -0.17829314871937035 0.008493639293307952 0.0729671363863453
Ni 3.984387155445656 3.78349586129042 2.901334878773502 1.0937388001705872 -1.1092384384680831 0.6184140736476575
Ni 5.522938525192087 2.3476557603794794 5.539910344017492 -1.0157158465278895 -1.3014803360580618 -0.0810393718715185
Ni 6.314990644308736 2.071832494371 3.125575948188449 -0.4709214552489116 0.7454512524055291 -0.18507571885884255
Ni 6.408325013297357 3.830787247697614 12.667519404542917 0.12019135948063173 0.7458718848827155 0.5276849852922009
Ni 2.072211639236603 8.229810927141264 11.979964234104392 1.2600470086139397 0.4492547689087553 -1.426791533263762
Ni 1.998555813516365 8.417487635614867 6.922465795413984 0.3469883693376604 0.09126979135027506 0.8826710281233572
Ni 7.274708020943732 3.796248075184734 6.932088677051709 0.2617992369638265 -0.36401961378833436 1.0629156441421435
Ni 2.7209654940267223 7.6768697541198065 2.222414963834985 1.018406505986175 -0.4677361155423944 -2.104046845419344
Ni 5.736600528113129 4.415613579172729 4.587497516878593 1.0945214439728828 0.21365867270285785 -3.666107715542783
Ni 0.7101919684021868 1.1099974549500733 5.066593291747012 1.8269192056285632 1.076876734307926 1.1139777529252815
Ni 6.314953654565751 7.0530562335377835 6.678978962723587 0.5905404871658411 0.1641474533466076 -0.1930991033839513
Ni 3.816361247933198 6.03804843857494 12.55439829728768 0.21539031068198392 0.3948440553683587 1.19157030389878
Ni 8.47263009497077 9.07754185688711 4.195671642636293 -0.23384054696737144 -1.7024981243373 1.0803649499668426
Ni 0.31189566336811614 7.648979487908603 0.5910609526553522 1.836679884559753 -1.450539527612979 -3.016934249225082
P 2.8638198814374243 8.748915732766571 9.909149882409073 1.3971387433943359 0.22923955786025035 0.05837998260078978
P 4.581984195686577 2.757298669074408 7.3934820856707555 -1.3992347066914161 1.4952062743927346 1.162051725614373
P 3.7550969861131636 6.662555516837945 7.589082921835464 -0.5198505768494467 0.1735687466605075 -0.5225268381300291
P 3.740162377382694 8.028891890678791 13.387517353810608 1.7160290689441995 0.37342393782136973 0.6391947578384346
P 8.592116212250268 5.041507772797697 5.68375605654021 1.0623001220453319 0.8923347764653665 1.6077290615845152
P 4.760376478670772 0.9010220524653171 3.9717967716769045 -0.7223326641101947 0.5864544900219254 -0.41499147685051113
P 5.206001159855022 6.487991672252767 4.703001688325682 0.6778284110502327 0.44414110183127375 0.7382099974620835
P 7.629467398483656 1.4392339098298768 -0.26888861394223906 0.2733712580721421 1.7644159448880192 0.31952924468544325
Ni 2.825849910262622 3.0568970923869343 6.0896713238857565 -0.6523413225227217 1.3414496773621478 0.18761442612029625
Ni 0.4299253095175522 6.625741475131445 3.2708966267127204 -1.429274447586616 0.6822537938114378 -0.8861106499325254
Ni 3.9705714864405035 1.0030786028499612 12.498147995129356 -0.23623064446610284 -2.119575537182562 -0.4741882989256414
Ni 3.036682197845259 6.268679486090663 5.4595020407152175 0.43781027451723953 -0.054598918291802745 -0.4578227130834244
Ni 7.483709316248579 6.635747200609073 4.4920380871554455 -0.2275937947267113 -0.03414579264377345 0.3464126993398486
Ni 5.898088498552868 5.683390782828226 10.971301104807168 0.4195289597095485 -0.48398060242571483 -0.1953606457246184
Ni 5.425211624223917 7.22700049992795 8.940292340282314 0.5157946616125182 -1.3333231916002715 -0.9142125503750642
Ni 0.851246804816635 0.3138126567983491 9.962029494237829 -0.4299239297906274 -0.753363051053438 -0.05681315233430215
Ni 1.1933538407683062 6.049690960179682 11.978881359378487 -0.12902721260470681 -0.3821844576228192 0.3941485719632309
Ni 0.4729258857384068 7.113515968447879 5.694678202900307 -1.2571357485044157 -0.4410640055678468 0.08320526917458573
Ni 4.499302872677833 8.80272656137499 6.773490530282727 1.085671964002053 -0.9747273199306696 0.7060033308225518
Ni 8.862973605262919 4.391126369316208 13.237324201391546 1.229081927690993 0.38660906905307607 -0.5771717791684188
Ni 2.56739332858592 1.4712762746912234 3.2193976570409055 0.28530991849125703 0.1001886911064597 0.16819205572962645
Ni 7.767023005211659 2.3628308024393556 5.0711679982107665 0.33570225490087996 -0.7327967968663122 1.1043960227741172
Ni 3.06455396918497 2.4091234657859357 1.1543111670469197 0.25408335637680757 -0.08111367675287966 -1.1727907092984318
Ni 8.42705873161241 5.976922888291101 10.241855975180933 0.12897810453432626 -1.199991952303572 0.4027720519661837
Ni 6.915796544753666 3.3331919776184815 9.682175270987484 -1.2095615982698784 -0.41994599264230903 -1.4942217989922781
Ni 6.432090923165657 8.494343074103366 3.3424403381084766 -2.023281810255135 -0.2651275300061111 -0.5238566126850462
Ni 8.453450913232695 1.2170550185863818 7.3106370830493 -0.09744506692305152 -1.012843667186417 -0.7725403953128374
Ni 7.332005132828553 8.681797844119052 0.17243046115847768 1.0469848318445 -0.11041345415826147 -1.8007446041157247
Ni 5.458178732659905 7.9875188631493055 11.746736506631073 -1.2846059289002265 -0.891335902887207 3.4612596991530196
Ni 2.315520921160669 2.004844069823931 10.602552206470058 2.12333731821784 -2.183823805638671 -1.5327320392523345
Ni 9.039460916483351 8.108133167589866 8.254901994552027 -1.525178652385109 0.9787073876243403 -1.300199412463109
Ni 0.18483774569944986 1.6103854506246245 11.82841818183563 -2.7084584341403226 -1.1554046526115005 0.2628960695724311
P 0.028380380305764043 8.06017596580893 11.736206451546625 -0.5583448762699029 0.08064342198468046 -0.21170437718996443
P 5.753597315015051 4.775033664328849 1.4702997454764015 0.3173564054038406 -0.5660497011133283 0.02744909734988821
P 2.318923977515351 4.047704348001396 4.26939497463748 -0.009316392304919438 -1.1667930969541003 0.876846193911464
P 1.7727334325887802 8.149025328460537 4.360333333024203 -0.14702853427813387 0.7966491154355828 0.1582251743249017
P 6.955477291541556 8.774577366962887 8.67168577313034 0.9023358535421363 0.18838035775204331 -1.6040678106828439
P 8.188530373969243 7.996026504036012 2.0315099755423085 -1.280996357172097 -2.7279731071344826 2.786716900832594
P 7.279276254202464 6.49666576698291 12.477101756114076 -0.9749908580047016 -0.05998435097343218 0.8461132836039815
P 0.962593329152133 5.1153023100541315 9.36447869117564 1.0570242183583731 -1.1595819239176415 -0.5850966904424505
