# total energy = -381174.22298726893 ev
CRYSTAL
PRIMVEC
9.18783192908179 0.00000000000000 0.00000000000000

0.00000000000000 9.18783192908179 0.00000000000000

0.00000000000000 0.00000000000000 13.44732074850622

PRIMCOORD
 96 1
Ni 5.783299147215576 8.61575152007492 0.47717372338208447 -0.6956654392316535 0.32642880001875396 -1.7895662189014017
Ni 3.688501043996094 3.7966510129561963 3.102660076719538 -1.3961257287487892 0.15091964180242398 0.7181481937152019
Ni 8.455157406791967 4.457504195981708 7.950607619565391 0.15735511301512253 1.195928837977792 -0.8301277068090027
Ni 2.2042251808097317 0.6834515742967949 2.3071435983021695 -1.0792999990374381 1.4934121586067894 -0.15192211492500934
Ni 4.716702120910216 7.091398334264824 11.86048304102435 -0.8266888563307827 0.14884296177905335 0.9723673043389255
Ni 2.7918697194826745 7.857057115449193 3.726387068718461 -0.41760346055206143 0.8782075930353649 -0.5815804497590757
Ni -0.2797777495376086 6.41737898816737 2.8154787722598282 0.8769171563587156 -0.16776473838422076 -0.30647138306022054
Ni 6.601392884890923 6.264098389054177 0.22129444332558396 0.867548570659622 0.40206448437619785 0.11179670765903327
Ni 4.436537563650814 6.086424096322 3.997485073487009 -0.5271270559062019 1.2939971403071393 0.8064853847997142
Ni 3.6341733941395744 0.7067583474053747 7.049596455598799 0.8621484826899732 -0.2813000260009155 -0.4767115795681274
Ni 1.2773934529345028 0.9022616278843099 6.709500589824416 -0.3322775454900471 0.31174548697496635 -0.9169129800253627
Ni 5.666733124261127 5.01151208217288 11.583145579631827 0.5869121463846344 -0.8647226711750527 -1.0808470318095837
Ni 1.3306369386301784 9.04356453551025 12.337647576574563 -1.1172569378971857 -1.0333986085196332 -0.2909928278086472
Ni 0.361886646624156 2.5111538923109795 8.401321305940575 0.8349886344457297 -0.6320481194913243 0.7249832143591644
Ni 8.592074477341917 3.9164970918887914 10.419952282944847 0.9902410992955527 -2.1573190744799233 -0.5886815795802313
Ni 9.27263555973192 1.7803537452473006 11.690347364342786 -0.0795699864148436 0.1717993134649106 -0.15300172114243327
Ni 7.6773063727140425 0.23105927103867524 12.691635444138742 0.4165397951742375 0.04599343601097885 0.28829419793056155
Ni 2.876131325576728 2.278995756580466 8.832119447950975 0.8927574658250819 -0.37080886879602587 -0.13394316184908545
Ni 0.9882064447772324 0.6876366317142893 9.865599853058495 2.2666470088834894 0.17592619114909055 0.36289038527989764
Ni 4.964203935866229 3.090685575441337 7.463222539841256 0.6330403082012647 0.001789230689938854 0.6692890061206538
Ni 3.846237741566992 3.030937104780599 5.498932075658124 -1.6123968993738296 -0.2829923261016739 -0.8567728202003566
Ni 6.716810428861427 2.4487501382393617 11.488382281708585 -0.2180647721903535 0.1193547225119493 0.414531506494957
Ni 5.771805169544258 7.6869719718429215 2.539808902351993 0.31163338687713427 -1.614873128828464 1.2335497336543593
Ni 8.026958502418033 4.404986549003886 1.5444919944893623 0.43868393537144446 0.33545954276245454 0.19562752623275986
P 2.7139201538843807 4.829078492531235 4.6869160887658134 -0.414947253876137 0.23000780348484257 1.2957606599654652
Ni 2.9536398752451865 6.205397331226797 8.39427515767828 2.0481006690710277 1.3185401197538258 1.7215371432466222
P 7.844194150829012 7.721711164149279 4.124172412031166 0.15689797087304594 -0.5920674653333288 -0.3746853210322966
Ni 5.006853851413999 8.757694334658611 4.561627138232508 -1.284183239540511 0.2612009412581954 0.6283447024978083
P 6.586223774470981 5.003537044108368 6.872025066583583 -0.08670454057709584 0.1872768402752194 0.8261982898476093
P 5.256092166593739 1.4063079219243255 12.954865908475675 0.19152250292545078 -0.2487706859146425 -0.051415121247182415
P 4.59602913710918 6.721973990373242 0.6546017822201046 -1.6132805875303635 0.6317444722079766 -0.26128810165536287
Ni 1.654847961881826 4.219024831923564 12.807913887955612 -1.6224751095454382 -0.6161725859116485 0.01873511451565806
Ni 8.636920284706989 8.20109547987966 10.434892616351187 0.07102955304400026 -0.40003485554067886 0.6596607390022704
Ni 1.3219544375115566 2.367437826176078 4.257287557752664 0.25412166581391077 -1.4497085470712516 1.0366135159125052
Ni 3.4371862788133827 4.630014927202071 0.6666846999143898 -0.5630615650192818 1.515159834696526 -0.5419363530048925
Ni 0.6918455774946498 7.612320837886516 5.404115488310026 -0.098167804021689 0.8241540057240709 -0.29490861792328565
Ni 5.561596764154896 9.09182821633154 11.26209057662806 0.722381515070259 0.749550105065251 0.669511406544105
Ni 0.47731429720971935 6.092671821994659 10.95129654425845 1.0652725744100944 -1.009770427577732 -0.42540367332277057
Ni 1.8271106216416566 8.25778440252717 8.256197663962952 -0.5703359871935081 0.1900657158742662 -0.6072246326897414
Ni 1.9757421778278412 6.513878786314338 12.795528690592752 1.5296284606263462 1.1022756339970048 -0.697451841708115
Ni 4.569173104548618 5.455707001835195 6.1721860753606785 0.26270220839407016 -1.1379494332495304 0.9916132970527307
Ni 6.702183400521908 1.3675352714263531 1.4729518604046674 -1.1092736625813928 1.1086843657368262 -0.5654724884536196
Ni 8.116172349890855 2.5721243446106348 -0.02590784831141768 0.5863971544214288 -0.021917883119013867 1.5708046777543399
Ni 7.622179381484697 6.93816367431099 7.595867268570932 0.5655683906015356 0.010510926833652866 0.2593852282056952
Ni 4.864690528865392 1.9285075341761644 3.6359402142084747 -0.7839638066584305 -0.7721081928714251 -1.3546589769635702
Ni 7.099860327418529 3.6811232150032334 5.215126380628025 0.14239746326402572 0.2663626879647929 -0.7416719878687549
Ni 0.7765436056026022 4.47886590508308 3.737427167495324 -1.0117409210405413 0.7593457509994342 0.7681677201664384
Ni 8.817010977221386 1.9151943657942776 2.549195191391976 -1.0026772681763765 0.8346765025219496 -0.8666983068441848
Ni 6.792325219013758 8.819721387623495 9.173318772333133 -2.3188874542454454 -0.420403906115334 -0.3509185576300021
Ni 0.9054341862295586 3.6968711588310827 6.250731931247436 -0.7051085869224243 -0.4738998211509452 -0.5297770919345393
Ni 2.506477285888357 7.623079789008111 10.72552946437779 -1.1942445082968336 0.035762759421906154 0.286357643029481
Ni 1.6300683793242354 4.361509728587676 9.216820399895395 -0.8841491553307804 1.0062107352509315 0.21764336838221873
Ni 2.391748829308219 1.850475278091027 13.294733916019645 -0.8676318744020477 0.17481521747309892 1.0763715125367332
Ni 4.091938741476181 3.1645741193524017 12.30339717692377 0.09816677558042448 0.15278189182214336 -1.3218139054090912
Ni 5.108884724347646 5.236356703733633 2.1093736797005214 1.4957037828544435 0.07603806200218517 -1.6044545045983014
Ni 7.890307878992359 8.328677713248108 1.6897497788123113 1.231173520112699 0.5091637865595618 -0.5215040532924696
P 8.175112291346897 1.7971766654041224 4.853097322609861 1.2866373575079584 0.0221582812645941 0.21320641565678763
Ni 2.836844156493948 4.317178439807412 7.291258484617252 1.0330630795570854 -2.229037426060832 -0.5939525981711835
P 6.899014322706283 6.9976273221837095 11.216894712868681 -0.7326541006408608 1.621857016345465 2.0728261968421653
Ni 4.27847010413254 0.21574499287516327 2.195826583695941 1.361778618727487 -0.29163611781960097 -0.16551039513240529
P 2.4112178450440496 0.567389044528907 4.74136409921985 0.5781685958640493 -0.8200767503309038 0.9261429832640631
P 5.910201481025527 0.32384350997678524 7.127577259825456 -0.38246393653645094 -0.5289311989944763 0.8701600401405402
P 4.4149277830889115 3.737012796277917 9.91054121387503 -0.970308879148 -0.41647474626425696 0.3300113751636897
Ni 5.1700848724440895 6.334826318801427 9.510146526310802 -0.08114684398366025 -0.36936545148127997 0.8426127266498907
Ni 0.3504670903909972 9.262988336266785 3.6491321032096575 -0.3309135752629849 -1.2656674401245105 0.8946382277875625
Ni 2.362017005371859 5.821915604571732 2.551171494027548 -0.04522339061417373 -0.41464977724037616 -0.2368631358437792
Ni 5.884227480324635 1.7888892410559774 5.490607899982494 0.26768500632064224 -1.5322527856230708 2.0655219498712682
Ni 7.6940282267202775 2.1730324916057944 7.039215124367127 -0.2337024787276104 -0.23436582334322215 0.10251219703331378
Ni 6.310919580271634 7.038356980870323 5.530479415172304 -0.3491162143139407 -0.8080378168884987 -0.5491251574438478
Ni 8.377612105796022 5.634391956073245 5.5347425691607075 0.8095977051764508 0.45129031128154534 -0.06274777265118225
Ni 7.5236215089985015 5.787148848769759 9.741911422837214 0.6273612555386163 0.7410081290325109 -0.9485637741614245
Ni 8.680259287645125 0.2210491282146134 8.173416217583407 0.6544298296206342 -0.4041784453954072 -0.7554554148060925
Ni 7.743431198693641 8.9117191481534 5.9743490855863675 0.31116287499861894 1.3451052718368641 0.027571738970681547
Ni 3.2426063754375396 5.363185534888612 11.00084927789132 -0.2396155017779357 -1.2292171677172765 -0.5052595664091493
Ni 8.730029772893351 7.173399733718475 12.854737835522629 -0.1850438371796426 0.25110653313667075 0.24015929009654768
Ni 5.440712460220815 1.6223414127202558 9.646596855001675 -1.0279789801659587 0.07279435825390689 -1.0859018206246718
Ni 1.5532856683736298 3.029228168052489 2.0473953222445562 1.1648444578681616 1.1908575941024717 -2.2234668739515904
Ni 6.911436271396628 5.374771390878646 3.5526745690892985 0.05659795099970253 0.21043116690449565 0.2982659644312928
Ni 8.02628779069141 4.755585025390646 12.40462870848459 0.2184653500628818 0.296834888411721 0.8031892305469458
Ni 6.964891077225349 0.4956623974572195 3.5980459204374236 0.16045432076573657 -0.3103756032106332 0.22174222104194072
Ni 4.344907316395772 2.668807899395034 1.2773612955229525 0.5492619401320282 -2.4475580548416818 -0.5191808044759316
Ni 1.9113262885763518 2.9330591318528976 10.911425029068639 0.5901393950726804 -0.42416054494428884 0.4492665959832972
Ni 3.3595307238349794 7.471563253614256 5.960955064284011 -1.6598808038874058 0.3314013135326809 -0.14223959752992277
Ni 6.412031670018124 3.782520127537741 9.234597935783672 0.7096874645423584 0.42314650185747776 -0.4117323464832652
Ni 3.2635270686090756 0.882381916063821 11.343137360350255 0.5015548638640523 -0.17019494509226818 -0.8196707731417366
Ni 6.000968072084644 3.9516221731337557 13.599678974619822 0.6763752235434738 -0.9632982521581216 0.5778168689515855
Ni 3.2582991922741593 8.494600769016563 0.10505458840257498 1.246943381352446 0.0982613921767598 -0.15364989624939343
Ni 3.9141725704252877 8.601978960099455 9.41089221616874 1.445644404304207 0.9805634669964727 -1.076914529524397
P 8.045251475674304 1.6057573761920947 9.855541014725514 -0.4399309204046681 -0.08485925983824096 -0.3173648900442728
Ni 1.5072913820246134 7.776277697634459 1.5149889475666043 -1.185036102324688 0.47392836039603536 -0.25002075627165976
P 0.5905846448718409 0.7686475828921857 0.7038908250782617 -0.9167443156579825 0.405575839963566 0.435175922218186
Ni 1.38993520552921 5.992193692647306 6.80080742539758 -0.975513563277391 -0.05038102355571322 -1.417389780333888
P 0.7119650917269864 6.340734094694838 8.752847753346364 -1.4104639997483324 0.6972844628923153 1.0609320380532117
P 0.7735189713504854 5.814546963410743 0.8434374531098504 -1.6008431330979591 -1.544783828210546 1.1364635927326234
P 6.149507749952113 3.3085658204434503 2.7398785352710924 1.0935495669779167 0.8503057244187743 -0.8356416946486963
Ni 4.933360384273412 7.383341691983562 7.524999683779235 1.2996103727288586 1.6274267971237584 0.24658267712438822
