# total energy = -381165.5135513378 ev
CRYSTAL
PRIMVEC
9.31729546035782 0.00000000000000 0.00000000000000
0.00000000000000 9.31729546035782 0.00000000000000
0.00000000000000 0.00000000000000 13.63680371290125
PRIMCOORD
 96 1
Ni 7.273593400332628 8.17071852493239 1.9507854740072672 0.47039746442464153 0.009248515181461492 0.39864363162010696
Ni 5.062934575965243 2.9052538944065147 12.036361049365416 0.37932230558367575 0.20325547509166286 0.5359906769444188
Ni 7.470644885077662 0.8825519425443598 6.440198577669412 -0.38652756508286334 0.34595838541124935 -0.9220870680271346
Ni 3.296748021127251 8.395582137057628 2.860510377453344 -0.9878196343382536 0.6920779789907113 -0.02137872278609221
Ni 7.499426011200761 7.301414845008437 4.440389221108149 0.06643190637098882 0.1442939089557902 0.08119929448815048
Ni 2.479472119860268 6.924707266412452 0.9732027066717351 -0.43757424724703353 1.006531866035776 -1.4832107925937552
Ni 3.4439519743868283 4.73110841029738 12.110136327693452 -0.9125531603947703 0.810211684611366 -0.17529447110236263
Ni 0.9838505120888529 8.739865526949055 2.9885467901948126 -0.2580359132666524 0.443763663887197 0.15270938671299505
Ni 7.970368717543272 2.459924433681485 8.191096382149556 -0.772617785517992 0.3075029096485285 0.07644146808819093
Ni 1.1410426062367311 3.808453895740579 5.952956194395938 0.3866841452653857 0.469520718246643 -1.2004547508726033
Ni 3.453017703010258 5.805187613022713 9.691308621465437 0.6355710450429183 -0.25251909721348126 0.09700103740709747
Ni 4.567571237842661 4.543197192540614 0.7803281655463141 -0.9203415460909377 2.1556892521859843 -1.870340767147308
Ni 4.4845727685954735 1.5552709342330775 2.9732599032960856 -0.010072553744653621 -0.7862258632197298 0.13683359602300305
Ni 1.8774164297675977 9.027164336921777 5.265197224142018 0.3195025052125659 0.7862628871052523 -0.5037374733376678
Ni 1.4986776807297755 4.541650521470223 0.654772948624393 1.0180902602973367 -0.2380630696891513 -0.22120383203996744
Ni 0.7802051772443312 6.963811956065623 4.3495539745278 -0.16562455211276636 -0.1327555692988875 0.9988563517683896
Ni 6.112360214520386 3.483923172531241 9.908679264465327 0.20273379826023796 0.7342600116753999 -0.4906919530076194
Ni 8.098891493115309 2.9647448268428964 5.613453508879314 1.6286614408618079 -0.47560369121592927 -0.4641753947743297
Ni 9.619641847132756 1.2786497450234071 12.32209362194698 -3.7028886318165584 1.519712744174531 -0.3266465724565149
Ni 4.993688435030679 8.24635633065182 8.955670864287347 -0.16505633831412217 0.12207392121532526 -0.10828920872640706
Ni 6.1625990724212425 0.7783780555762381 12.812786199782897 0.9127832741277054 -0.48879473598490664 -0.07974173610601751
Ni 4.563900223374387 6.847308491823724 -0.26337479004838565 -0.8176012922072178 -0.1333150413467833 0.6601286797776245
Ni 7.097906474409305 9.128368801780663 8.325514210650724 -0.31378642866439505 -0.15362238544556767 0.6486142513801216
Ni 0.45106052925151685 2.5945034513966143 9.816261941091291 0.6762201860228483 0.19420673462583327 0.1269875564668587
P 6.447037472643306 1.0953226367041817 2.0273428968028853 1.4219300914064028 -0.007136868155097386 0.07547473329954744
Ni 3.169054484864038 3.384871002957055 2.020115470602274 -1.140729567097829 -0.45052720786327566 1.3759140296876047
P 3.531245716907809 0.8713329869066702 9.411903424329065 0.6442752576851355 0.03605226563786694 -0.8378423018444409
Ni 9.02517043566236 1.6472140072608332 3.3069662992169895 -1.9635306583384313 -0.8651913832813551 -0.18552591902238372
P 7.612202557200756 5.54270076124546 8.929229311090602 1.7926849670360416 -1.072953745104436 -0.03470243647819185
P 5.40718069667425 3.0147228004668207 7.762164429959342 0.9277941457142408 1.1811421665869208 0.3046302160864237
P 8.916894143439464 5.379685357344608 0.8310263661204856 -1.874965924624145 -0.4556717281786926 -0.5152709278985641
Ni 3.300689237168064 2.786225443055727 5.360409736197484 0.15898005021305522 -0.6258620452852706 -0.3814900026589559
Ni 8.524002422378013 7.525728736692994 9.154291381612222 0.5194919079584474 -0.30154926316825487 -1.6034849415961805
Ni 2.706404171609762 1.2772055642046696 6.890663731731785 -0.737663123819678 -0.39047266577354045 1.2996268277890908
Ni 5.143967095839827 8.793151140512666 1.428032081995377 -0.7852563002176088 -0.20417875823688064 -0.7759303948309927
Ni 0.7532166987955882 6.009590443999901 12.53029977299003 0.3757633845878238 -0.08084988156853172 -0.9639232873366301
Ni 5.5338213785341255 1.2205284550409246 10.32379739419193 0.17569967696058128 -0.8765464032828583 -0.11593618374870354
Ni 8.081999236183881 0.33390951296508775 10.281577000888527 -1.1869400042156204 0.43788432228828456 0.15065867483155343
Ni 5.49044005019837 2.594382326553752 0.8136496098176113 0.43563614968405623 -2.464111845435305 -0.30156443267690647
Ni 7.765854079018826 3.3547109170844527 2.3834406175211442 -1.0641076075677156 -0.32081711025893134 -0.4797295404588448
Ni 3.1348600099945747 2.8087173946456137 10.372057258506336 0.1370922490010284 0.9395669699794529 -0.10083069556583281
Ni 5.140752628856185 0.9715050954125481 7.634005960645451 -1.0133270345807386 -0.5399761439547281 -0.49546880557097245
Ni 0.9825833598866058 2.28795510870446 1.1380526860771643 0.5727721074388264 0.4671380769470793 -0.007772701966883388
Ni 1.9022656571454883 5.632249289302792 2.7775445187407732 -1.0570548144859924 0.6269395946201655 -0.5287787325770119
Ni 8.885820962597593 5.239404154719367 3.0090970173806673 -0.024539122791944833 1.0624536169040606 0.850015189761549
Ni 5.794072079366236 5.3711134453882305 11.978704692433611 0.2614377398593497 0.06740866846196132 -1.0098617017399576
Ni 0.49662303648834566 8.53723298213677 10.816604066400565 0.686483001401437 -3.0879360343549402 1.8037674501024483
Ni 3.0870995527245837 8.15340698969875 10.397367692016662 -0.222346687395159 -1.096267480129712 -0.0979654582028958
Ni 8.068591647808633 2.3986911669670126 0.16126375232715748 -0.7207740613738232 0.022072920639639403 -0.43243924001331335
Ni 3.09743243355026 2.6931736118510052 13.392254901870512 -0.49433289219431636 0.7619394798685394 0.04775721277962098
Ni 3.0131388602140117 4.62719261241751 4.325594548880163 0.9088322598997575 1.2399001013524196 0.2699108103273674
Ni 2.082322394707443 0.776973939128601 11.141418967125848 2.1108083325128937 1.6538245703909968 0.9659300333540138
Ni 5.681528465756359 2.6428136291072866 4.997874695945897 0.011497202006322134 0.12497258291935898 1.5567230028502932
Ni 6.777922591455089 4.627528035059281 6.727103266038055 -1.1483366900211254 -0.3349455792405135 2.7325728106900224
Ni 4.097830462633164 6.091545376139355 2.3448623550696426 1.2273436048436475 0.3549310212235049 1.3571634885529789
Ni 8.61144524162867 7.883373128481643 12.953000317879784 -2.0623988308612544 -0.24305640913868468 1.024898541468422
P 9.199916314729602 0.6709887698949143 7.842294103889825 -1.1632038369409452 0.24120624330382331 0.24199042976801555
Ni 2.9184099158004333 8.387727656862817 7.6172730294688655 1.2148675838638239 -1.470697490618093 -0.5506534211629162
P 1.6945924554110294 4.832014721696913 10.34451160578043 -0.6230870536432946 -1.5669840184566688 0.872085282187711
Ni 6.71636321939445 0.6767030672893126 4.20387246737004 -0.29110158547236964 -0.6132291870126083 -1.0759547367142888
P 2.298325258712556 0.43382073719403247 1.1385064383731158 -0.03964486808513172 0.08329371512333397 1.1359437156734113
P 2.6195762938690192 7.439767367443493 12.387209405739956 0.6777155396214521 -0.8721950682926979 -0.027451154232417244
P 7.8805593052090055 2.2458409325709523 10.979849607502855 -0.7335097637729368 1.9624839622414718 0.9723472497342673
Ni 1.172432575129162 8.860161130502089 13.09577762399754 4.007046536252253 -1.5181474565699404 1.2509800133156648
Ni 1.4438453960957724 6.686398796729547 8.969321634077877 -0.5504821856923746 0.2982430816131573 1.19595223501656
Ni 9.444103997939107 4.466841955059619 7.839457919107735 -1.2460080140223702 0.5274170763427949 1.635982914223886
Ni 5.688768004441257 6.039144905658195 9.401989821805602 0.03199609329062232 0.452907278059678 0.27365896451588995
Ni 5.079873419374695 5.656446305988351 4.722834651800355 0.32622054066268974 -0.19632866606484253 0.4881234209494948
Ni 1.9713440867591665 1.406660069337182 3.244100642312564 2.889952606295494 0.20498068531288569 -0.5813652484244762
Ni 4.357410318181731 4.783676592099426 7.238005989770254 -1.0377430015312579 -1.0813831068187116 -0.09502231641417183
Ni 9.477739435072287 7.250374699685571 1.688291168393531 -0.5909711469453564 -0.9842000353077953 -1.0086275722225404
Ni 6.766331875722769 4.511537022075644 0.26371393960839884 2.189565850328771 0.5178086067187534 0.489407429868241
Ni 5.316868150377327 3.719483040010742 2.9853416405067756 -0.13399381258136278 1.0136224543339705 0.11177433906153007
Ni 8.130281462007739 4.634096728460635 11.033251687261528 0.32628533246235425 -1.2866373575079584 -0.37004139450238205
Ni 2.428618320449497 3.3391883026069253 7.850203556128703 0.27945191704858324 0.6451628024964116 1.101174430513026
Ni 4.261945307415378 0.5999648889589624 5.1633712956662965 0.4405014481961575 -1.4300077262082147 0.2593111804346502
Ni 1.5028890983431262 0.1105730055894697 9.04788320715808 -0.7357373675518748 0.7515365393676605 -1.4865290583337107
Ni 5.28532910475522 8.0450282072242 11.326783767993835 0.5083186649504471 0.01920691194575402 -0.10493931841756766
Ni 9.134546168766617 0.3317553542212677 1.1081003758965475 -1.165444810456322 -0.14852645897989905 0.09535193183944869
Ni 4.818411470113966 6.94248466642633 6.925886836036014 -0.46976394460570065 0.8395515712260637 0.0724670568214752
Ni 8.563349361716908 5.630003821062046 5.669282744143025 1.3559905512908002 -0.17728476205951402 0.019998811719430073
Ni 5.277549162925247 7.857210162423481 3.826132532421048 0.2894442523746047 0.2101663432788832 0.18959777509891218
Ni 3.8464777791035982 0.6252939570604981 13.294152164718449 -0.10459581903521985 -1.5230335810176479 -0.6191316685399724
Ni 3.1393695810672777 7.151779077596017 5.2896476712680265 -0.15175062234415157 -1.251794024576528 -0.1735425214082624
Ni 7.057525315258283 7.081480082258116 7.199345735117429 1.348900220102922 -0.7910392254479731 0.10979561806860445
Ni 1.053981796105869 3.5172231870226476 3.42762434556905 0.2037434704716749 0.43194790219919155 0.16069343335973613
Ni 6.587290723381733 5.689587926454475 2.729092718136909 -0.06395541980603824 0.6840548515759186 -0.41253041690452824
Ni 0.5612459353438286 8.03578544998428 6.992011682942985 -0.5333882063245653 -0.4739761829148354 -0.017233847379783222
P 6.906724885895269 4.456835179580108 4.672527777641583 0.19718664318976362 0.7561971780681235 -2.826714267161138
Ni 1.1801379785942971 3.3040993673594055 12.129405426733653 0.24311837272487163 1.8654875528200645 -0.5090532291236265
P 1.5382761870499984 6.006832524500893 7.034272140617486 0.3147505923498773 -0.4255088314420672 -2.539133293247517
Ni 8.87091328962998 9.202208369448373 4.8571434679429455 0.5223399189302036 -0.38690448880630784 0.43104158833483835
P 6.510199419547962 7.598869507190347 13.060444575605176 0.24344027484066463 0.5345410889820859 0.22738373559843422
P 6.020910958159683 8.555140824289115 6.022517259921942 -0.33941518497609285 0.7074495763507751 -1.4712880730142401
P 1.006985357075468 1.7882592281256648 5.1112922718835 -0.21300484116894283 0.37006607709273037 0.8505124411129417
Ni 7.710285728032048 6.905373878032578 11.087307841171656 -1.1421526726976006 0.2387004461628341 0.6909580064536551
