# total energy = -340867.9177628187 ev
CRYSTAL
PRIMVEC
9.28070934776969 0.00000000000000 0.00000000000000

0.00000000000000 9.28070934776969 0.00000000000000

0.00000000000000 0.00000000000000 13.58325623894103

PRIMCOORD
 96 1
Ni 6.429629034775608 8.596312720552422 2.083087696298338 0.5340736624273642 -0.03170144486833895 0.853342197252253
Ni 3.899252910954659 7.768519849996472 12.101390703599826 -0.39419768003361144 -0.11459561056040908 -0.40317545805218946
Ni 9.148320032036223 3.6969241663950947 6.509463552754155 -0.9754012060692427 0.14194392066637487 0.9483979380075215
Ni 7.764362092207256 1.6621007990762537 2.543016449956913 0.871639452899544 -0.929354034002193 -0.24508449531230697
Ni 7.315992462045261 5.576379178470063 11.659161190744404 1.6185361795023478 -0.22562792924959205 1.5948874297351565
Ni 2.3551748926941465 0.5513790074607411 6.0410577991744425 0.7625020372402287 -0.9990214165913439 -0.5779212557399337
Ni 3.945749264802804 8.672136115949497 2.6389956899223317 0.02774503132375222 -0.1790444250630981 1.341780578339005
Ni 8.006969115349845 6.128247279313599 4.565929882965708 0.9768561933482145 0.8197144818954786 -0.9848158145149233
Ni 5.336630613807561 7.463500056468898 4.237391843871951 1.1371359362092994 -0.37932461957652086 -0.8232716031191177
Ni 3.808301959315572 5.634021664248673 5.846939698177644 0.22875490491434797 0.4522236217290921 -0.09080647856061135
Ni 5.479005975960136 1.379336146572204 2.6922966598665767 0.33107401210024917 -0.7077079722184845 0.3578265976037451
Ni 7.139937405658173 4.015948550333217 2.8949177467706946 0.5104549945671596 -1.5783557506287205 0.05864609177798286
Ni 4.541812103575454 3.5193934772212083 3.4553491581323303 -0.8609812018547494 -1.173816836570101 0.7901115714273812
Ni 8.156230763840806 5.756731203286632 6.808023044502548 -1.0556720752058528 0.751575363025396 0.74906802322251
Ni 3.0941884975991276 6.565600707476043 2.0150897950259647 0.5554917230918239 1.1414499902036213 4.256006712469883
Ni 5.941872074128279 4.982320972917213 4.46590332565235 0.1283684959747854 1.8071196544041328 4.320566084408507
Ni 3.080545854853265 -0.04624206241192986 8.186329960407733 -0.22474269843116132 -0.31463823514172906 1.0194925399615022
Ni 5.436964362600436 3.6365253099392607 12.769062567653297 -1.9410718151142827 0.3867695058903403 -1.8522486855322875
Ni 8.793499952131572 3.48878569778185 1.4332375784114542 1.2999340746168644 0.33789257768397934 -0.6865069126608371
Ni 4.074008668032618 4.181089492523616 1.1912857733490414 -0.5892762757414368 -0.10719957520665409 -0.9873025854925189
Ni 2.0452177617918794 4.751110660857564 3.844374220420756 0.5734966443096768 2.4056552439603087 -0.9585427397510072
Ni 4.975174826717 3.5651566550306306 6.35563301104973 1.463335393826067 -1.4299856147210277 -1.483587973427516
Ni 8.828933700433414 8.504721399968123 0.9715779724589314 -0.34993151112638443 -0.06373070538974186 1.044283630863253
Ni 1.500050333099714 2.6267748518490306 11.59034844319102 0.8044105045485566 1.1913275917603545 0.48462980597393956
P 5.93758438640815 6.6351596240612425 6.174351059156199 0.7654593200963398 -2.474265131819223 0.14030767061453256
P 2.430803393194852 7.569727055699611 6.744820485751798 -1.6060758422518082 -1.2734265152446391 0.00798353242610883
P 7.209524164371424 4.305738699815919 13.647097486351427 1.3053092228858487 1.9471956686238334 0.24001248010603823
P 5.208974456685558 0.7116596421640591 7.394357843733555 0.6422302022306488 1.3480692395611944 0.8306696953554018
P 2.1409297173279915 1.1561536481011068 10.1112539518057 -0.1939254559399886 -0.8244671660891155 0.5018163450555552
P 1.9111300730896832 4.827880688608434 10.127009812070769 -0.5370504856675009 -0.2785378898747461 0.20331203936121117
P 0.2252288948829767 5.463822735462018 2.945651672508473 -2.0710405656966526 -1.2054799720013367 0.24684441542620716
P 9.109044070063097 7.253978762162365 12.37392523018635 -0.3171831130507699 0.059483757187929816 -0.6970286381277673
Ni 1.594741410607224 7.447268095814127 0.0018793436435627575 1.3535857985040496 0.37779095654081385 -0.6652932546976993
Ni 8.390707885591981 1.1758194712157215 4.703759553678199 -0.22749737835816305 -0.7907463767979027 0.9794427231284679
Ni 6.119282114080603 1.2804965919848295 12.862732767132204 -0.0876908157497651 -1.1157785535794462 -1.0115192919480387
Ni 4.541143892502188 9.10115546711481 0.6359030678743106 0.721163840613074 -0.8777049423673335 -1.8186004013502228
Ni 4.518137014021239 8.10643047746373 6.60810450016142 -0.7325998503641576 -0.2887343707917737 -0.11493448195706658
Ni 3.740831202334331 1.2812112066048507 3.9656044143881775 -2.041870886111232 0.9920951217851559 1.5043812560237833
Ni 7.0551302836094 8.463728506765076 6.7044642492102255 0.9448235903927019 0.07023893882190484 0.06649232729527903
Ni 8.469027791804457 7.199120489189035 10.326168266316056 -0.22273543819314542 -0.15796189336118602 -0.9105636407685673
Ni 2.685985777507946 3.1738077031207323 5.311351817677506 0.8074168954750481 -0.48710037900161923 0.2025237391319609
Ni 7.739907423067563 0.3375431113769625 9.023166882226164 -2.441472253658918 -1.0766836444605135 -0.47699774334997846
Ni 7.170229640979599 2.128669900275417 6.667626329583591 -0.780583834442604 -0.19309961760458355 -0.10140970799775438
Ni 1.6339338461961896 6.684978471857019 11.0878082406186 0.7529179930962194 0.1488830709883694 0.5186380445985842
Ni 5.50477850582766 6.11194107298402 13.11654903102884 -0.4649423548473412 0.26684091315279207 0.5060218984964705
Ni 0.6739020042407469 4.81692945157434 12.314933329268115 0.1055134457534828 0.22111512898090308 1.3872088858751337
Ni 8.472990654697302 2.8515350709097858 12.615653370153403 0.26554764826266525 -0.8822660793754548 -0.23983713087043856
Ni 3.178596549145811 4.666971749882058 11.951295647409152 0.37902457183759886 0.31191569400424346 0.20311612130032114
Ni 9.287298654566357 3.4357742859693543 4.34237708419151 -0.44068296807934426 1.000791106897257 -2.4349041135230967
Ni 6.847056779961612 3.368943897933328 10.755520794947067 0.46067946580592917 -1.3364311411016339 -0.1305495627865042
Ni 0.7830088075830522 7.491991834176245 2.940815494865705 0.16468352835573574 -0.008715268385810798 -2.1051879010023224
Ni 2.0057376242130354 2.6417817588694796 0.49281401917265005 -0.16814397610051043 -0.29284530763635375 0.36778216615456016
Ni 4.694897404318999 5.132306516737549 8.070831532535445 1.3397954295881764 1.3428882095808874 1.4541691539457666
Ni 9.0304828654075 6.188497644419818 0.5831635808457966 -2.1865864559854726 -1.3879223670023904 0.5752830467861383
Ni 5.683190862389885 0.4720280144393784 5.3041666924980175 0.31010152361364013 1.5795803670644408 -1.710943426891176
Ni 2.8716834909106486 6.94763182719761 9.05815701262103 0.2919554488322327 -1.627649968878158 -0.8409826472456354
P 8.4019004210692 7.426757728148577 8.124022990109347 -1.6791087988790823 -0.7223797152980462 -0.11619252273388378
P 3.17358496609631 3.92889549662152 7.301747501262524 -0.35660249538865685 0.14055321096643536 -0.3002932792739667
P 0.9718201989729907 2.0364567721646045 5.753541423482718 -1.682423722184928 -0.6140018035125747 -0.061717788724771135
P 6.971780232928722 1.1670492008790951 10.848430904330133 0.7353889830735205 -0.2682874157913315 0.06379241186561271
P 4.220439700171547 1.7579890880900337 0.016292285265552695 -1.8533452610305756 1.9833456361818294 0.09703754707198771
P 9.047355195007484 1.3494429817528675 0.7559174889167607 0.8667070485949332 0.6613620379640932 0.09937185163211919
P 7.626033119331686 8.399329664578994 3.974868418462273 0.3108096054242583 0.16582895481408857 0.38313010936554015
P 2.1399366814274425 9.173684210692306 3.794509897149159 -1.090466814287535 0.6071814381566317 -1.1669476202540934
Ni 7.178099682509185 6.210103135788776 2.1804655391629413 -0.08670351213583133 1.0125891279734498 -0.3149745354352253
Ni 6.416199848344816 8.203321083087411 11.15379594024556 -1.0269716219473668 0.5180706021308884 0.36277622829953654
Ni 6.218038142283819 2.660324616152632 1.049195328973541 0.11869960542645364 0.507360671912552 1.177613584608372
Ni 5.689891534541254 2.824416838186376 8.492333509126505 1.0250049851392993 0.0012284730904624003 1.042857439939688
Ni 0.5547274873945556 8.19278747797411 5.023944026285187 -0.7506446236810105 0.4961653174173649 1.9229483660406945
Ni 6.007282513633613 7.371370454742244 8.696299370815572 0.011730658173366893 0.6660902966776979 -0.35178450517472315
Ni 0.5291080892313211 8.735356308048015 8.692944394385211 2.9133879545002985 0.47426543202047994 0.6681754613415009
Ni 2.0607722306640333 0.06437471234177142 1.203362760427403 -0.7776003263342479 0.7536646414542569 1.2538367660381697
Ni 1.4190668633035233 3.7855920635338536 8.29471008420786 -0.8392109000571935 -0.6828885991819594 1.4471981219445722
Ni 0.9572958888387896 6.196748195032792 8.343691812020184 -1.5870391373353314 -0.4264987061591623 -0.5836136781390207
Ni 1.3740554229515263 5.296482265155451 5.9554701694692564 0.10382885896220827 1.5187043575146748 0.975747790775384
Ni 4.776511962351052 1.40151704192092 10.719824402570593 -0.01902256384908982 -0.17422309241505476 0.5320219221046579
Ni 3.5544188743116076 2.066813972451487 8.852465867063625 -0.45796952307393385 1.8127066615736072 -0.8262072887086738
Ni 7.043844941038672 5.243897765973096 9.257029621018306 1.8804477736743226 -0.6319720148377503 -1.6270084786394172
Ni 9.108709964526465 3.987818720290557 10.37381821233652 -0.012873256418242347 0.2594003977143468 -1.6026310782363173
Ni 8.08819388358916 0.2029329187383092 12.574455373273704 0.8500565845224456 -0.3539984821069065 -0.997649733054798
Ni 9.300477261844673 1.576012939137053 10.224470253248596 -1.2197447094504672 0.06517335137353937 -0.3431682242606219
Ni 1.4983241211604417 5.001225777865052 1.2841244212701068 1.2817106096303021 -1.4944321152308715 -0.1408090357309833
Ni 2.491768372921092 0.6735196390154886 12.558331996918337 1.2753874956257518 -0.09184803245124827 -0.7034815928419627
Ni 0.847136653056089 8.846093732023277 11.209201775070596 0.4382949274631419 0.6739007938610523 0.010478273823504535
Ni 0.9908085303049876 1.7009034448724802 3.0125757957089445 0.30941298218704777 -0.7364439067005961 -0.6110905434030508
Ni 2.9331496289418393 7.344335748402993 4.381496202176603 -0.20123278823467927 -0.9948243477908609 1.082064963377085
Ni 5.395776574501021 5.9818162471746685 10.528408844136786 -2.7990777363907924 0.40557095486755956 0.6506590497242923
Ni -0.025589699893311564 1.5718923041852413 7.742781658753545 0.9377183468064884 0.42026403810336005 -0.611894784471901
P 6.6374055557241665 7.975461107103446 0.04593487093241417 -0.44394338399817096 0.4450083349275755 -0.4434854705251459
P 4.1929780812021535 8.186476595615478 9.818561724508962 2.90206584461926 1.05361082180145 2.645847958397953
P 2.571127718580871 3.1585687783665097 2.6420249134544744 0.10292588753196469 -1.0502419053292171 -1.3801985159955714
P 8.195154058858595 3.4850734140414796 8.366633725535676 -0.8712180490914092 -0.0358990278894543 0.7932835413974596
P 4.811704412209768 3.8339724013802368 10.653701204587108 -1.2941354656572164 -0.1147910144006668 -1.3640640723275541
P 6.2830495112870635 2.778681502505007 4.677665911267131 0.742026028774064 -1.4660975299522363 -0.3894591369073615
P 5.205902541890401 5.370096851727005 2.617969314816871 -0.4847696739859135 2.0095107246129715 -1.5060789554411804
P 3.208229854103321 6.0678484228577645 13.76798893442754 1.2058394122232847 -1.0813681944203763 -5.169118830691917
