# total energy = -340873.1813369917 ev
CRYSTAL
PRIMVEC
9.23249535396513 0.00000000000000 0.00000000000000
0.00000000000000 9.23249535396513 0.00000000000000
0.00000000000000 0.00000000000000 13.51269018545720
PRIMCOORD
 96 1
Ni 0.25751922685063355 5.0057021002469115 1.8227401933749436 -0.2066004803044958 0.9138669941101875 1.3960046297898925
Ni 0.7334746806593085 7.4009807292117795 10.97262884955775 0.3296056550848388 -0.29277280252720544 0.137805215907653
Ni 4.8320573251406405 6.392192109901549 1.0798345185763827 -0.6578933626892025 -0.009547791589435169 -0.4135074361058169
Ni 2.115857153072092 3.3982784736051905 9.10826948978013 0.13939312922006314 -0.33569531292234445 0.7530028395005419
Ni 8.494403634644893 7.422760186063954 1.4600868474236526 -1.0145526794577238 -0.4646803594352062 1.4864562961142467
Ni 6.3529632365802735 3.0829795202526644 3.4928949338478583 -1.1560021769861832 -2.037531378195614 1.200030261740675
Ni 0.6615027620958811 0.508556318620338 11.919138747315618 -0.7972168150135948 -0.20529333145729803 -0.5063060053957924
Ni 4.840052666231773 9.321404417829939 11.191061383517596 0.9701576982821163 -1.6792895474313208 -0.7065604888776025
Ni 2.8847855396483295 8.288297405408802 12.054414194430388 -1.2492172649882873 0.522586487723371 0.9095488263508078
Ni 5.121182153789514 0.8390187225595576 2.896607750118532 0.6466584132053316 -0.5814925180309599 0.12271901099849188
Ni 4.46668131627044 3.575385434518824 8.107574076013186 -0.7886085045192934 -0.5628211668737018 1.0891049009430018
Ni 2.4569332338223586 2.0158322969735516 12.342775495702544 1.4997527561128363 0.625657128363316 -0.47249625593519917
Ni 7.9693885463211345 2.9396542603233917 1.8625617929064393 0.8124796547099362 -0.24077326953146277 -0.13344668182864117
Ni 3.661487687424029 1.6822530025581581 1.1212967325557934 2.6616345318082484 3.2150981687264495 -2.700685989283755
Ni 0.715370680260229 5.39135266920502 9.500002426764608 -1.8965333663822757 -1.3071575889484972 0.12451749765981136
Ni 8.412705282086652 2.4881852310434733 9.314757021079805 -0.32725592390573965 0.9706377232423284 -0.3258528729106259
Ni 4.59311110945979 4.104481285847526 12.62732562283796 0.28917634342519877 -1.5957934864891936 0.6188095093138632
Ni 8.233068617409774 7.957847926963264 3.8978026418912837 -1.0796632959141275 0.2733992830966001 0.18950495827478975
Ni 7.3996604823572385 5.7826812228872 9.539040187429318 1.272882469815711 -2.6890813151652915 -0.4721728111575093
Ni 2.823638722042585 2.1336020093967547 6.429351980984346 0.04342336129095747 0.8036363453866935 -0.010279784659453265
Ni 3.1751567551878535 5.943538991744951 12.388610219544265 0.5304949439371703 1.3652912598664357 -0.36812875086070146
Ni 2.3488391766687946 6.4577335953587705 0.9611304776099662 -1.3252684396165948 -0.2308866065453701 0.007057678177729781
Ni -0.03464770906097501 8.378471188823465 6.259564542492248 -0.8434377936543475 0.8547071959205795 0.26818842831962203
Ni 6.582279959468916 0.9340515683486573 9.375537308614742 -0.21977455579260863 -0.13659448342900346 -0.4407356756941506
P 9.35593395094869 3.5233787874445133 3.451641374266438 -0.7465653114053142 0.5662497329392764 1.9704201863694129
P 1.5507268718603724 7.3374057652931395 8.964832516655472 0.5970163246981718 1.490174368395782 -0.7825101049310395
P 4.939080412817793 2.027409846313368 5.111647755700815 0.16760944375327907 0.6447833076698056 -0.6203028060299381
P 1.5006590488381844 0.45536514237513565 5.348255380274986 -0.360511857745392 0.33460825050575277 -0.4570174435733097
P 7.471415437276739 0.8847731236905476 2.621394445668411 -0.5518433277059592 -0.7594002583864535 0.6284614305813306
P 8.360292405210945 -0.15642894077297428 10.32891156676667 0.04806728782087206 1.7511395394940872 1.2617470220241818
P 3.591533069124357 6.028588740164718 5.262355319020931 0.9838146269439186 1.046800483747836 -1.37346968191217
P 8.091303649217686 6.329171095712087 6.453012097167078 -1.8105561908895076 1.9677896907251016 0.9733756909987817
Ni 8.169659838409887 4.520128232640613 7.437101021302818 0.28174585528908247 -1.292548837896387 1.6657568030522085
Ni 6.694500942104855 5.970590203519801 12.072291998690051 -0.13966078105915303 0.5478462907314242 0.06928814487286132
Ni 1.725599568866322 7.191975496392991 5.22892445286505 1.0074034700074523 0.8226496532644025 -0.9088021779927704
Ni 0.9531166715278604 6.228740009812149 7.2104792638466275 -0.6233927578091716 -0.09487499220303015 0.5561872064969519
Ni 2.5328058817287467 0.5340740128949141 10.065345978622062 -0.3252836306707172 -0.6395835086364211 0.8451825442595959
Ni 7.230087237760424 1.2501722137994633 11.972918956772846 0.06557084392227418 -0.9967303065643222 -0.2899461317116877
Ni 8.512250048419906 7.861257559185626 8.619366384301472 2.280235546201202 -0.2446954874040044 -0.9206544493456661
Ni 3.8523879965941896 2.8982003555899185 3.300177669565994 0.33968155126360206 0.7864192101774585 -0.08202898947829744
Ni 6.877969092408547 3.989509019556671 13.491597067051636 1.8270156219971114 -0.31856096723490296 0.362401361458621
Ni 4.417333627896183 8.675859100932573 8.663796845579727 0.00369107569834203 -0.8667679837398555 1.7276905644425278
Ni 4.768713173609157 0.6835647333099361 6.809720639274742 0.7484519869050659 1.2994267959631427 0.2773446408975933
Ni 3.628463051069545 9.224426285241876 4.78122228174354 -0.8159737839061237 0.6773221608377754 -1.0507561259614744
Ni 8.829164688482534 1.2984489326973097 4.441472910594655 -0.4998823612576359 0.42398339593647627 -0.22448661655629726
Ni 8.311323249151627 0.4648746127260215 0.5848767425578113 0.6890109100296133 0.88463200850447 0.5713762555325643
Ni 6.188837164320374 1.6810066156675079 0.7774379776659571 -0.1930271124954353 0.13568457002022438 0.2477952093752507
Ni 1.4613747805439912 2.883059062992392 1.820023993202875 0.9112082163311016 -0.9236919506204092 0.5721537571285372
Ni 2.414343732144071 9.070049728215505 7.186548635546146 0.22918736446607627 -1.5729731461605683 0.6518571837974515
Ni 4.67967498713931 5.518216389682225 3.3182170424966695 -0.7378839815812325 -0.08543210162257545 0.43212350854510745
Ni 1.7418487609222046 0.6109890095417049 0.5926541967554679 -1.5136246289989221 -0.9020224360667755 -0.6997884602610915
Ni 0.7995664228475136 9.380123089122787 2.7166451783509875 -0.7013174953111084 -1.025174677947944 0.2892316221431664
Ni 6.423942661878924 2.3893605993581515 7.126228126286425 -0.3009501961316753 0.38271821863910216 0.13125173105985138
Ni 3.7447924941968855 8.513958060084871 0.9993474694259435 -0.11332420004715323 0.29315692533950155 -0.08461217682444137
Ni 6.45484382427156 0.23831932923733049 4.9080121422568554 -0.03058918564076667 -0.14718228624717877 -0.4409552479041245
Ni 7.3148692438110885 5.116621301019284 3.1451188311231864 0.39649804603201394 0.9175074190762521 -1.6286318731754532
P 3.3452377870364147 4.4661827615141805 1.3526612229432964 -0.3747966497991803 0.10582532056694678 0.5327048071042955
P 8.67633919069786 5.125826099019121 11.348713629942507 -0.11965965534687781 -0.9972650960218695 -2.1481577196956296
P 0.6754659882693566 6.857159047582434 3.2030748982888664 1.1304310133852984 0.01052481079072381 -1.008645312834353
P 6.356019192586238 3.439907795752903 9.0790144813327 0.6144391481603095 0.018153273870259057 0.8851799105881399
P 4.931832903861051 6.409724618830027 8.781086468237643 0.5394004739569161 1.0864929172414513 0.048145192246659016
P 2.7770515498187307 0.8075442221972228 2.633447468525772 0.08379173780567505 -1.5738691756122767 2.499867662878675
P 6.8592732890487955 5.98585151855865 0.7451953336791626 1.2696847888140197 0.18291264976925273 1.0532526671310831
P 0.8501429563709966 3.3549226748015397 7.361362244580983 0.6243317246836732 0.7366735062128991 0.803775442067719
Ni 6.7465906816385415 3.3994786980184086 11.367874751074766 0.6370941665556641 0.18371097730083197 -2.0889835233283183
Ni 2.084835968238134 4.497767128572802 5.974297973707097 -1.46777286077213 -1.3395673727377704 0.0892044241808141
Ni 1.5353916968576333 4.284542645316774 13.467895404639213 1.064727757650218 -0.2823194684043654 -1.746463731284973
Ni 5.338081170249087 5.092976880078877 10.466268018364055 -2.0703098581782147 -0.5943765730824796 -1.1822490264978542
Ni 0.7974891113630967 1.0234682871334428 8.393651257902034 -0.22482883038706444 0.18897762501641002 0.3770584492501635
Ni 0.47892370110751953 3.0011980752350467 11.217843929673798 -0.03137645742875242 0.8802228236931807 0.9389496481104282
Ni 6.634462023957465 7.744965046040229 9.910275137935123 -2.5735331108836257 1.7451923207717168 2.0407743106129432
Ni 8.638781399059605 2.074892570599393 6.644351873122387 0.1245018139305275 -1.0145645065322655 0.16917241736502475
Ni 7.450485370009303 3.765639469004944 5.394144575840076 0.4126923964036893 -0.06602952872624758 -1.153324115933388
Ni 4.445308089219663 4.181581855653592 5.919247372870955 1.4844436365595919 -1.8729424664362129 -1.949413502210759
Ni 5.377928620767944 3.9102295808158396 1.6071180310411253 -0.5626190781652246 0.2575939406332273 -0.3540231646972548
Ni 2.9384632684056595 5.8792069631964345 9.810510638209296 1.2877714711124015 -0.16512755787168978 0.651444264629749
Ni 8.041457406087169 8.007251010310439 12.277211852256155 -0.6451715442471598 0.5890700732679016 0.05518950068795011
Ni 2.1308599582373247 5.16437176767441 3.784742425415641 0.1927278360874616 -0.4877508681014245 -1.9282219557348081
Ni 6.259936612060346 5.8230364606578044 5.055705295800696 -0.123123188415446 1.1238397333210257 1.8959538397297218
Ni 8.98105770422309 5.8744614605164776 13.223559258093463 -0.003577432938613194 0.6225126691970634 0.04332514515019635
Ni 4.463376082886346 2.181195523628615 10.512603143461131 -0.2766869527089364 2.0709786021104652 -0.8238683561628523
Ni 4.577785166952537 7.703132608991819 6.350329205618033 -1.6418488860863596 -1.6485232127827416 -1.1278995052126963
Ni 1.8839645639427727 2.5831045171380915 4.325371510105826 -1.6583980486942924 -0.9138747074196711 -0.053238290498850246
Ni 5.987236392881594 8.472928850143768 0.19911261390522209 1.0317849841756102 0.2090152603935755 0.4350735923123668
Ni 3.460468563200886 5.6934860839940855 7.368631911526893 0.05240062508890331 0.9764676996605441 1.8598869188038354
Ni 2.8896325997786354 7.449359005559975 2.9663869510039644 -0.17394926992837784 0.7641989653266775 1.0453969185320902
Ni 9.083086011842157 5.5713955636832955 4.844718769450547 0.9769081296320722 -1.0914332919658623 -1.2578937097163627
Ni 6.449193537033946 7.685766284982094 7.486354538223116 0.47563531578481316 -1.0471437260198675 0.2841107559768333
P 4.83280515727503 1.5583067506546222 12.657715304980652 -0.023676517681333414 0.9468303364100854 0.12447353179575336
P 4.900100816874648 7.429065980481094 12.272819954153324 -0.3758775415681849 -0.9389090246804799 -0.5326407866355795
P 0.025777127397740945 2.6573799433253504 0.10334855447360751 0.16018409782348544 -1.0261069599542263 -1.3140620293778142
P 2.7718074923825142 4.146858440129629 11.450518511170806 -1.0450148526023226 -1.4309245815955292 -1.735086599796283
P 5.980976760941885 7.371159768791041 3.5230288758655823 0.11951387379763287 0.4543437533958885 0.10043423145836251
P 7.346767515716244 0.27605992428621495 6.899174288041474 0.027249579744572424 0.9291676290229997 0.5371397029471975
P 0.6789651040586631 7.937767249280568 13.517419433677258 1.3431196088654032 0.8057816738644703 -1.6038708641806894
P 3.291947823089509 1.6258609201278567 8.457079425142442 0.9939321749938946 -0.6764801245524543 0.11526821114740148
