# total energy = -340859.6960423711 ev
CRYSTAL
PRIMVEC
9.41429365933662 0.00000000000000 0.00000000000000

0.00000000000000 9.41429365933662 0.00000000000000

0.00000000000000 0.00000000000000 13.77877038182159

PRIMCOORD
 96 1
Ni 8.276896468873373 2.058181150606134 1.1818233705572656 -0.927096348316268 0.5205532593434261 0.3273831935122233
Ni 3.441555136850343 4.969815104477245 7.794691633953801 -0.5078139573998867 1.7493251119931679 -1.2116580757875908
Ni 0.13946334816135206 3.145635640242015 10.448896431364934 -0.6495761010727588 -1.3366705108059496 -0.4298311129665049
Ni 7.342226553107519 3.0249443938920395 9.405816215494314 -0.6195633567607524 -0.6661229496878464 -0.41067819418713786
Ni 6.9647698580095545 4.505615106425406 5.936611297791405 -1.4201835410289412 -0.3262783904838187 -0.2713125757709005
Ni 2.905844163192076 6.144860183507835 1.5218102349533944 -0.11028875565493908 0.6227677226306629 1.9700975129226717
Ni 8.243249782878458 4.978382111823461 0.5736628162020005 -0.3203211444591193 -0.1117080045999689 0.28169340478459226
Ni 5.671622463420428 6.926133596307504 10.033135799135602 1.6093779100418475 -2.3804075251371133 0.6707074837347352
Ni 6.194614726172391 3.6911845509077494 1.4890993297609119 1.226258856419901 0.7792975115310127 2.1977908093417247
Ni 9.156681051860726 7.276439468123617 0.38282284255658294 0.6720184892366748 -0.18791318830763767 -0.7653485055500883
Ni 8.493001582755095 0.9617924961663433 7.976805498688003 0.6005695892670689 0.5570279572306923 1.2980972785184417
Ni 5.376060709976008 9.158036710166062 10.246127606061949 -0.31153439940542477 1.2243960921795494 -0.4886708088125326
Ni 7.8947702840570315 3.3909533077449523 12.210374816119659 -1.3836890456473332 -1.6195826184889917 0.7509259023668552
Ni 5.116602773204922 1.1582782217958545 7.981269756801821 -0.3800437571307326 -1.0703258205632857 1.2613770402792728
Ni 6.973355693943344 5.102462503936773 8.167365867807945 -1.1132861261748956 0.15437674711308896 0.9633530166554569
Ni 4.8125210838832215 7.9065475655846305 2.111017933056571 0.16410605858571092 0.953463782566203 0.03782992636358001
Ni 5.79273735299082 1.774895636260026 2.8637933371334614 0.5957469710674449 -0.255823736106682 0.5291055197888113
Ni 9.59043522380525 5.70780159444406 2.81607793050318 0.09992952390780209 0.023497311790991793 -1.0248052104236673
Ni 5.647022913754868 4.388972006403862 11.10393922735033 0.3893519219055359 -0.06816508701201163 1.3046235096727337
Ni 3.0089212658664812 2.7471474128237814 8.051803528713155 -0.6065592311916005 -0.47540391650029734 0.16896441511927676
Ni 2.1674434442986312 8.209471296770523 7.348300655458924 -1.140088076859088 0.2318489704586394 -0.02727914743092721
Ni 5.353617033587681 3.316693358352705 7.398799868762036 -3.7893394045116353 4.35114421430568 0.5793800996736473
Ni 0.47958201267049955 7.205851093308319 4.737651088253574 1.491255774385419 0.15188020594348034 0.6929814646415872
Ni 1.2069030492059656 5.831383028986659 6.919354363351449 -1.4040588675529366 -0.38512117165363996 0.6578038882991897
P 6.314769357776505 4.459099080823594 13.25787786721144 0.2788266247597585 -0.47614747953454134 -0.6037032498000441
P 7.2668463027546135 3.5980395281786812 3.86017771439094 0.5775224776396184 -1.696968709878639 -0.3439565244898722
P -0.07584814075412212 -0.009547976758825655 4.270674814963933 0.38176742469005864 0.47261478379093436 1.4451944612509822
P 4.42694926754082 0.4899057272373781 1.0887282435852685 -0.0833291963469597 1.068432717305631 0.14686526922739224
P 7.2800733855254185 1.1772291951891851 13.303651105033452 4.149146779990835 -1.178281300099358 0.16944366874854044
P 5.311591626122292 7.714420657978523 12.144884281390048 -2.0717841287308967 -1.2074324677420172 -0.29361818124663625
P 1.5875229470163787 1.8433469663856634 6.625466471342365 -1.4574876767960383 -3.1891773350956303 1.2730755596631236
P 2.8341637302974805 6.712890427737045 5.867620528631771 1.6942333132253469 1.6484085415817482 0.7604978623260064
Ni 2.9631583837676336 7.500490245961609 3.7960371893903924 -0.6368226580618322 0.08484871831527967 -0.4808153173238558
Ni 9.19693657209415 0.14212006186805745 11.28537808722 0.17375669430159751 -0.08772552564244246 -1.1481695683156419
Ni 3.719869904076889 1.5380884903405816 9.979287921532437 -0.781991256313092 -0.22711171288397014 0.6070785940301803
Ni 5.203025990170037 5.700665559753476 0.7923248522762857 0.8897770430405193 2.1591111333833397 -1.1748617328948476
Ni 7.620833163441464 7.744376940808915 4.623852046385097 -0.48298558550229725 0.38552637751185864 -0.19433220446010402
Ni 8.712693542569685 2.614104613025197 5.947261688352695 0.031240188961204264 -0.6454453667338368 -0.0506587026971321
Ni 8.885539976499913 6.097186199770216 9.010585333726398 1.3669246817048006 -0.021418831995408276 -1.2203545751203242
Ni 5.160115639088665 7.7497525025613205 4.735240087614711 -0.7652646875870304 -0.4202954055619278 -2.48402066854409
Ni 0.30598243523730584 4.882836444178694 12.17678179159933 -0.07744368410046018 1.503280566760437 -0.816996054523051
Ni 2.369954317951854 1.6558613056165714 0.2259910637875032 1.76692431313217 1.1818836727386357 0.5884254977053672
Ni 6.8299571709790055 5.635245632227269 3.4678680879851473 -0.20651640523112175 0.6985386470143905 -0.2691891016699945
Ni 3.560504738849714 0.47182557601934944 3.3565770139815405 0.7646892746995346 0.15630815980784693 -1.5638853249266873
Ni 3.682005614465376 7.55690069433361 -0.13656280424556208 -0.2510399415647935 -0.597846533908951 -0.9582025828027692
Ni 6.6868504911220645 7.899468016656769 0.3791079622282132 -1.4123038811705484 1.340210148528092 -0.004623614814940424
Ni -0.09532913888766376 8.169065147836507 2.5993100503388487 1.2304826646932614 -0.9659297762436978 -0.5035081309356813
Ni 0.7371288478028142 0.7278218769649369 1.6542382813676841 0.30986369657122115 0.30072651015664337 0.38941619948456807
Ni 2.861493425161285 8.433983375004082 10.978923995863964 -0.11875257015157611 -0.9089430744460089 0.9678817577637461
Ni 2.1197977034423734 5.293902168096426 4.64311463290278 -0.7354954267443978 0.6303185383947273 -3.3362765747106993
Ni 3.5984443428115243 5.81287452740132 10.741433372215578 1.755129891600403 1.0203466604316813 -0.13700585993480918
Ni 6.083460159428698 2.1453951682493613 5.312639437020791 -0.775331327794413 1.7112321617761885 -1.41335906190794
Ni 3.7794623837489127 7.70064754616807 9.00321394169114 -1.6200865547086034 -0.5381262352301829 -0.4414818098315558
Ni 6.0163550733146085 6.830032485329301 6.508801718445111 1.013163769529997 -0.5367576370174305 1.7338483565138074
Ni 5.723730579531748 2.2474743557823396 13.596877172189306 -3.8394162665633678 1.2378247068806296 0.6241638316472412
Ni 5.722045420943866 1.9227847773607876 11.276738589811623 1.5510892016032836 -0.5857772614492427 -0.6887661410086588
P 5.514177814125811 8.335811119392728 8.179987611488242 2.489095511963836 -0.18062899594139858 -0.6501857096322996
P 4.697544313861985 4.407085107650145 9.326781336293275 0.43265726956139033 -0.2467929933629814 -0.9921974516909751
P 7.624570638074922 7.011991955645396 1.9295376502942383 0.6957700831303179 -1.1027348330216105 1.180659313413231
P 2.4806193414186213 5.720181390774029 12.496807528878778 -0.552236706489636 -0.2559638612289721 0.6875119568865837
P 8.377337569287405 6.1305033854825846 6.785934050372004 -0.44843690099315026 0.4232645154925807 -0.6088266870695386
P 7.411798184193816 0.9871357750410807 10.116993621043747 0.5053539258951685 -1.0621414849802804 0.08958366189710378
P 2.075089222247675 8.214338486658429 1.4669427893330909 -1.1129128019958767 0.3910365086968104 0.0782594951335362
P 1.3547262902502175 4.259581952594653 8.817090529233033 -0.40039686686578785 0.03805772610366994 -1.25242548751294
Ni 7.1122541844774725 6.396363042028864 12.520369623369007 0.2410460635768752 -0.18610467434398917 -1.0979680077605865
Ni 4.03065457057497 2.740265564065448 1.7327902072974468 -0.11714074557976599 -1.4219547739967509 -0.5224656458747905
Ni 4.317781116786193 9.015061830422141 6.5102345739595 -0.2543340389350329 -0.11903333461678854 -0.7441944971802925
Ni 1.2662225143581647 1.1683703447355716 9.013217570269259 0.05365943719666888 2.211813605983378 -0.3494697409986175
Ni 0.40694508752714004 2.529131197303288 13.22443641282108 0.07347390081943475 -0.09758339227312872 -0.551754881757211
Ni 3.8639556704876825 2.9038389186154343 12.041515335608244 -0.9077793931552107 -0.05423767829764208 0.7455399554645935
Ni 0.16864860033058435 3.110143752664838 3.1397272294612626 -0.2333921465760432 0.3581194462538155 0.2601053942011714
Ni 7.257639123430879 -0.03391970051473953 2.321943302496659 -0.030470657785031396 -0.29798751395892553 0.39643916776962046
Ni 3.5405370217273826 4.315050971587949 0.1365091427709759 -0.5191342675087124 -0.5908760161283888 -1.0188075980793356
Ni 1.2821232565644913 9.292068010812288 13.151505761711563 0.32179052991579415 -0.974135966203574 -0.3808780801065698
Ni 7.8604081117343005 4.962481369617134 10.610190585389077 -0.024628597181957583 0.9241886877511697 -0.042035736914811474
Ni 8.93622653424939 8.29116853825454 6.796116550532077 0.5179070799698307 -0.6394238431301053 -0.11488485966605376
Ni 7.864032614842315 8.14305345410289 8.968904489413616 -1.3700686266504212 1.1618838325779408 0.6498548086554421
Ni 2.2271206526147385 0.1889806506224753 5.239088383950708 -1.249924318357641 -0.400365242296904 0.5674072435824873
Ni 8.90766356689948 4.894416025536765 4.913137290161693 1.9167874886456215 0.3092684861893835 -0.0482889169133749
Ni 3.747905670974723 0.19025911171875662 12.650441272048395 1.5147867676278235 2.3479782009638144 0.22178592979568254
Ni 2.9898479066539188 3.2770026957465044 3.729692778214297 0.14767002451687472 -0.7764374163743983 1.093168015268782
Ni 4.652054446282961 5.105145577666082 4.755081653200296 -0.2604967161023191 0.36967552652253105 0.6210288855626853
Ni 7.046241156442681 0.28540937902446645 6.29032608538781 -0.03668115747111748 -1.9970244192205024 0.7313832043482372
Ni 1.7392907771574047 3.6438871389216123 5.860442129619146 -0.37651826047597736 0.09435177270970847 0.8496161545509174
Ni 2.1534726323186497 4.0312005996146185 10.764733749338525 0.9913960388356021 -0.21152362863772603 0.8634502322205324
Ni 1.277886824360319 5.12056619088927 0.4224071236429902 -1.0773415897594867 -1.1222834445774994 1.2042957218852484
Ni 1.8077138644016808 6.31963654766441 9.313112723143858 -0.3532202091799852 1.2821687802136434 0.34969316986333326
Ni 6.843702039908098 9.028204184548862 12.075659096315118 2.517424440815516 0.642190607241965 -1.4386913700251418
P 1.9184636165125317 3.3247049223654845 1.8208373899408279 -0.7017365851263978 0.12431232362754076 -1.1537432057486774
P 2.0429958947276234 1.7167812007125691 11.514188731996724 -0.7279962901538753 -0.08994207367778703 0.4164441501366376
P 6.162869727522461 0.13818676992382814 4.398776051953695 0.17668235258882473 -0.22663220214439037 -2.10985291057816
P 6.885689790198338 2.206541006396248 7.2934473312793004 4.83482708298532 -0.921558192106858 0.2522488742712301
P 4.682876844141762 5.859870681986271 2.755892350322572 -0.37577186922825606 -0.5011522291089949 2.563022955380921
P 3.8974987992509402 1.6610485814932359 5.1456129195097144 -0.4802756427703018 0.5338404633706355 -0.08104785651195075
P 1.4692511741696754 8.680487243524187 9.49167175054407 -0.23065829258464793 -2.5310556584457053 -0.5473022453024962
P 8.869479191299208 6.974438337728855 11.078173246684553 -0.37243534865585537 0.043140539943216025 0.2428869734403559
