# total energy = -340871.8651373204 ev
CRYSTAL
PRIMVEC
9.23842633197668 0.00000000000000 0.00000000000000
0.00000000000000 9.23842633197668 0.00000000000000
0.00000000000000 0.00000000000000 13.52137077129237
PRIMCOORD
 96 1
Ni 2.4210682418881984 4.194707554344672 2.5785122779049545 0.9731597183332336 -1.1753314734424145 -0.1333960310963638
Ni 6.380029628692363 4.000414206529623 11.308220207672392 -1.1110752345665058 0.7738580856829963 -1.5275589796918272
Ni 8.779073461793956 7.428184546181029 12.306434963005962 0.8449277479363126 0.3744415804526067 -1.075482939284193
Ni 2.5323912812667984 1.3068585748927275 12.565261491482534 1.2444069880838378 0.42643622835234296 0.44948436842105816
Ni 7.816152267235329 0.6222948662837231 13.005436484556121 1.9348651720829388 0.8876602538078325 -1.674165081720562
Ni 0.2814135574372953 1.3164850153103624 7.810349611547885 -0.6006030136081656 0.8654621204442386 -0.8385735235835108
Ni 7.662489519186843 6.904476624496874 0.7368929278581499 -0.28721793414724733 -0.1465855332034443 0.09617211374789889
Ni 2.2537510994661383 3.5929811208304523 11.118583026815585 -2.0190965685291937 -0.11286242991938628 -0.4734084833368234
Ni 6.379576945793645 4.766242810042355 0.053408267464865065 -2.4038102203317697 0.6780112164850001 2.2515507766719995
Ni 1.7725861318349665 3.98724021033428 0.1585489518266883 0.931971159910066 -0.09677580877016882 0.6951902993674478
Ni 8.270054638251873 5.992496113683773 8.910353350107465 -0.7607184629772447 0.37349875692336315 -0.3337186488119478
Ni 8.604781307361039 1.0237839483699325 2.2624638595024833 0.44375955012213897 -0.37254076388546814 0.37467092285459347
Ni 3.8522113685452664 0.6284495060209865 0.9568275284362943 -0.10645961171683602 -1.0396615587102094 -0.21203244995334453
Ni 6.280550252092466 6.3121271938846695 7.3887669518145005 -0.7592966429290535 -0.24585736892258953 -0.5018112028492325
Ni 7.5524690979453695 0.6254784280571559 9.23359573122895 -0.14963460444241325 0.14240594790445796 -0.9883562235680139
Ni 2.2145524558077647 7.961860730063485 2.482131469554649 0.8468391060264127 0.16044943566973013 -2.1006303635386274
Ni 8.881278174212666 3.960171620676247 7.874224092399639 -1.0095917359080226 -0.8151217203184735 -1.0345666606858055
Ni 3.209179930129659 3.097459638411368 4.911611298775147 0.9365369249038773 -0.792960353730086 -1.7384609155851543
Ni 7.467965210709184 7.3427383394413885 5.175940234077767 -2.2203519824716924 -0.5756180615280537 -0.4382866999330258
Ni 4.393684784397475 8.889722096037731 7.9082713894391325 -0.9072088653637215 -1.4519101827082608 1.2258775618210822
Ni 0.6218237065319963 2.08824468863895 12.651473563779392 -3.7736621029856945 2.38584360855102 0.2624654097929157
Ni 4.551052141474245 5.202970946187132 5.341982473642213 -0.4410076984086147 -0.20067023086298985 1.728146935253656
Ni 6.106211905527025 8.591394827356092 13.162040747603621 -1.6155462436360886 -0.5903977909403896 2.3490084420005415
Ni 0.7899455159025938 6.383420131219496 0.7909488090209768 -0.052605027790225536 -1.0236597839653143 -0.5689727882973943
P 4.014345753698331 2.4750021758211664 11.278891898891372 1.779019810844123 -0.869508008378838 0.6989168562894157
P 2.728375261132161 8.436826713510172 4.795895387593682 -0.0376391505090126 -0.20631997294959953 0.49261025307625494
P 8.10347656995017 5.545282363456448 6.380207930323898 0.9977926863905655 0.5917347645842583 1.245033823034559
P 9.222730417817068 7.829030633782529 2.1762785786424867 -1.366999500806794 0.46513158804001187 -0.7110432072393045
P 7.291908516813915 2.1259651840566116 7.210717529322223 -0.08864006703691187 0.724696536356681 0.7537392034459341
P 0.2655641129262641 8.663177401295655 8.990602941938354 0.41903633634384607 -0.5264392858105579 0.47001848381866795
P 8.020219870292083 2.8404096593516033 11.672039605686713 0.01760588600722129 -3.13614627551158 0.16548494121110854
P 7.153951093822991 6.093730791319516 11.647985514597083 0.12706700355454248 0.8867184587198536 -0.6064468739834523
Ni 4.91178498119343 1.9201884720965343 8.56220509497264 1.275208032625094 -1.6624588490272272 1.7782646778456535
Ni 1.5720753229824245 5.2159694122788895 8.567398014510788 1.1219661704473969 -0.560780225184273 -0.41744122394258437
Ni 6.343269929631163 8.23839455062113 10.914180068876721 0.4855420333755638 0.06776990845612199 -1.0272611281633277
Ni 0.8763968634459184 0.10024801368506751 0.5706474429106059 0.1083678844831424 -0.49933831582870786 0.8124734840623491
Ni 0.9105753461417746 6.6071932980102375 10.185648840847746 -1.3006318720148373 0.9910445690334547 1.812050773157163
Ni 0.7783577575380645 5.865615564071682 3.2177347130727783 2.039172256233146 2.166995164117107 -2.451528352343339
Ni 1.4090910025909504 1.4115022319086115 5.5544847600975285 0.7865238540761228 -1.5607814891903828 -0.898376354673756
Ni 2.292238384283669 7.839913500204769 12.718809683042366 -0.5021953256615287 -0.5355656735918582 -0.8241948862643355
Ni 7.329702919643612 3.0776616904123357 3.2742406249445843 0.44299927491734675 -0.1151746229923307 -0.2381502300863189
Ni 8.33011364895729 4.64018448038916 12.771070537935378 4.339829046403177 1.6761132065858682 -1.0235003755693148
Ni 1.8165610419961395 8.75808375677585 7.214597668454092 -0.4543023586349918 1.025700725654743 -1.904956300338648
Ni 0.5475837111422511 2.6570638469443253 3.4111448673140012 1.209272863384866 0.6395603687079695 -0.013471295013557445
Ni 3.0796571905372963 6.059317652590446 1.207557499924366 0.43125936077259924 -0.9709503693867406 -1.0806788816628357
Ni 5.270513082361152 4.650623902339187 3.1481397985294692 0.20402269227499056 -0.3393051417607898 -0.7113617669209877
Ni 6.305383142536423 0.13634716525119855 6.719066947608503 2.1696878804579214 0.015502723621289433 0.8234022151597109
Ni 3.065716404942084 5.844311752552424 10.47867048118788 0.6408520909361995 1.5368074948732888 0.3368371398362715
Ni 2.8538515699155753 1.2544582197594976 3.0202550319563453 -1.2856531392178179 1.0255469736856984 0.26220161460856783
Ni 6.835012895609928 8.550976711399132 2.7016106157061244 0.820193478414426 -0.7570636398334768 -1.4174748838485265
Ni 5.182609454171328 6.513829759756286 12.349474020562235 -0.6250320931848075 0.8009716540703367 -0.6208671631738405
Ni 4.343150591418144 0.8203122238227147 5.789053028258718 -0.37032370162949124 -0.5840849613484844 -3.372568210052882
Ni 4.3527308397032565 8.73247483850552 3.340765610360465 0.8044958651735111 -0.39065547120830785 -0.01497204792880002
Ni 0.31765313308629395 1.4662214320944575 10.209554193270655 0.12905755162201 0.30082344074582384 0.9566684055464298
Ni 5.156908151635953 2.402304997657664 2.193896257986469 -0.4353373874967148 -0.7732019401562361 1.2713138397770105
Ni 8.815454385368472 2.7399140558362167 5.633962943315296 -0.984363557468853 -0.09913453881033249 0.47961795458164497
P 5.478895030595484 2.5632014336591324 4.4627281648784685 -0.5567970721668088 0.6952530342845833 0.23551022136031055
P 4.532298135670215 4.194966230286796 0.9067838959043493 -1.366955020722104 -0.1425224188776642 1.1708451555362867
P 6.512813532840796 8.10256196572623 8.637046511927824 -0.7761404539592698 -0.5838538191742848 0.06416136516925725
P 1.2910978192761389 2.9959847616865094 8.991495373938683 0.6700749923570589 0.7511333903919709 -0.004106823079521959
P 6.7011665724134835 0.9954681711337989 1.33286659318805 -1.4604783839932458 0.09824493711652757 -0.4395406269447849
P 4.208657578366389 5.2936553407547935 7.707965673654988 0.40645952812010006 -0.525645586264669 -0.23836414586933788
P 8.4711567064007 -0.08383964437051718 5.205782199372434 -0.244666691048598 1.6221262108464516 1.0854873587950724
P 1.3454936745343296 5.436536845072589 12.287356688431629 -0.12454500846363711 1.950747904751466 -2.295018618047647
Ni 4.6577005370415945 7.5938387718322895 5.677813134718659 0.5448823230070938 0.48969230809851144 -0.3066426185307622
Ni 2.737161004737891 6.6901913217262 6.791743801233695 0.40232236602327487 -0.8894538553731456 0.0400223060292085
Ni 0.7894059917947339 8.923451591205472 3.817853660375224 -0.39540558429878353 1.2038156969250364 1.5325299505438574
Ni 9.108968433841294 4.176785006926043 10.362359615339528 0.20081986906697671 0.08316027486926324 -0.15135570089857805
Ni 6.648877078398307 4.083190508009478 5.795151313594305 0.1309272578408971 -0.9070067766552444 -0.08202616126482001
Ni 1.8291622557482068 3.3961749210061933 6.766797278143734 0.2277264636498336 0.30592270964560214 0.9975952256677787
Ni 0.5525308885353831 6.835668823891745 5.575618584569105 1.0529240801470705 -0.3553902202481105 -0.14070799137674478
Ni 5.710825727989654 5.960392581580816 9.765674591168786 -0.21905181869397114 0.5221437437589975 0.341458954878999
Ni 4.199465343994462 0.21619765705709504 11.860730771669466 2.3568302520378053 -1.815754961481628 -1.1373459953375769
Ni 2.8807723447495373 1.2822843603908956 9.755736815777952 -0.3327267172123238 0.5945187550872987 -0.5065340622461987
Ni 5.438329099814451 6.874488692063435 1.6424277884990977 0.16696152575663506 -1.2822523410663853 0.721575474229196
Ni 5.994990488839974 1.638822954477062 10.66941627322522 0.1168430118336891 0.17892949675178862 1.1068917926127775
Ni 6.304413107753455 0.5151651486954922 4.450545451847053 0.9675770820391336 1.1531351398510332 0.29343640425313333
Ni 4.1236086239664385 3.92806808857329 9.513501577460719 0.08020273490283607 0.37382297303200135 -0.3619660736934154
Ni 4.655049108634818 3.001500102309665 6.7477051459296415 0.2137617739396254 2.560549297029448 -1.2546566908363037
Ni 6.465328020607932 3.8701062006843827 8.581392382979727 0.15190591697509323 -0.4510373147304748 -0.41601914678407703
Ni 8.370143751001065 7.922190926653384 7.247143721186612 0.3527774652156118 0.725338540816054 0.6398439613866594
Ni 7.901099598943729 2.7505105310368188 0.5584407099702785 -0.170540501357145 -0.6533368536667715 0.8158899659430658
Ni 7.578835567189064 6.277048888447279 3.051773771661571 -0.08863261083774412 -0.5286226666151219 -1.8189649837784931
Ni 2.3967342264754823 8.159304381316549 9.23487987251307 0.10660179372165512 -0.9516095029662838 1.0362530472492928
Ni 5.4130065727657595 2.334088456348819 13.446408753837039 -0.08942579616300082 -0.17586654155574874 -2.088292925019197
Ni 8.64524561545052 4.850820604690578 4.389807416793558 -1.245317672823565 -2.687906835241216 2.7357118705396366
Ni 4.128144691380123 4.539642684741252 12.211731852908867 -0.1664781583623133 -1.5230400087755511 1.128348934045289
Ni 3.442034470174274 6.321393335668631 3.507808371515343 -0.06190059415953856 -0.06928840198317746 1.0091839589466427
P 4.0966508954264595 7.723389226704164 0.32519446064187496 -0.32986919315887064 2.074820344454059 -0.46290758380549957
P 4.280292337481879 7.986379514006289 10.096502644293075 0.5481473669116109 -0.3284599715161698 0.6090280044470673
P 5.649417907014587 6.710478906329968 3.9164655487263533 -0.5441534152608694 0.33310106983260696 0.05564587149907836
P 8.28886407461493 4.585465280203314 1.5180305279314028 -0.19132349954076724 1.5628031476061022 1.2799141798515117
P 3.1590245126370102 1.4595143344522286 7.254309968626113 -2.414426048174403 0.7587618534715063 1.8778697285345014
P 1.5743572143290232 2.155925401210537 1.2902534270936323 0.04076304084997496 -0.9027917101326323 1.2826326072239393
P 0.7169499365629978 0.10474435586478241 11.84661445597067 -0.13952348415034035 -1.5712571919107263 0.572607042615872
P 1.7988971705196348 4.616247717316135 4.6834110780034734 -0.6565844140697917 0.5507534370758902 0.2545204439142262
