# total energy = -381179.98047921614 ev
CRYSTAL
PRIMVEC
9.13740127989092 0.00000000000000 0.00000000000000
0.00000000000000 9.13740127989092 0.00000000000000
0.00000000000000 0.00000000000000 13.37351039580718
PRIMCOORD
 96 1
Ni 6.114419992539815 7.992128544116041 12.830398971105266 0.1771505504744949 1.5468491953800068 0.32821520249521535
Ni 3.3815146426274865 2.8929377959933222 5.567218493010193 -0.04281812360679078 0.1791539540577689 -1.0196794591613279
Ni 8.812283408529531 4.5672386575953 7.790979619739098 -1.0760010165711922 0.747808439783796 -0.2837808834412403
Ni 2.4401795623908753 1.3887022470817334 1.7574795392267286 0.055783425518207155 -0.821786791043475 0.5426770878256589
Ni 4.955240128300863 6.0641642854800075 12.015055862207722 0.9815533417135676 -1.1369212490953322 0.8557410365017326
Ni 2.044383888390399 6.813010870276272 3.820384026278859 -0.4325485118976679 -0.6511971816159495 1.419803531981703
Ni 0.8227105955525134 4.646487338927973 3.303979224035487 -0.5412393269378679 -0.33265164100001415 -0.35252369733359284
Ni 6.899121739972931 6.010427228531148 0.27444824373386506 0.41679484860783705 0.02143734393816953 1.032432645061938
Ni 4.402034442387787 6.022881506480696 3.8408591150751534 -1.3555439506716849 1.211634678748823 -0.3983155588567269
Ni 5.073176566668306 3.9909062090334277 4.46200503449232 1.4850429607064877 -0.8263646402221445 0.11680701638943108
Ni 1.9241813745046232 1.3499688030405472 6.606273511274278 0.32011854153000996 -0.036779887832510856 -0.8851688548445465
Ni 3.6682188827030457 4.308458315842426 13.258564802893028 -0.40303996091558975 0.04338016675784787 0.2939601379670873
Ni 1.5862711376357619 8.951400343072361 12.084557677591178 0.40777387605614934 0.30593916470583443 0.31653288106128064
Ni 0.8187641519381259 2.528099637541687 8.387303788569362 -0.472821757595418 0.2784931526797397 -0.5546358028494319
Ni 1.146277853626506 4.766068509526464 11.981688813940394 -0.10712449899434455 -0.5322162975036512 -0.34067682529733584
Ni 8.412531239773255 1.4981500396567102 9.748045587723274 0.010081295495401993 -0.3879159607899577 -0.10214298661935312
Ni 6.760498225099415 3.1161553719504194 2.598432956441952 -0.8977811442919184 -1.5678252834110415 0.9992425314632145
Ni 4.428669967129485 0.5048222323762791 6.322367143471758 -1.2739949861535993 0.6312647043580806 0.5622313558085027
Ni 3.046729396997616 1.5958836837861103 8.732809033385152 0.48718342563372874 -3.457285030775988 -1.5806239778376068
Ni 4.748506424259382 2.81844056332812 7.421723527766842 0.5438752218988181 0.6405582138448644 0.2431988482538199
Ni 5.2281651672407525 4.80386080123544 2.00538454597186 0.12622908103427938 0.7434658465443841 -0.8812157837340694
Ni 7.136904333576089 2.18033014468782 11.395741991747917 -1.6879202265231252 1.2094189020444268 2.1391984536198123
Ni 7.219150082529786 0.38600677600535405 3.1566971077056305 -0.1316847048322119 -0.30909159429188704 0.029508550982078212
Ni 8.167310801525247 4.172292761914198 1.1496641745422085 1.0942332233085026 0.5555775979374109 -0.14350303762337868
P 2.2502495393099373 4.778385726456759 4.951635423494483 0.5785779154873262 -0.05786910440264228 0.31028895703409787
Ni 3.387271205436155 6.353006677455929 8.310018734772532 -0.0035941451091615517 -0.3269165382884499 1.0593621224629304
P 8.326968614153612 7.585870545645842 4.248911699157452 -0.4072827953523437 0.9043513413102683 -0.5621277403511028
Ni 7.537497143250456 8.943715788592852 5.912722824085854 -1.5212155539723027 -0.3572208456989461 -1.0651923559914624
P 6.290927173135142 5.5005419621036244 7.631299877347651 0.3996391627641569 0.6330814458518452 -0.24171660728133856
P 5.094667734487336 1.7366362131587056 12.641965654354582 0.004065685428941385 -0.04570650089817935 0.20747876914439103
P 4.650325047467086 6.748884588067958 0.8357067213981796 1.3867504581814762 0.7411870778125363 -0.8820879019263775
Ni 2.557796191713392 2.071631619018098 12.668899972118254 1.9108333279447156 0.006784627022001217 1.5943279576872607
Ni 8.31620475544153 0.10558632679252705 12.076721442250362 0.06403486689372198 0.6882575768033566 -0.15490742280557837
Ni 0.8473194446895086 8.740353785625022 3.194249999500975 -0.6058580913595178 1.3980597125467085 0.4069817191721572
Ni 1.321962668106309 3.3342103161822823 1.0568802606881353 0.9004116399362299 1.2821309849971727 -0.04793873266280776
Ni 1.062816830302091 8.475579308630104 5.573570814382553 -0.7234053283490831 -0.23054927781060938 -0.6829551907538367
Ni 3.620101327543601 0.9387674704759191 10.977766189871627 1.0556661616685818 0.037855894505509 0.1371405857404606
Ni 1.716524792933499 7.115422303158343 10.390976899280803 0.5103444371312243 -0.11963754385969075 0.7387578995457534
Ni 2.3922264804545352 8.257177143149466 7.473291365650974 -0.36871856192590047 1.79339767683235 2.681868085246304
Ni 2.4534927560610824 6.678161102132883 12.740756495812496 0.9288655244015487 -0.2738422841712897 0.3605882195092822
Ni 4.380150366313561 5.121531694261124 6.618925157091553 0.47891244387418813 -0.154198826774328 -0.8403324152561463
Ni 5.392821138371249 0.186667970822692 1.5458171209328735 0.45387426995863767 -0.6847896728594142 0.013991172072769452
Ni 7.072741501762641 1.6355674175607908 0.6391657884885563 0.4661489735609327 0.3179619001983234 -0.4762194704230572
Ni 8.43491787291808 5.804150394553847 5.422369666642159 0.8603132292534474 -0.4327189760372612 0.6050150266329323
Ni 4.432599049681434 1.7150445339255556 3.5896107332003515 -0.2355037936024073 -1.3803972622699388 1.1036354904590089
Ni 7.04308149719607 3.6984636809517664 6.250016286368074 0.40983847189466194 2.085803325828124 0.7309898255645605
Ni 7.261858296129338 5.262028376397779 3.4582423149460153 0.11478458664276361 -0.10063452039462668 -0.5768817587318259
Ni 9.015937808338439 2.094603045845072 2.557002151541847 -0.380334548898274 -0.11361704869722368 -1.0093791056765842
Ni 6.383772307577815 9.145168074692412 10.713211924247645 -0.8160712287159364 -0.4565536165630137 -0.33370990706119946
Ni 0.6209878423749597 3.3442157705878257 6.019470514581528 -0.8399925154182243 -0.060867267799017764 -1.9375180363247537
Ni 8.535301363419723 7.9528103063927045 9.91287425573803 -0.769488752970707 2.0959432424756033 0.09259982301560828
Ni 1.4472638519083343 4.907780466033837 9.317699571989245 0.08148134450494354 -0.5512905405262828 0.5726422667291815
Ni 0.38746419151008843 2.429269505258255 12.4132519315254 -2.076663568310385 0.8104186584158495 -1.4971081194011377
Ni 4.565767535988639 3.3926165851870618 11.025482613114722 0.23223283616061938 0.17188493120018142 1.9121785291187003
Ni 4.620025424810664 2.355192593052099 1.427622094109105 0.05773617836920379 0.80224589279707 -1.7594837976937248
Ni 8.967573543344336 6.737426286858321 2.1410320092473074 -0.32542427001363955 -0.34969162720143643 0.061521870663881144
P 7.715767842293519 2.167976378152391 7.653660012028753 0.4034947890648213 -0.085015325800131 -0.023035284552908715
Ni 2.3283377706795947 4.12439450438556 7.314520794687246 0.6444544635754772 -0.1957321701314242 0.0702988455255628
P 7.058889201416701 6.873317718748042 11.213956134431054 0.24265814525900145 0.3285049658214923 1.5072966298983654
Ni 3.617085985120013 8.264231216940406 2.6261832441402495 -0.16828255856090374 0.6530915704251848 0.19087278515659384
P 2.993293874291116 0.048040800988662466 4.557946834230005 -0.11285908748527661 0.37360982857993075 0.09925820887239035
P 4.699941136437042 9.12078035066648 9.113659573846169 0.20160868351685926 -0.12929923531917087 -0.22932980358121152
P 3.3449924496969317 3.5342828546880174 9.158433753875943 1.6176041546063817 2.747702981463242 0.10351055639084109
Ni 5.749499597476627 6.585626639333852 9.580260970393274 -0.1737628649491846 -0.46412782936584585 -0.5742330082550692
Ni 7.975745183614544 8.693734764276087 0.9440726456611781 0.5278510785564199 -1.0586632966236929 0.9819238376791088
Ni 3.023831069380911 6.060472775361432 1.9066750273853714 -1.682331419581438 -1.208185800968274 -1.324274965355074
Ni 6.073795106432923 1.9128327221103905 5.510113389948197 -0.13191147613103735 -1.6479061480240327 -1.3846385540447959
Ni 7.023564008054298 0.2531544437825605 8.398216586922366 -2.2130431075151047 -0.18425707961228913 -0.4970181523359634
Ni 6.03245750302591 6.190004575957765 5.269430585177624 1.1120995620659622 0.9740248945470064 1.8021443126767287
Ni 6.4396840660321715 7.189627138982469 2.435931584534129 -0.7686405460377987 0.5772347711958704 -0.09671667339745924
Ni 8.440647023522898 5.711597656952249 9.978457953451079 0.7166279004159335 -0.5428624643635876 -0.7952589199562755
Ni 0.03423601512939754 0.248284208898401 7.56883203347231 0.9713195798007013 0.5499427682491368 0.44715854850135894
Ni 7.865785696567685 7.334473224130118 7.449780832148268 0.2323750181654385 -2.268227980217365 0.7183821641028788
Ni 3.365542465183751 5.281938773794747 10.612254604945392 -0.48104800215995214 0.6063376020990977 -0.005966759106396175
Ni 0.12684905957946738 7.05167979180394 12.329079104640993 -1.2780892108276312 -0.706967494508034 0.7186377317571108
Ni 5.518844176874678 2.0707818406987233 9.55930525428946 0.47466780966522126 -1.7530588680039876 -1.3045669454031854
Ni 1.723195095870528 2.332659761486738 3.9576899278872797 0.19108464405708384 -1.025042266135138 0.42724535451719964
Ni 5.49116698838665 8.587156115704161 4.5384476198908 -0.22161135189103123 -0.5784686436029716 -0.5812017262634184
Ni 7.424604550391561 4.706181981513741 11.74365402806181 -0.35002869882588106 -0.5230238323711056 1.2375192598250688
Ni 8.693542878849133 1.2992836381204105 4.684286026817848 0.8853102655184172 1.1130866085695799 1.3230655184280053
Ni 3.243530745843822 3.701076977718876 2.8103631005934164 -0.5170506455068064 0.5422045190646146 0.21890012360745525
Ni 1.9686348317493438 2.6287389752792727 10.494274307051787 -1.4138771391949392 0.7188246509569363 1.1011386921790844
Ni 3.53403614485336 7.361392008311608 5.841963702285775 0.6412318428731214 -0.5652788843855748 -1.6201839995184162
Ni 6.7085338239995735 4.174193341381187 9.407074321424405 -0.2078299818362227 -0.5991863357662971 -0.5170922973780191
Ni 1.2412885521733927 0.30406712999465885 9.916244129331421 1.0230722868929607 0.4349905456802573 -1.057671879244701
Ni 6.159001373402505 3.67825174931244 0.10412617006740756 -1.2229169365308614 0.2017593501621106 -1.0496958030177599
Ni 3.7830029176276465 8.733244887426379 13.11339525373994 0.07358831491011197 0.4980360520775164 0.8719978646802272
Ni 4.043747800656495 7.8088505491695654 10.80929992240587 -0.6035890928196831 -0.17827977898293168 -0.5784825275600425
P 8.81986745159492 3.5032979269353253 10.578406929370546 0.8140462278661077 0.7388692283126371 -0.680508271875241
Ni 1.4943945677291501 8.346760225333894 1.0649878768470749 0.08698684770420503 -0.5609794856792726 -0.9355730183287112
P 0.40223480068503004 1.1741195153376391 0.6238551588977539 0.17831885975098322 -1.9579264247777766 1.0461008865776498
Ni 1.331063519784776 6.269682715150768 6.710332978312316 0.39388760499236036 -0.8802302798923485 -1.3815977103359434
P 0.7384043626093655 6.912270460420033 8.571336532861862 -0.45974666957901467 0.46259185233729366 -0.5040938282358222
P 0.8419996496621958 5.498403810203262 0.6884629821537139 0.5718297981302151 0.27671343507149765 -0.3375467643087864
P 8.187714618591528 3.4698550382373443 4.303220757426665 0.23539272194583974 -0.3961614886282016 0.07581103359304363
Ni 5.317263967157149 7.773095897946833 7.474240741644341 0.26284876127426343 -0.41645263477706984 -0.32166788829500087
