# total energy = -340890.4331753116 ev
CRYSTAL
PRIMVEC
9.09714759044269 0.00000000000000 0.00000000000000
0.00000000000000 9.09714759044269 0.00000000000000
0.00000000000000 0.00000000000000 13.31459505238137
PRIMCOORD
 96 1
Ni 6.057462891457899 2.3859816002153513 11.516551821943985 1.0508548563228675 -1.9787191931534112 -0.16323111217992534
Ni 4.444384023213572 0.4295463721871007 6.143966755443013 -0.14647986086351547 -1.3074679211000644 0.24355983113766444
Ni 2.649662414779447 1.4018067192901582 4.773615242380844 0.137771277345924 1.1938141056276341 -0.25212700398138516
Ni 3.071014986391151 4.500704462163592 4.822493305122657 1.7570011404811867 -0.9813275988560067 -0.2991686787512202
Ni 5.032814802183709 4.673004432073681 2.6873782777810438 -0.3864581452975086 0.47476525447503404 0.4176762227715258
Ni 7.4406568473670625 6.199414777966719 2.61688994162205 0.01586087829165656 -0.6401159841011234 -0.5926773310031856
Ni 5.095939907316028 4.506526636437217 11.599155738880501 0.13824718854107804 1.6191699564316049 -0.15413274942308294
Ni 5.926664107541991 7.9921804997307975 12.409787979574077 -1.4676772157345304 0.7752539375892584 0.8805889487833479
Ni 1.8646968654852554 6.399670281537512 0.4108335401857777 1.4404050102821386 0.2946041993089894 -1.8029025309989917
Ni 2.710003792837189 1.6657513511260278 0.4235813727008258 0.38755266391326804 -0.6195836684757265 -0.15393040360428972
Ni 0.7818215751864342 8.883837392589168 4.351955187190314 0.1858755890523186 -1.0691078889957846 0.6823142147357281
Ni 8.719815826724387 2.479509371632756 1.2904721917427637 -0.463704368675182 -0.16711990571137025 0.7251580493741318
Ni 6.571970251447603 0.8961017590303909 4.8676824746332885 0.24961015109680237 0.1634907935992152 -0.3128400055907257
Ni 0.9764695971599424 7.311058886895089 2.280004382714422 -0.1300602818549115 0.41476239155884054 1.4510912863513912
Ni 7.15123110593678 3.556593417958781 3.6405700944232495 1.2734730522118585 0.4370309731490538 -0.01726547194866704
Ni 7.720366835478232 3.7409016223082228 12.790678259413546 -0.2481471933980307 0.7939479144543359 -0.38669134435423724
Ni 8.194783067305647 9.143997611147181 6.297683072843476 0.5157188140692601 -1.0861355339020329 0.4604724920014457
Ni 7.231813636742672 0.6025004269882439 0.27987009790369455 -0.9147499109357731 0.4926223372611129 0.029111058433343415
Ni 1.7222264415801907 6.5702781820493295 9.50603496291687 0.7522510489361819 0.5063682260922957 -0.9607842274870164
Ni 9.457940164557806 4.945946142591763 1.4494002648328521 -1.4911238767932449 -0.4169794538148173 0.4431635684093529
Ni 6.402999837450241 1.8257519778830857 7.004475015937489 -0.07151112066610911 0.8279103874427096 1.0535437160089403
Ni 3.2525485608133184 4.08111673712858 0.07406351504889186 0.7636680325238718 1.5114235075825453 1.890601060058241
Ni 6.232719434241314 5.67256258908747 4.683714503592961 -0.5351483835487815 0.17053098827544824 1.2046479630183449
Ni 5.3641511012367875 3.1066303180805916 9.335700886538858 -0.42083148057105585 -0.6464488682976867 -0.7651782985208112
P 0.14920504205313462 5.539425838314809 12.585726808405182 0.4010854082923802 -0.5387294160318206 0.020627446442364476
P 3.9858968963129033 6.054888398771279 12.69818210450025 -0.044761877596722906 0.20780555635619052 1.0663367540085507
P 2.3480828845529733 8.842545440982942 1.4827531359881512 0.698153752871146 -0.9978960447376493 -0.6077167418348115
P 6.462413306483124 7.701462963383555 5.871709150402083 -0.1805246091530504 0.3408187501918389 -0.522614769858145
P 4.920128438547157 0.9760511283840256 12.745888454669494 -0.29821814191249285 -0.9020394053476399 0.6830251247598237
P 4.221613080068995 6.281871321116933 8.257631619159968 -2.3571418697409534 0.12182735242215792 -0.720196077383166
P 4.655183120508008 1.1720946527537435 3.9637944672266547 0.2568069259555577 0.39519372539829356 -1.249862868992086
P 0.27138609832934657 5.6369654516926335 3.656680232581316 -0.10916826889725069 -1.2797925666719832 -1.1758012139899814
Ni 1.3251996418554763 1.2899300017635325 2.6433462654072946 0.4485754834535436 -0.13391539393494356 -0.9718695387669004
Ni 1.7813851904886022 6.365346744765032 4.99000362697796 0.24272216572771746 1.8033180212698554 -0.840273794104069
Ni 5.888920043383757 5.754154903243942 9.323957379086009 1.8959253004846315 -0.7150255889258201 0.6587883636996461
Ni 8.651769164901395 2.1815232145907846 10.147612186143169 -0.3134511568121634 1.2292572769265926 0.5105131014986046
Ni 2.373327468317519 5.389441170737847 7.088197881992217 -0.323809617228352 -0.16008639590335655 0.4511825820590875
Ni 0.5431879362904192 9.262715383445316 9.509736592154272 0.01853071181433583 -1.3148881248235356 -0.988822364571155
Ni 1.6161264125906771 1.4158709090198838 11.475875747210141 0.12333813263972952 -0.6404939362658324 -1.190652162959885
Ni 4.197169045267072 7.022488277311246 1.5984033502158703 0.06612723064637643 -0.23137897280075637 -0.014181690817020738
Ni 5.6857170640869406 7.948395929763676 7.99856942628137 -0.05058594047766773 0.41157576630074283 0.034093342139283216
Ni 5.1775777072090134 3.178661530422096 5.011693045576673 -0.11077109460799632 -0.7178332335779444 -0.09725403395816799
Ni 0.9422097404185801 7.485223772002201 7.393460847161489 -0.8879628726499158 0.21212423833620242 -0.8643246644056857
Ni 4.929434820237654 4.504070406665531 7.02157128486315 0.7683983481200057 0.23636742715428324 0.11236826389178711
Ni 8.247091664295246 7.111103589185279 9.262963735566675 0.12239839443427951 0.4049497763437929 0.4539123222854248
Ni 4.430338027778451 0.520354096561046 10.715039471421205 -0.462914525784035 -0.717086842330223 -0.8036499722334483
Ni 8.362834669425451 7.041019166366519 4.817806454832388 -0.7159905239422507 1.2246328907807038 0.722953071303013
Ni 7.2665192537018575 6.063676243065532 7.216030995887496 -0.0568576324189924 -0.49213022811604273 -0.5778027278841984
Ni 2.5001507988622174 5.297177902795495 2.556921546603712 0.1688194049009802 -0.4659026618780815 0.25058537052587815
Ni 2.3005048041606937 5.328126397918733 11.344979623818098 0.29727480416261703 -0.10484367337996782 1.1952554660598513
Ni 0.8528366361742452 3.3065947129377036 3.8104238414236873 -0.34503998736203806 1.4554009694703385 -0.687434309571113
Ni 3.7213245613131587 2.7314093804400637 2.4761015802532245 -0.07493762984915482 -0.3102408774049818 0.7458636573525993
Ni 1.1661633127124877 3.1555001933898312 8.186251762565323 -0.9055620737889178 0.6359569676274274 -0.6256704980997547
Ni 3.5376622544221967 2.4298298502135895 7.278915936331028 0.25000352988047914 1.4177013980370359 -1.517362755885116
Ni 4.174644508545986 6.754213403359368 5.902320141360397 0.4462105827657929 1.1244570551900506 1.275901716258009
Ni 0.6026450716303542 7.3987735811861715 11.569464469514473 0.659361976814929 -0.7565777013359939 -0.9022816032654333
P 0.2330743721794334 5.473735337643173 8.24116123396872 0.24311143074633615 0.013296202888273876 -0.9829340241111783
P 8.406091604849024 1.4212018373391717 7.914287995382266 0.8456620549991759 0.4254003308886609 1.4920708140875465
P 1.895599874871981 3.4549509911475114 10.362110183530818 -0.7931048497277502 -1.2011939430314733 -0.6344680417867268
P 4.082608669286197 6.289185427548174 3.8871955772245452 0.41696325586490124 -0.021112870719215252 -2.104326324332976
P 6.985362819169584 4.071428275251376 10.581375086104996 0.4491300704054329 0.6907836856593199 -0.5191579216577962
P 6.469518178526407 7.835191028730881 10.27637684792223 -0.6910621361316872 0.005030620445371981 -0.4057648160459205
P 2.331034830508015 8.279950560352017 5.813018904579752 0.7816932654566989 0.4852504702770739 0.5709543375037972
P 6.6139444891015176 3.965637549270149 1.49012910302105 2.9158443864605914 0.010428394422175587 1.3510424632569054
Ni 5.328526672400045 2.7705725995774944 0.4764576316821041 -1.2207746933768784 -0.35349017501192026 0.0738971043997824
Ni 1.5779001996254076 0.8858356282994756 6.855018892618804 -1.0064593609266281 0.3976987512083344 0.8571512865856981
Ni 6.693781053828601 0.8455534600438325 9.479871567274767 -0.38892897543550436 -0.23300956642564388 -0.8161493902520396
Ni 2.5538603565364077 1.459391661715231 9.123093276360676 0.15027018114388316 1.0341827949838254 1.886500921846938
Ni 6.569459438792102 1.5217253150322287 2.4789244250612024 -0.1386732203349031 0.4376878900067623 0.09502848706175893
Ni 4.29432657845819 6.928123568342008 10.699607980451907 -0.5319149642131484 0.4855001243940347 -0.6057927853392212
Ni 8.450958735345147 7.310149172164835 0.37580133563842993 -0.6649687814787452 -0.2847149652197355 0.4620884303383138
Ni 7.628531133459099 3.7908722524410705 8.411295173106076 0.6561023322270507 0.023700428940733376 0.056965104531134146
Ni 3.3776707248124413 8.181128249204534 12.712708429312945 -0.536195079645741 1.2224191709588368 0.1972115828904281
Ni 0.04152392886243974 4.83605260317709 10.364133389090902 -0.5512864267612247 -0.6114504978456308 0.4796817179400448
Ni 8.871228746427848 2.4456861779619152 5.780877773445151 -1.0489504402113032 -0.5698888723537605 0.99046375682932
Ni 3.5461771842973735 2.7846004007180096 11.543713174645175 0.47636293797945706 -0.8823797221351836 -0.6405960090613354
Ni 1.1268909278074264 3.4062175730478095 12.69231080563119 -0.9810913144754845 0.8701032187606756 -0.07949105354779214
Ni 3.0709967920965457 8.467497349141164 8.351313132366784 0.6198739460226357 -1.7979336170294906 -0.31515862642157333
Ni 5.848583292244298 8.085899311241555 3.510472700564368 -0.45931112470349283 -0.5083646876970341 0.27745854076763826
Ni 3.247435964029292 8.464595359151653 3.538047063753094 -0.33745086216087045 -0.7322149562209131 0.6094746050661826
Ni 3.3286734894409657 4.3343904151785715 8.95253359072956 0.28446351133056175 0.10337865879866712 1.0757220518781927
Ni 7.317708901573246 6.310136157785922 11.77697221891485 0.6081911103680687 -1.75601537952915 -1.8861419958456227
Ni 0.7977488606837196 -0.001076192525890376 -0.179130108104837 0.39486770951744254 0.07487335227012266 1.7810460972455326
Ni 4.58700909862278 0.38534151401460265 1.7173567386291413 0.02839372065134465 -0.024243703038713087 -0.9859381010448245
Ni 6.0530507750161675 5.756320024301947 0.4040980123229778 -0.4185077175338857 0.23134606268029187 0.2900440907421327
Ni 8.000276960830057 8.991001787813078 11.373313598806586 0.05130944890725357 0.6125671279485773 -0.17846721240338942
Ni 0.06908555604494246 5.0142657188338315 5.978080274381212 -0.08823717517153837 -1.324298619504158 0.23217395789822598
Ni 8.196566108176944 8.77499912226159 2.385083711776591 0.5052441397901815 0.18385495907786398 0.7953067424750754
P 8.512901211328135 1.3661186104222973 3.8370930384558113 -0.9762545552084734 1.0561790967492584 -0.699981035887872
P 1.746279299048104 3.2927033690067264 1.665988786670624 0.6022564900511885 -0.35591189707953547 -0.3441673549490976
P 4.640263798931843 0.9651254544736761 8.416555143676405 1.144334253729952 0.4390472322481342 0.07697342933226099
P 8.71624064783449 1.7369547230630014 12.441144026896467 -0.0479022229979175 0.16021109440667894 -0.06367054157576776
P 6.4899867599571195 7.852839494497806 1.3736537775329904 -0.8007011740177694 -0.4193587526802713 0.05779839906570691
P 1.7903003948450906 3.211365774974724 5.82179310315305 0.16601021758695925 -0.5154521906714349 1.9539458428634737
P 7.177339918695067 3.872828452489645 6.249085202238581 -2.025489359429415 0.8913940098186519 -1.3814326455129886
P 2.340514057997261 8.484563597480726 10.647322126330563 0.34874828945156067 0.23148515936131744 -0.46399618888398797
