# total energy = -340870.8905504506 ev
CRYSTAL
PRIMVEC
9.18434487771954 0.00000000000000 0.00000000000000
0.00000000000000 9.18434487771954 0.00000000000000
0.00000000000000 0.00000000000000 13.44221709635036
PRIMCOORD
 96 1
Ni 6.517247661106493 2.096547077794691 12.788642357086152 2.277050206494685 1.404864908394 -1.0704451197499694
Ni 3.8384682421353364 1.5069121548756585 5.115261132607722 -1.1910874507250906 0.21244305512820186 -1.1888801586611266
Ni 4.751924786740961 8.245438230279476 6.412179677388402 0.5359441399771996 -0.12499392307559765 -0.09727408856282602
Ni 1.9674611145294725 7.1627876895677085 11.531379056957926 -0.5523572912279003 -0.8366958469448236 0.3815090288223494
Ni 6.151958723579099 0.04591529392755634 11.832443709610116 0.6866403529149079 0.4405829521663702 0.18668625787907203
Ni 8.295759254308656 1.3575930804703995 10.890762755633425 0.2333173274740498 0.7713633442856006 0.13695803741600932
Ni 5.4129036984642775 5.091920039257156 9.180670855916894 -0.8693110618766835 0.29877092909216935 -1.1484341348309384
Ni 2.5510619230504084 2.4500525012082974 12.28434469039445 0.4528160038974524 0.5662641311169796 0.5121627212868857
Ni 3.3383714946608163 4.816986683843117 3.537991387537149 1.045843262040889 -0.5318540290682259 1.022344921808633
Ni 7.774015006626658 8.654407910694767 6.666384885488796 -0.7648509970883796 -1.8032719985232684 0.5244837047460839
Ni 0.5180953075749011 8.903569995178728 0.5996798406012213 -1.28094236400571 -1.6424592659768487 -1.3825240788049546
Ni 0.7428343829151522 7.8590436688756355 8.088370324340467 0.3497034542759784 -0.7657439412162941 -0.9171410368757689
Ni 1.3380396108302965 0.424018229032156 11.56583137039802 0.18868297659412667 -0.8982706823338271 0.30039998005516005
Ni 0.5636900678761354 5.445554043495075 7.4130197501968444 -1.844181592253437 -0.3247825226645826 -2.463860134435815
Ni 7.338291330409762 3.4660430688585957 9.438438671285203 0.4341137995022588 -0.4280282554298112 -0.21893406216918426
Ni 3.561551068289048 0.9849291142342212 2.4188734881814202 0.14142995714443385 -0.10689875613678365 -0.5677029204460352
Ni 7.65258878675263 6.318498444097648 12.714159159299724 -0.48568087294627327 -2.6676917937459215 -1.2146894064147469
Ni 6.509128700485615 3.291568074611044 4.369203963174622 -0.5901625350011319 0.1481503065874029 1.6795155473991976
Ni 1.216741971780582 5.865903126862025 9.442700207176705 2.186512151104112 1.0162925449669657 -0.373612399683092
Ni 5.960722300447945 1.7744704815809114 6.1332529689449995 1.295360339203253 0.22564309875824365 1.04320531019741
Ni 4.885042677282837 8.4143658803924 1.1428750435163937 -0.6064268193787943 0.030878691856727467 -0.09249337934473104
Ni 1.9150001382099475 6.764600429705486 4.331189960901073 1.30064498464096 0.4264274866015946 -0.9268883460705198
Ni 4.70732560939369 3.0213095505952268 8.171012893863988 -0.27307738098080714 -1.525222875359483 1.3309112397246692
Ni 4.459871813004165 4.001122984890727 12.78297010586505 0.6658313865893566 0.31188226966314675 -0.3122136848606365
P 7.992437089755324 4.397519297557166 3.4735760682943932 1.2986007005174216 0.3784337323311353 -0.21029258444410234
P 1.3674662509086855 1.5422443285278316 5.266942420442495 0.42718390515164495 0.07608588452098508 -0.18210583759724122
P 2.9360696484205926 5.590464632495331 12.948658437639757 0.35908926636625255 -0.14320093300192757 -0.6881909852314794
P 7.731059826961667 2.167238978132818 7.483806249284287 0.24101598166988814 0.3927169817230269 -0.12886908976028771
P 6.2237619296130715 1.9242855105942334 10.35846477757874 -1.2637170012663592 -0.9413870539073271 0.40836317290071605
P 0.5786835104254393 7.456888772148911 5.920638146902964 -1.2383283859899255 0.9682149727334487 0.584885859983225
P 0.9243032555708486 0.32793345276121627 9.432820607697204 -0.8380695873638986 1.0011569748771079 0.6092727734680217
P 0.7751531731061146 3.969611498589556 0.9327005018329181 0.08483020637251842 -0.4057218786231271 0.35531514403580094
Ni 4.450742574477974 3.808159904975947 6.139141052264057 -0.23752159536338452 1.304699871436624 -2.1222548837869386
Ni 7.166957382013273 7.17228430187765 10.511423607746506 -0.46188659874015286 -1.078703760214336 2.413324073359476
Ni 6.054053610209677 0.36943199537363614 8.320207979617232 -0.7388820838284437 2.033905865627885 -0.09454409122617265
Ni 7.989433809073167 8.75222118061825 9.247008458483121 1.18076498575316 1.4112150189817438 -0.7235958470933344
Ni 7.164146972567584 7.701633186883279 0.7770313715755374 0.477484710288726 3.3454057907054775 1.7059973957398102
Ni 2.2599733054959565 8.79642543114799 6.118803239595646 0.4551780763717258 0.11781231772549387 0.3107504700515487
Ni 4.552128554448428 6.054402615304241 11.239588755476513 -1.5633495070278753 0.5354993391302971 0.7837419204556115
Ni 4.1341031102636965 3.427193291227015 10.602105234092939 2.39192632440999 0.06231788420261526 -1.3234743238306497
Ni 8.38841092257045 1.10247035634509 5.32337287049544 -1.3272312197699208 0.2046199595393573 -0.9957653715478915
Ni 0.5937963494544622 3.396894138412219 8.694130201062753 -1.0144626908470786 -0.6280168868447443 0.6726139567288287
Ni 2.231198753883724 4.571874895325 10.965689557263731 0.5280189715928519 0.3125134754892424 1.4455731847466393
Ni 4.6384246562513445 1.6398096211472846 13.684310663082595 -1.6178494378479686 -0.7142997665033891 0.6974166175948054
Ni 0.4814066062262303 0.971290362512496 7.347717223266331 -0.02004740556917838 1.0224400526256003 0.670303306317781
Ni 1.2269641473134307 1.6750040296305515 1.7594118301849917 0.9338020424712177 0.6033823761255156 1.61219763887883
Ni 9.26828950334131 3.4199376589979487 5.839661617488751 -0.12215928184027995 0.09879463897241049 1.4377367194213562
Ni 2.9389076109000625 9.10529493983595 8.770777230435472 0.9988591799818667 -0.6273594557664034 -0.9062264468457941
Ni 8.09734985804978 2.3703232057899153 1.7757305736591746 -0.27721042931257417 0.9740776021618127 -1.6952987783753835
Ni 6.301185954538421 7.231477402784398 8.339968097010694 1.9633866765613992 0.36533139062122244 -0.13083058436203274
Ni 6.708144263487678 6.146007268282347 5.690077115524732 0.5362295324281023 0.29006208846426174 0.6140966772192262
Ni 2.6086661323424356 5.777457888424171 1.64200743480857 0.7355648465297525 1.3838361127481587 -1.2893426722542634
Ni 7.973701026784065 7.6705717334672014 4.1689824957273975 2.7048074676512965 -1.2686943998762923 2.687216751152727
Ni 2.2271668266070654 2.7897354860083037 6.9471530550232465 1.1627981168620942 -0.09001663566946433 -0.35605922129067713
Ni 6.303316722484173 8.141048969626864 2.990947025802734 -3.6542315329304875 -0.8702752255621657 -0.05297320976292167
Ni 2.7617967097541025 6.309644735909269 7.568573157712343 1.6496902365076491 0.14086637133147997 -0.009676603857815593
P 3.211572433199443 7.202023209672228 9.860753204395218 -0.5728325283631167 -0.5035199580102231 -1.559509821566811
P 6.7022295455693 0.7351039200705891 1.1252117119936853 -0.7264451436166715 -0.23161551429159463 -1.1338338684192601
P 0.7474054312194638 3.005365528380469 11.169339540547803 -1.1781206061517773 -0.4136671016121327 -0.42244047692938863
P 2.1308046831293943 4.713717913230942 5.366455712550283 0.11903667705089821 -0.04736357688562811 0.9550689222697939
P 3.8864472582931096 2.81431279214119 3.216802917445586 1.629317586388568 0.27526307577821624 1.271316667990488
P 8.382496204652073 6.464437679692406 8.931519792646442 0.05837175507067366 -0.19584272756735951 -0.37700394186314423
P 5.1461719627724625 6.088972488355132 7.184690514554894 -1.8063267261891922 -1.9388881771994029 -1.3224224855273676
P 4.314217292091814 6.8803231715867925 2.7384344924109696 -0.20859282814417626 -0.13413573747586577 0.2641142582502483
Ni 0.2262609212394364 1.8253701193194984 13.208712236377455 0.06447323998272121 0.39848936543042984 -1.1714884455472405
Ni 1.0528657111942226 8.989112980724958 3.775273522289091 0.6271625092642489 1.3330498833342268 1.0117527481150834
Ni 6.500688287803954 4.913247799530256 11.103620044372734 0.9461014286638609 -1.5234891804978279 1.922837037273811
Ni 4.2600847650562255 6.228069387227542 5.163384342975617 -0.27484629995577176 0.21801129324459875 0.37484061566323834
Ni 5.039633565484912 8.233737375267033 10.059778870176336 -0.25999946475092645 -0.39556859223920904 -0.231524240129369
Ni 1.0092584430630767 4.7952473401897 2.989642848870421 -1.5630000941082567 -0.8166695244215677 -0.5668097192078044
Ni 6.800088737215753 4.251139213421909 7.284108289478907 0.2831386218715511 -0.023498340232256307 -0.9131949077438273
Ni 6.194142418298214 5.561653343504724 3.5389190063411182 -0.9372329225296375 0.9886074203468717 -1.1376069623084473
Ni 3.4455160586915548 3.6131027944937917 1.3253110276578122 -1.1403629277870295 -0.6234107555313005 0.24729821513417408
Ni 3.499354686700143 8.51458544859945 4.0200427347538605 1.3984374076011012 -0.8330970738499716 0.1209629475393336
Ni 8.445298752984167 3.772441988850836 12.704332829018865 -0.06351293295198093 1.1999186758634754 0.08641734835398021
Ni 3.6650127101376913 8.526341409679453 12.488773506100074 0.4303090810441879 0.20255819191432212 -0.42777011667241815
Ni 7.843163937073034 5.585082606563391 1.520436102289962 1.36096486457694 -1.1804060597518446 1.4219529742245383
Ni 6.219270785106725 1.343550217586549 3.1459622307250394 -1.4525478162922598 -0.22271692625038417 0.9163969596208927
Ni 9.27012637226006 5.646865692645577 5.001794984193102 -2.321728780348982 -1.5270517010381055 0.5526691660413643
Ni -0.041936635849541944 2.482509975002625 3.7367479520216693 0.6363506035214203 0.2508622783363486 -0.8178735720319978
Ni 0.8790777059222832 6.242305121347862 0.018872909705705907 -0.7822401390991044 -0.46078436681490964 1.217109328710149
Ni 5.451725923062077 5.823269399257818 0.861677046654956 -1.2553434324906834 0.771558233905226 0.6323749067031239
Ni 9.17486635013364 5.411085198234714 11.18384345753026 -1.1648120619683293 -0.032772052224698395 -0.10665707243962276
Ni 2.425759909757817 2.013098122815838 9.79053062406583 -2.305334141041042 0.6813798758469168 -1.1760233573031165
Ni 8.178116984407257 0.13221506946831013 2.593541353665441 1.6688138447109777 1.0169684879880678 -0.852258477269771
Ni 2.3675862711009765 8.232883231219814 1.7342614209494547 1.1602213572738533 -0.5272977771561113 0.49619051422834554
Ni 4.093719547084959 1.0725753146924195 10.805942578006723 1.8289827730258115 -0.3855916835321553 1.0589168073953956
Ni 6.024645338820476 3.4411810480433025 2.0295867766650053 -1.5938430476310421 0.5742880298627205 -0.034593421704153325
P 0.3237453916264643 7.49531606992918 2.3879562289754643 -0.24049481905909548 -1.062556461030512 -0.668543643314197
P 2.596340741897617 0.8529032422645425 0.2756552448991069 -0.29659371893519243 -1.2470734791724072 0.11989516839645158
P 6.553424794461292 4.165917679936462 0.11188644114449416 -0.20800198863771274 0.36898184288961616 -1.1546870577191857
P 4.185351753096847 0.982394235126345 7.173560007341723 -1.1632508881287966 1.026787788071335 1.5575089890866984
P 5.66810908169093 7.344656081213233 12.646168374706619 -0.6242206530271056 -0.28187235356461776 -0.3544612806759379
P 2.6765659919240616 4.014945423504328 8.76416358389351 1.0079274608317224 0.7758959420486315 -0.02938899468507842
P 9.025629934829725 7.758971050182088 12.128764648279628 1.1109019422134352 1.0253531125073374 -0.40093731275029015
P 6.2190503608364756 9.15500061277735 4.979494477085008 0.7190773903976906 -0.95244588282465 -0.6109825570702768
