# total energy = -340873.16742748464 ev
CRYSTAL
PRIMVEC
9.21899481291099 0.00000000000000 0.00000000000000

0.00000000000000 9.21899481291099 0.00000000000000

0.00000000000000 0.00000000000000 13.49293077897283

PRIMCOORD
 96 1
Ni 5.370479202371421 7.139170971097553 12.651632831020995 -0.23005202645921669 -0.06144782289283611 0.01738734223851199
Ni 2.7142932626303606 3.0207787377144104 5.577518460933313 1.0006995756247152 -0.034598049689843646 0.01764239567211155
Ni 5.371806737592119 9.214799945642556 11.341793470435062 -0.21120095519098467 -0.5352933937670781 -0.7330749902283633
Ni 8.717333778669765 4.931867096849573 0.37855404337768966 -0.8807964368084638 0.3158371405458367 -0.5911444392984271
Ni 6.1907484648493405 4.48947520354657 9.741315164562701 0.1233137071596973 -1.0141526158058278 0.9773210487997749
Ni 2.920688113470538 5.813313607414656 11.31229729725018 0.31573172531622395 -0.7269552504838707 -0.010672649222497749
Ni 7.290592957208412 8.595643050105785 8.649103077823185 0.43857517770772214 0.7679198658216904 -0.061456564643584476
Ni 4.91743937031907 3.838595747631874 7.738708002351757 0.03337240481285866 -1.5667906714989404 -1.0004452935220642
Ni 8.374110610151817 1.796652979312082 5.835017886373608 -0.7440859966268862 -0.16717569864997014 1.6950185281308034
Ni 6.111944499109577 1.5663809324885176 8.984658808542143 -1.8733975516957608 -0.3552565228837236 -1.6384480879349266
Ni 4.763979986404224 0.898528385637522 2.9033010896772304 -0.409112906582547 -0.7673148852478398 -1.5197626235758601
Ni 1.494260737825184 8.257988154319099 5.560301988539886 -2.737099237805467 -2.8541451096785813 0.7398619312432098
Ni 1.9540212169323177 5.958982940902491 6.2647410373135335 0.023488827150559548 -0.4246300283815396 0.008661789440056052
Ni 0.6619708283037364 6.720010944156765 1.3666716965236878 0.9116869557397331 0.8697568911648506 2.6535057320535267
Ni 1.2818366645243364 5.188109051428041 4.074649025961686 -1.0840881644547007 -0.034105426324141264 0.25175702223647606
Ni 1.2747656956752023 1.3266225402337157 4.974978803141739 -0.778528237465156 -0.5328716716994629 -1.544276292446508
Ni 2.670908674098384 3.208938417259168 12.069250504896479 -0.9081969403086035 0.1771898883528626 -0.10386434018583404
Ni 4.934245597453323 1.9037223824592064 4.8370534251079755 0.8334102342150163 0.9317909255784598 0.9482868663509538
Ni 3.6974160645084826 3.8476395813228788 9.675915616954152 0.041764742641611945 -0.8312404802572072 1.393678295649561
Ni 0.398516854258935 3.2051033155104847 1.5121658691143476 1.7247134840920748 -0.6661229496878464 -0.03220306709510583
Ni 5.022167148840798 2.4048484902835043 11.456064752154473 0.8168492445325416 1.3557321554230908 -0.23572002337827147
Ni 8.6022622882201 3.7636176646462043 9.718958180786906 0.21271173540855623 1.3826354075718381 1.2878074665566595
Ni -0.3901469290723263 0.7157157229539093 0.6827061909314713 -0.3671905553171482 1.3901314588385671 1.3572210812637915
Ni 0.3088197245137772 7.2939486712385095 10.483953117412472 -0.09987578785173122 -0.14770113486512626 0.4183578222195827
P 5.849267686308559 5.878353614234267 8.04401252422906 0.22482214551884508 0.06448609549852766 0.4007542502052066
P 7.08583908740493 7.849457628138483 10.743381156520616 0.4122689357130255 -0.099735405619125 0.9269778204605326
P 0.9932176009521795 8.583409444287271 0.24183911933335414 2.212194129251248 -2.099707594614042 -0.2701874610275218
P 7.230752463336535 2.191668459426426 10.518184166217845 0.5819180356041527 0.8324267872558245 1.9647287924115906
P 9.216616087576426 9.305192187579662 7.445318109080216 0.2129382495970655 -1.1523956905818475 -0.33822142177830783
P 3.5101321894496023 4.925478333599965 5.152410338684231 0.7677859113469874 0.9423393905182673 -0.7139156436910932
P 6.676626355624789 0.4284352573959562 3.983909227928605 -0.33575059164031207 -0.065612495793487 -0.26817917234824135
P 9.43093927376244 5.608421452692351 7.623519430670821 -0.2523843714078299 -1.5213122274511672 0.32155913063127844
Ni 7.585010768376534 4.370623925315752 7.552748896815198 -0.2585879291153805 -0.7400383089200738 0.26297654510137936
Ni 3.2819436354029663 6.65073019982659 0.45022435110512005 -1.0743621954161886 0.4240911251589341 -0.09896715999453279
Ni 3.156620622971245 0.18292882201542396 5.222452571967388 4.300695570736825 1.2451929743202428 -1.638471227863378
Ni 2.0593666680914526 1.6436268881428793 0.6781667579962514 0.7510685985923065 -0.21589553245317658 0.9286798907533039
Ni 5.3968916218665575 7.875888485622795 3.011500741560866 2.3233357198247853 -1.1483163783061514 -0.055659498345833176
Ni 5.897602874934388 5.141341091882203 5.997203048666168 -0.38156867841569125 0.5158854215541115 -1.3738023826612404
Ni 3.919686024029507 7.122751941736004 4.647437144418285 -0.4286766876470875 -0.7418756192391287 1.2511509916758905
Ni 5.031496771364036 6.784755943149554 10.174506501266698 0.9958885273893171 -0.41073655822889904 0.07586065588405644
Ni 8.516221411728614 1.8950657465409053 8.484880517726637 0.18492093844853313 -1.114924690219583 -0.7566556057617807
Ni 5.07757330631576 4.2673988429118985 3.6686869116733365 -1.6296829401477866 0.031512211675668304 0.3728809208337062
Ni 8.155058079742068 7.825939972944035 13.222464678825983 -0.415239331195259 0.5838455916441687 -1.4429789416569019
Ni 6.614794558921864 0.09731755067174758 1.4274036671722425 0.5193859785082023 0.33063743878346286 -0.004191669483844394
Ni 7.090992505379723 1.0640747933569323 12.672128499789439 -0.3230426571553405 0.6683125011399974 -1.087633715714114
Ni 8.455541989349213 0.366566584714679 10.507336175285932 0.42907906529182877 0.19534830442944423 0.8153263801301119
Ni 8.176427709197469 4.272736640778455 2.9798731368271962 0.48617786718734973 1.5973831995738166 -0.7591089523982798
Ni 6.439108179054915 2.649391540729572 2.488825233886697 -1.1379975128786466 -0.5327780835443922 -1.235204238538647
Ni 2.1101817662615017 0.9488189230155037 7.178967526935809 -1.2390830047677628 0.4480576632768606 1.811606486530893
Ni 7.807465107789322 7.296742026598729 2.3464609099587244 -1.256436665554862 -0.2553344551750893 -0.4721332161688256
Ni 1.7034950389985213 4.927285256539248 9.20209801489896 -1.4734493423316173 0.029910928626819454 -0.25117132493633515
Ni 8.389727586984193 5.027025558988769 5.387767582922636 0.6289607388152523 0.6265598426832435 -0.4320715722612494
Ni 7.025970936549288 3.1415199098358064 4.598444641478319 -0.835974909618399 0.5553027470094695 2.1154846549426405
Ni 7.7238027319015865 6.415138793125646 9.198184551696277 -0.29938953651277467 -1.3947895264358687 -0.4641797656497038
Ni 6.437365789077749 4.10047050790372 13.322015069986987 -0.29648290438894104 0.3879876945681576 -0.49651781566077724
Ni -0.14032139472723165 2.6033703197453764 12.654628082362695 -0.0034895012104972163 1.5270339604262928 -1.2644433379094222
P 1.8982462996738276 4.964907973453611 0.8992198102316357 0.18091361706135295 -1.0295787205529108 0.4769044123052238
P 0.5277846744749387 4.39946094038758 11.570215265044778 1.4795464563682905 0.4093936710477595 -0.6800621854767578
P -0.07252214282737818 6.97028820923668 3.908604792534514 1.8006114209719697 0.05374222671846229 1.3215285129581884
P 6.3568931853175235 2.37473003496392 6.6648868879162 0.016914259256835387 0.6217215407543357 0.35751189457680366
P 6.685955978148027 5.628057911165175 3.797625613782542 -0.013634817174615227 0.8916485490316193 0.286321647585223
P 4.653324394362297 8.491532944221467 0.9896507719460127 0.43371759250510467 -0.14562754016554919 -1.2648930238523313
P 4.654154103875233 8.129632092667867 6.403448186088374 -0.12908043444014544 0.6698605623534076 0.31719879678005375
P 3.34484483547812 1.0484485975299669 12.169773499986535 0.7570351005883866 1.1995170695496826 -0.3841222980754804
Ni 3.27311183858749 8.269521116548912 2.56963433094939 -2.5645172805382606 -1.3771095926576025 -0.19415839788640107
Ni 0.9692758720066756 6.503336914350767 12.645128830339035 0.7235927617695409 -0.52595566130592 -1.2602629812794877
Ni 4.462823090192142 1.2819011974864536 7.043133938774103 -0.30141787979671314 0.0621636180129381 0.7834706690720958
Ni 1.1589566856584828 0.8235733501383231 12.124261167503606 0.46340869181163424 -0.9914387191480796 -1.19664489020821
Ni 1.340358842170104 7.362021727277632 8.180277561337492 -0.13566965762188893 0.24190198381926728 -0.36748288974658644
Ni 6.533446150675763 -0.006674552081842448 6.560735296556234 0.2836613271442405 1.4337880191862533 -0.3400847002392917
Ni 8.305788641258813 7.194715413491338 6.658815258080424 0.4039017946952528 0.7940867540250454 0.633045193297271
Ni 7.864678188203569 5.443659581412395 11.662101906004628 -0.47599167068296727 1.2870248227543641 -0.5378138461960866
Ni 1.5762729136816347 -0.05629579045272225 9.627867139060015 -0.3455904605488693 1.0579547005924426 0.3894853621596066
Ni 2.4574336354144846 3.4026294935568333 2.8490187276425667 -1.0984655162222952 -0.7868406139855932 0.5546975093253028
Ni 4.591437283691843 8.548948842516653 8.576227847503079 0.18387912744758012 -0.054789179925737896 -0.6195330177434492
Ni 3.659378492837651 5.872416581719479 8.199788641483918 -0.09847325107724976 1.4995807493113464 -0.1063282283452943
Ni 5.007195501629593 5.779756467113681 1.6632596590178679 2.759607703320628 0.47278061994483744 0.2001783788282359
Ni 0.6329236201552983 3.304069222414599 6.741647924455223 0.4476799682224677 1.3583819343411123 0.7838781889231596
Ni 2.967557481956846 8.149204018178573 12.002029283957302 -0.5902509809498802 0.28846774739394837 -0.3407961244840195
Ni 3.6350772231032082 1.1567256889681432 9.816241621178676 -0.06041655341484433 0.5831346816200731 -0.06681731473486559
Ni 4.134221247091047 4.30340823577333 0.10760410483323903 -1.3904857568541922 -0.45668294305202634 -0.3622535230268471
Ni 1.5062269928006418 2.4550459158161457 10.080554805519096 -0.23472629200643444 5.707849018054686e-05 -0.6946591094543263
Ni 8.507712279723725 1.8489799925945924 3.09975786435135 -0.37817173691900036 -2.3702766073506982 0.18587404639042182
Ni 8.517161749176609 8.946508765137335 4.900538187540561 -0.2232198340287317 -1.022445194831923 -0.6940916669866304
Ni 0.7125757333971751 9.01137361105977 2.7968419839718432 0.09201798237020928 -0.8154809034301053 -0.5569765351674666
Ni 6.493159144325414 7.415150793089315 5.104915000465385 -0.052889906020496015 -0.6609480903551261 -0.47700957042452047
Ni 4.8054009290889175 1.612909198175063 0.3428083137614799 -0.24592318916351838 -0.04805520363601402 0.10265206504528773
Ni 3.152859273179268 5.681813868608853 2.9242825994604695 -0.28080200331857447 0.5823692642089584 -0.5424210059507948
P 7.613082606897542 2.603130625886084 0.7536583389804824 0.31935878054585 -0.20164622162301402 0.26909654195618815
P 5.050515557199452 4.968263687483708 11.572521857490742 -0.37779249920271063 -1.058493603815048 0.2127582723757755
P 4.3140285175389135 2.8482636919857947 2.1534990561329836 0.42318121175015505 0.7526099749374974 -1.7736040391451906
P 9.653301423229346 3.1008549247073436 4.300952295615039 -0.1536051590543871 2.533326199647437 0.5008431825090084
P 6.883270119318847 6.358930583121512 0.4318923803665237 0.11116858715673113 -2.081693931645441 1.1625286652507913
P 2.5466919410172446 0.9530227845477139 3.0243455667205774 -1.0413062934024842 1.4707687101756606 0.7610102831860507
P 3.0180222583325444 7.538842043478928 9.816403875483429 -1.0143310503652208 -0.3287960146993499 -0.5210726221820059
P 2.6258923235243006 3.070238643679997 7.7775144381712416 0.7840324551128368 -0.2924748116708124 1.562373259157535
