# total energy = -340868.3954345804 ev
CRYSTAL
PRIMVEC
9.26813952697485 0.00000000000000 0.00000000000000
0.00000000000000 9.26813952697485 0.00000000000000
0.00000000000000 0.00000000000000 13.56485903562592
PRIMCOORD
 96 1
Ni 8.560609523226775 7.659894675874642 3.482912984532607 -0.11973396022823897 0.6573593445626034 -0.34572878589894657
Ni 7.837657587179114 5.423112674981377 9.278919048311327 -0.29617308645800605 1.1226714240445375 2.521741323023315
Ni 3.939070409767293 6.393598074799624 10.406878475746005 -0.6887399157564139 -0.10786626225637551 -0.17514663267058866
Ni 7.903693079517195 4.711764449306669 11.860990211983726 1.1999950376273656 -0.47162927994921355 -0.05785342067335842
Ni 3.8137837030408144 1.150083402699273 12.408766901212637 0.20177246278823316 0.6282577992109567 2.866631157960734
Ni 0.49302237601699495 9.218851310852754 8.174441378545104 -0.11685355335665037 -2.6648838919834814 -0.7301449610657619
Ni 7.197062336733725 3.376688986668017 8.826436440299384 0.2243529191919104 -2.307099717581898 -0.7446130727749498
Ni 3.588781085849016 4.371336425577545 12.150654783272971 0.48201602250017633 0.7610887018324699 -1.0447945090614006
Ni 3.1973690279652565 5.788648088007885 8.177168065119963 0.6850575818088203 0.6265094490612823 0.8905031225732664
Ni 2.934774837871949 8.883446618610963 8.83936364096088 0.07404288594902732 0.09522003424727472 -0.565928859264748
Ni 5.953936083847508 1.6784600227966666 7.439673491735085 1.0283348208434806 0.1504856395887989 -1.9086280927632806
Ni 6.40715736255971 6.047572094948086 12.998417043688349 -0.039085653147552045 0.804423617174679 0.32987587802708995
Ni 0.1143595705206409 1.216637910836782 6.2464950950325 -0.2838904124359111 -0.17666641174922476 -1.336915279826904
Ni 5.898410661447868 4.460393975876016 1.0389936317150354 -0.10668946833945497 0.3981373814076498 -1.1667519593035196
Ni 4.096183906765908 3.4604636975794416 7.718662093392859 0.283462323759557 0.013677497487092573 -0.685549176733258
Ni 4.077471533568633 8.371919475716464 3.156176782955208 1.1168206216907155 2.5775437747049157 0.25650225023094536
Ni 1.8710056162455937 1.9628806808838233 7.626475619274972 0.5951103659247107 0.5830799171227377 0.7502928967685465
Ni 1.1971840864974654 5.0748438054251634 11.397275545983781 -0.8549532504931147 1.145068303682499 -0.6246819089342404
Ni 7.86261668624809 3.2982712602578426 1.056692997289496 1.6387329661651973 -1.120811230907347 -2.286329574914082
Ni 7.321792955103674 7.974075329175493 0.9573061057684576 1.273773871281729 0.4625962232126678 0.35351717159511375
Ni 5.775283431172586 2.466001621455425 2.32189688474393 -0.004135619434928362 -1.0202121917363463 0.8199229983618589
Ni 2.5914458865495877 0.2190561790326247 4.488164101587256 -0.5756828533277182 2.052422179264517 -0.34359528449571153
Ni 4.648861588043715 8.983950320914701 10.871759073666812 -0.15922841877843544 -1.4283282816232625 -1.2816725573035153
Ni 8.725786301395091 7.7010730186757765 5.8377321536110385 0.47880985685805283 0.24528915512394533 -0.22224872836471402
P 4.679075722081909 1.7880835741475165 4.649897766014718 0.24578820624755088 -0.9979639218611072 -2.128204930722786
P 4.31404078857628 6.686285913120545 12.503964593781141 0.06328359054999423 -0.3228727072363794 -0.11971596250610995
P 1.8849727021338025 4.292436755925043 2.220242079542172 2.4797793767692324 0.31327992134162175 -0.11063276925791914
P 0.6140309096538938 0.9173873030948655 3.6659568815962706 -0.16630126646481683 0.239066314142685 0.7015861755914627
P 6.235159233884611 4.1136172767431605 10.723902594176586 0.49644068256593854 -0.02042072974819709 -0.007330472223142213
P 2.0103428221137607 0.12180559361459364 11.938174349056329 -1.086662095829464 -0.7678468464919098 -0.7626046242563641
P 6.582640311602405 3.633777902031665 6.539713070919979 0.20273971179750888 0.753974973605824 0.038099635085198896
P 2.4127932338746647 4.24461315726336 9.993163567509635 0.976885503924253 0.3444244652652262 -0.6898004958104442
Ni 8.896774202889159 0.033330082462624915 12.785353643511275 -0.01905675952113492 0.0022605138994025585 -0.403086497882809
Ni 6.411114858030357 0.5940562158872933 9.402277982068497 0.4506411077333206 -0.27472802921035266 0.7382881589981866
Ni 8.317895491879458 3.1500644451030024 4.7078060270220945 -0.2842321120460459 0.7400735330333834 0.24698659743102627
Ni 6.685386903610819 1.0545010823508356 0.3534608811783602 0.17310826208432123 0.6409197109493414 0.43847027669874167
Ni 3.224867597195724 3.1249477876663434 0.512290837570801 -2.665754467513893 0.017098607353499586 1.5710471327824491
Ni 1.8238493236117481 2.5777012360039917 12.307613502345685 -0.6685932656052098 -0.23868116288912442 -0.9645269823589002
Ni 1.293906387976792 6.979566912355099 6.979147065645918 0.8864901447591313 0.29384520965577776 0.23327079050683053
Ni 5.523699790538595 8.40463600735905 13.118371789889622 -0.31711086505193775 0.5111093403217069 -1.372254064337514
Ni 7.754003362078271 0.7859632345401373 4.536726370949198 0.6962017713510977 -0.32751586243534564 0.037339102770090525
Ni 4.715471705016876 8.280470745484907 7.306507939810486 1.4490174345414981 -0.3291598257966718 0.9491702973971717
Ni 4.366609674547029 3.323360113276675 9.9404371231712 0.7433347202831585 0.15017762143007685 1.7570499914412512
Ni 0.6367202414142943 2.8782669927091042 10.030113785173278 1.2652601773837626 1.6705331413949294 0.5157481246452988
Ni 1.0573927418047977 2.455537892213363 2.157965744494243 -1.1374807211432283 -0.7958343328437714 -0.7943670042696255
Ni 3.337531098228945 2.287543599705288 2.8533412589415206 0.25746358570295014 -0.38175225518140704 1.3306821544329985
Ni 0.5408061216797933 7.7682392240054705 1.2877514166839192 -0.6866997453979334 -0.4665590645151578 -0.3923883947390145
Ni 8.852259329948836 0.7437107143969693 1.5501380004574548 -0.5787265252500484 -0.355863046119471 1.004754205310063
Ni 7.940728564062173 2.1947417211395064 11.063620678437205 1.0274691304090757 0.19451758099803274 0.4142522846916414
Ni 5.871931587537707 1.6732235241059976 11.653854713687274 -0.796023566036442 0.7191905189367872 0.15402707708315408
Ni 2.3837005446888075 5.447719584757883 4.645014383430446 0.5641224021836284 -0.8410554094650999 1.3819646067570586
Ni 8.578395082496497 7.1847264433580085 11.419834196980394 -0.08101751749464757 0.019009965443599522 -0.2797864175698665
Ni 5.1877575462188235 6.995146654477248 1.422858643786739 -1.7456695175184516 -1.474170536768358 -1.869807006131025
Ni 4.082837786209159 4.49317538449353 2.2802801589550628 -0.12211814418969938 0.30928494124961575 2.0697593849913836
Ni 4.6330038017433 5.541160964933675 6.251717691514254 1.1452670499568662 -0.46750137382376905 0.009655777922209178
Ni 1.4831710601221852 3.3208669838115603 4.536630909114661 -0.7612036301437793 -1.1472244307935533 -0.21775006916341208
P 4.278877468164957 1.497638625531272 8.705383419593963 -0.5832354688639956 -1.5628080327021086 0.8559878624052161
P 4.824548436150471 6.155138119379771 3.7832665008483093 -0.884262283869877 -1.8722333561843303 1.7500661039242504
P 7.250057557111148 8.955951272163354 6.458554755726033 -1.862766811454792 1.8213113725234824 0.02598408276858751
P 8.986925393622142 1.868836871655122 8.512599634965653 -1.3008223907590886 0.5819979969124686 -1.0116810143368835
P 2.2346039881635176 4.406620231799449 6.879092868097041 -0.0669299290533299 -0.5485466592325585 -1.6929675591390456
P 2.1403748161493064 8.913744165902637 6.507985449738091 -0.7557996855193887 0.10444001018364595 0.944208325406206
P 0.01388645307651157 2.1522843751183496 13.344389268332087 -0.673002450416499 0.20292560255606987 0.546530143023162
P 7.09589132840215 9.047844873080134 11.416226110360435 -0.2708423210027013 -0.0847024225454025 0.16278014068543578
Ni 3.797527386751552 1.0766797396371548 6.498720090904355 -0.10364913885123439 -0.025057200078943943 0.14723473675166898
Ni 4.232592380623011 0.660116732201417 1.314345415521096 0.34009035666624654 -0.4296128263081117 -0.5678240194049318
Ni 3.0369282689667307 5.81493253099326 0.505902309168185 0.06048648742083131 -0.6361891382428914 -0.10259447233447491
Ni 7.953361037894706 5.810103830430713 7.086621335498775 0.4192764773791102 -2.0852770210110085 -1.91234925036861
Ni 5.542634599078482 9.006499703772041 5.007019562206908 -0.21541884992707416 1.1334487171656995 0.35051540865431247
Ni 6.265271418390775 7.481418117845954 3.2159164282834274 2.038064624991264 2.00019381808742 -1.0939267478116774
Ni 0.18846761216769856 3.651656142694143 6.807035865671657 -0.576576054565949 0.01326843497413199 0.4130904031730563
Ni 0.7114029076964343 5.843404254847657 2.750587252421686 -1.186767226083182 0.3563998924595475 1.0402953356394664
Ni 3.0209221924379075 6.610481801986067 2.725641128747696 -2.2851622940788583 -1.8772680903947603 -0.27786451795680533
Ni 5.841930620702849 4.116861125489593 4.395706070988597 -0.0956838612575707 -0.08952864028945227 0.26731013947972676
Ni 6.206483610966151 6.85508653374559 10.708506361212093 0.5089372723710526 0.3872443886442299 -0.48768581919144394
Ni 0.8851239834628529 4.42856718560388 13.457601443210422 -0.38956918012266456 -0.9007209436465327 2.7709452398206342
Ni 0.8832295757949368 5.289178794310838 8.465001252088367 -0.4585012272076877 -0.6992899233581183 2.051086748282545
Ni 7.696652116241355 5.804941476854249 1.9866006297316614 0.2843958913174199 0.5438716223543923 -1.1855570078251647
Ni 1.8982539457156224 0.645866968065305 0.5295286498093406 -0.7754938215142063 1.4219617159752866 -0.5998712776484636
Ni 2.0431149625919995 7.372897475068891 12.6556738387682 -0.4154684164869296 -0.027703379452539385 1.293481119902669
Ni 2.7951595878255167 1.4546807999892368 10.466441099614062 -0.40004128329858196 0.6056508604447182 -2.7110027978287308
Ni 7.196042841413418 7.6861235100243634 8.177398841787923 -0.5918954585318387 0.7975220049588394 0.7320717457748296
Ni 0.409568342724503 0.46134294915934015 10.41905959119582 -0.05746492698568813 -0.39451623971529476 0.8048550482851429
Ni 6.56063774896232 6.704340248429258 5.204768289045112 0.47144570318349777 -0.9628135992122192 1.859738309041113
Ni 3.7790745214539916 3.4337714564659443 5.4718195273160175 -1.3210831978906536 0.4180318063387316 -0.8024202135914051
Ni 1.6320173768870359 7.347317410668455 10.462100829991336 -0.12684023225571703 0.5555020075044691 -1.991368763596622
Ni 3.576000321788074 7.486793638625756 5.48265768938481 0.05303954422448284 -0.2671335046925464 -0.715061070149446
Ni 1.402723611210672 7.487887279060267 4.507290760610147 -0.5348619626566143 0.6126103224816869 -0.3669804961888712
P 5.067373685169095 2.625126304676827 0.041405412213385465 2.901141533032778 -1.0193434159781476 -0.25715351066169906
P 8.964227720536394 5.525164156544127 4.991095045303711 0.36754511044308963 0.4165531649106762 0.031174368720275344
P 7.4207488781484 3.933175873188062 2.9031917996627596 -0.54645789502433 0.24197706003157682 1.5403612736628183
P 9.054453056383581 6.2527594303688225 13.344538485374423 -0.7930120329036279 0.6065574314193876 0.5627748870167985
P 9.099227437223618 7.235126584738286 9.151939052539209 1.1634483488515834 0.12128433543449435 0.12488028031586879
P 5.383027972614753 6.393672219913828 8.2056814956011 -0.30216324260316996 0.15292947314360114 0.5789638380718353
P 2.622642443350988 8.176037352128349 1.33634056364976 1.6368604317328324 -0.7491911790639355 0.1479623589463129
P 6.928953603771484 0.2148160053140743 2.6753021570866373 -0.7147178278774142 0.40030430715198156 -1.9742891824065156
