# total energy = -340865.74177008553 ev
CRYSTAL
PRIMVEC
9.28153193435275 0.00000000000000 0.00000000000000

0.00000000000000 9.28153193435275 0.00000000000000

0.00000000000000 0.00000000000000 13.58446017755121

PRIMCOORD
 96 1
Ni 1.5769786421817573 4.3514976294319885 9.416312526625676 -0.7228368574401229 0.9982750253436228 -0.7322460665691648
Ni 6.5816547829282985 4.4486659847187715 10.471798100990194 2.0674641611993043 2.492118872171192 1.208101468784584
Ni 5.417565078078907 4.570012730064019 0.8549905675131033 0.43378804073172383 -1.7469262727436883 0.5393169131041744
Ni 5.3783877328056695 5.907694922154666 6.96149218590435 0.39534567759512557 -0.3042219249044116 -0.2776660287927541
Ni 3.9626014515242423 8.041806785698963 7.82137504877247 1.2287325147713741 -0.12541249867025497 -0.31479687220678043
Ni 6.926324462322192 5.697171220309714 5.020598608364697 -1.1548791191253338 1.156069539889009 0.9182854348928572
Ni 2.19635381507292 5.651849501056169 4.393581022278087 -0.7433964267590295 0.704286091021129 1.262096949164433
Ni 8.10333405928728 0.9694188591349038 6.697750037642037 -0.04318322025569338 0.3597713800349417 1.662534696570485
Ni 3.4935221213266385 0.49167336279619134 1.6314120410976418 1.4176456050984358 -1.0688546353343977 -2.232253104784652
Ni 7.050381414921595 3.273215685077993 5.0513000588965165 -1.684154588833106 -0.3524843594552252 0.38961288887640644
Ni 8.620380345270735 6.822696160977563 12.022505367716871 -1.068726594396966 0.7124241467472311 -0.8344579587532402
Ni 5.180524040189027 0.3848169447289765 4.2986662228861965 -0.9267767601933201 -0.5421093882476471 -1.2626579638742252
Ni 4.08929435912426 1.1539449907096986 8.335153307447065 0.013712464490086063 0.3587555371759176 1.8838753112986328
Ni 7.730801221753073 7.192203219180075 2.9354384711188075 -0.46271655084061597 0.8592171679757913 0.29504822882494347
Ni 2.703394609892068 3.2756938540398397 5.036587903011037 -0.9599473334080177 -0.011893409003476291 1.1917857623436958
Ni 1.6869833557990035 3.8591494992817665 2.8407278654241486 -0.6217199980924389 -0.7684965642607668 -0.12063693165848256
Ni 7.747415163482307 6.546514903941217 0.7654711224939524 -0.4156625347756067 -0.4718385677465422 -0.4523544908800016
Ni 4.2560556390399755 4.585215878976021 11.550716758418282 0.04435872862103328 -0.5818925816828558 -1.186057087390035
Ni 7.481137300761654 4.424404060875076 12.993440829130297 0.31214580773717854 0.742429949080702 0.4813724753789065
Ni 3.3961031646841637 6.230441623691327 9.93033488958378 1.6232235576756886 -0.28006461093191765 -0.802879669726327
Ni 2.9778587835653365 1.7792696254156317 3.3579291529868662 0.3566423474876568 0.21648997150406588 0.45600828558250495
Ni 8.655483098131048 2.120997059263064 0.34156779150232436 -0.9348333119492094 0.04031901133402088 -0.5487801153996033
Ni 8.729920982303366 0.2164323249202762 12.111523610024635 -0.09862006106775918 -1.5523228169000685 0.8782888398952616
Ni 3.274357313476147 5.322522193549662 7.637726950095768 -0.5980103131803249 -1.9776254458686007 0.5765418588939039
P 3.64482965097466 8.37439191082947 9.920418501123715 0.40643073176469363 1.2802296542094016 1.0886708987293767
P 7.7769211527321565 1.1490164973810826 4.657717635637324 -0.1117375722863237 -0.12306071060862679 -1.0552031059892344
P 1.8984630554082635 5.963560461410673 2.251651324589359 -0.8328595039178688 0.7932989680164273 -1.1675942526991567
P 6.427646327557816 1.7544600912020898 8.309315379522015 0.9467909985317177 0.5825119604344098 1.1269476828223883
P 0.5430772697677061 3.9169270340663904 5.211732262351247 0.7854524753888149 -1.0078518703987804 0.7672914882090721
P 4.114762882087956 2.536057875011429 1.5532745383927695 1.2382551095498286 1.0608801017693537 0.657460646027158
P 2.635314574928981 7.025404813137591 6.572202471052851 -1.4891927212088032 0.02024743739512642 -1.1050082024368195
P 5.044716668467162 2.4672538805763424 4.4531898032656025 -0.4044841495612841 1.3668465201686977 0.7460762875840377
Ni 5.780426559589726 2.495144883311731 10.342406123974051 -1.177255687048321 -1.9450760511776695 -0.5914123482478331
Ni 1.527647301237135 6.170148793818087 11.217924655131034 -0.6846546899434466 0.03549665024471307 1.3600366963357158
Ni 3.2648530250232226 4.994392203631463 0.23697513901486367 0.9799042361459188 2.774502103933957 -0.6551553949327491
Ni 6.118070119492542 1.3163903583884906 13.18614955904503 0.4082305039775937 0.46450912396466454 -0.11691937359757928
Ni 0.7985180160844185 1.220790581957708 4.510054035331703 -0.3227456947402119 1.0725757929397268 -1.757810780866676
Ni 0.6901728403337574 7.648130618969677 3.5261996099557513 1.3502960720091843 -0.7332313133005695 0.6983643262200553
Ni 4.419327063039383 7.239149206479774 5.093601567737385 -0.5962365091093539 1.0409645937923493 0.633843006608218
Ni 3.6424442973297366 7.670517673411527 2.639080092336551 -0.9395330314177239 1.1259418672656931 3.807436885443294
Ni 4.28606283100121 4.8455721244769805 5.143783096985022 1.9451506131693468 -0.6521158367754769 -0.49182786638427556
Ni 6.733444952224319 8.211770194048524 13.229321675558637 -0.6492482854196948 0.785892391139711 -1.7519957168467952
Ni 4.0801427688756435 2.633968752833596 13.064365653557076 -0.3611520624325522 -0.023975794089307095 -0.5557748015498815
Ni 8.437459918678709 3.0058982908078016 3.4315706817399843 1.6742129042393616 -0.4888531000266677 -1.7447012400679114
Ni 1.8010255357024039 3.5617042531383407 0.320253682124106 -2.4664145254265524 -1.3050989066472556 0.05438705939131279
Ni 4.271583641561208 8.98289841010894 12.694663683189024 0.6577437244852157 1.7601962503797173 0.835261171380826
Ni 8.580219157638115 7.8258812324090865 7.86699192073383 -0.26749500179702324 -0.460245206481988 0.05340078421864352
Ni 3.493791285745716 3.235968898396757 9.660086387605158 0.3339495338758313 -0.5576630197115299 -0.6240692150509058
Ni 7.477879483137653 4.420617195944613 6.99966434129531 0.4337870122904593 1.118611395042551 0.298264421769396
Ni 5.416200692920136 3.1207479639684332 6.726427186111765 -0.3025854177422531 0.8378145339302989 0.484756561359791
Ni 0.8006388460761112 5.665846050848171 6.820132601924147 -0.9185258330384375 -0.2601832986269584 -0.8201078606791553
Ni 6.574999924704914 5.072681923456089 2.767901255153615 -1.7237902009468573 -0.908917363414396 0.872775109165884
Ni 3.669611340593125 1.3219499958721836 11.091154710817971 -0.41274176158438597 -1.2489043617335587 -0.609983426381801
Ni 6.271967196482717 8.613818302364272 8.973731041256446 -1.493441469182828 2.090057216008472 0.0081334277404118
Ni 8.393474739988857 3.2483597432059894 8.736967521164166 0.3162454317278489 -0.33247397777156934 0.30449523317045624
Ni 5.546420582563232 7.244625310178236 11.09137189865957 0.9354958852338727 0.07376649235918908 -0.6146882880566381
P 6.406205989348582 7.842523018733397 7.09318041386117 -0.5662852141629022 -0.7168780687535267 -2.2823762466932886
P 2.5659629701240485 9.053215294209872 4.355150840306082 -0.1393609904305471 -0.6420270850809072 -1.0817083513686145
P 7.902453868870635 8.076371209721122 10.136520403515744 0.6361577707843238 -0.3080675239027469 2.0481474631485628
P 4.972654856408075 4.750269357060351 9.17369421634189 -0.08441934408734493 1.084922744540854 -0.713483698359997
P 1.1847968020549335 8.039532810434347 12.497689161308505 0.5085829743554273 -0.5055071636435811 0.32618428810811567
P 8.226973342960527 8.846840437031382 1.0292819540907892 0.9743334269263606 -1.8242344597075486 -1.4650672889155092
P 0.5561317440929388 0.295801486880718 8.249352972177023 0.5422636544373242 0.5075450200092162 -1.4976480510650079
P 8.87223470774154 6.854810260632951 5.1993024351089066 -0.09102116567457873 0.9972998059145468 0.8109411065782228
Ni 0.8033490533302654 8.886945935473848 6.074753211084536 0.2332049702659016 -2.27985579426428 0.8559500671887452
Ni 3.558307212538956 6.997059015349279 12.233132094563606 -1.2216092734630317 -1.177304023787753 0.34507572569597994
Ni 0.9091789339923109 8.69267419562213 10.218610910568373 0.14355883056197857 -0.07145789883067047 0.7212294037436869
Ni 6.312081976456876 9.090165071876955 1.9245914952752825 -2.5788426960219977 -0.8458587443910142 0.30737589715236097
Ni 6.470814731458744 2.4265265195104906 1.59045542619899 -0.8421825810910076 0.8616640868543869 1.0392391264608103
Ni 9.083528776716953 4.555255094673248 10.834747757052089 -1.1302597779147567 -0.013132937837532221 0.9799476877893446
Ni 7.034936946185592 8.24829302125776 4.950014416151026 -0.3315509517366677 0.7356687190974686 1.222677566826546
Ni 1.0189636753084492 2.1628196410686082 6.726902400534411 -0.2682876729016476 0.8899408223118932 0.44116504992208544
Ni 6.48526607630367 0.4644478458831414 11.038759536261718 -0.3774220032371694 -0.9636882885076888 1.1302854889463696
Ni 3.856968339334074 5.162128044374871 2.5745678781559884 0.9363500057040519 -0.4897018211802083 0.8717422970259954
Ni 1.8174167206710217 1.3737409427152676 13.551327710866252 0.6822982738961282 -2.283271761924365 -1.0672883192885425
Ni 4.889260294152679 7.079321230738214 0.761469854181398 0.8067576646244944 -0.28873565634335435 -0.14272733579961872
Ni 2.500853025302501 7.574648732561667 0.8896719388345851 -1.6738251818826397 -0.8645457792775563 -4.230136272461024
Ni 8.158633425110056 0.9742359740832122 2.479109181006929 1.6605336069800563 0.2776063791994122 1.6180759520364778
Ni 0.5150795294178561 5.619865342844473 0.10220172992352188 0.9407213952988702 -0.1802261040760251 0.7147075434647692
Ni 1.3240104959078762 2.0291841477627433 9.234783401634328 0.5649261290318464 -0.4861231026900144 0.5734701619471155
Ni 2.9105305526693273 0.8209227054364832 6.221451532094156 0.9771693537132591 -0.9110084416154697 -0.34941471939096597
Ni 1.1997771942063205 9.131235849615422 1.9009959854070946 -0.9255835112161672 1.0024448404505961 0.06442001814728261
Ni 1.455520518456202 6.7434875695153975 8.860993844708984 -0.7648486830955343 0.5369671819250752 -0.8108292635907068
Ni 5.610314646733086 0.7317411081709324 6.638454044272552 0.23176643804716213 -1.822273736436752 -0.8833503135785691
Ni 0.46768895675009575 2.195045119104305 11.727206011700705 0.9889617183624968 1.5374358724859072 -1.227098321602061
Ni 8.797434843833221 5.154804915869638 3.819134959849884 1.6315819569427128 1.7948778609223026 -0.2741377039245214
Ni 6.782358624242788 6.285573921943642 8.761555226770263 -0.850882937078483 0.2922578105639999 0.7333570402451564
Ni 8.361611241689161 1.0879254557823048 9.675436184717897 -0.6841281280160153 -0.15984265532366665 -0.23389813967818426
P 8.298830961322382 4.661175934345877 1.7522455177403047 1.066809322769595 -0.9306210736400747 -2.2512535571465553
P 5.56337794096508 5.655524987606324 12.707732079811795 1.5949259962825757 2.1429887739001803 -0.3573455442022684
P 0.9107540099204957 1.9941649286876615 1.8216899378621607 0.28535774101005695 0.7452764173905616 1.5700163775250895
P 3.2829612933549175 2.7681240119142307 7.117631680951388 -1.1293115550688744 0.8443176251561393 1.2369834419262569
P 5.410325483358905 6.8901728963806494 3.2435073584372502 2.6276905707626357 -0.5550615775329408 -0.2534182119889829
P 8.642739555117508 5.50496926202538 8.83249397349458 2.808700347082221 -1.5373589965013845 -0.25427053268694916
P 2.1970684930132283 4.008749227098403 11.744254329113138 -1.4105889553619706 -0.44488235087267247 -0.45016956741354086
P 7.603625674505055 2.6228401963345176 11.89936171783599 -0.4876868476327085 -1.0422550304689984 -0.8988026435778973
