# total energy = -340857.43513637845 ev
CRYSTAL
PRIMVEC
9.38037861982595 0.00000000000000 0.00000000000000

0.00000000000000 9.38037861982595 0.00000000000000

0.00000000000000 0.00000000000000 13.72913229331866

PRIMCOORD
 96 1
Ni 7.240873877417443 3.975413924195723 10.742263490486632 1.1901741948822018 0.9295167848323025 -2.439343380241373
Ni 0.5747395624386012 0.922079981528431 -0.08240568989376384 -0.10552732971055373 1.0229558159197545 1.1576857353361931
Ni 6.943159414435706 1.5707350529910256 5.229838851232706 -0.20565225745861354 -0.07721871257384764 -0.7004772587980002
Ni 4.0013037697382785 4.9118383810153405 6.178974659390989 -0.8938080185767832 -1.0183527699301045 0.03867504797269468
Ni 0.9104623823601505 5.796220496142896 1.194266681590058 1.0326792138551053 -0.5127368486228008 -1.8664316619008887
Ni 1.195838833080251 1.0254254910615588 4.122872541204566 -0.1709513636423185 -0.5591264916309339 0.13918898362905707
Ni 1.5795432287027862 5.92642015416125 5.532895439952301 -0.008777231971997788 -0.3558954420193032 1.0872637339692048
Ni 3.924909964630102 2.358424223244431 10.202832611963512 -1.6691113213467383 0.9602193561224817 2.999629953618679
Ni 3.0784996229649613 1.8289675015203688 8.123760760161128 -1.1429036919310123 -0.041380362718999704 -0.7076940882614134
Ni 2.650182145675618 2.728939806246375 5.025260293476661 0.5373736733348745 0.40550307774410166 0.1346255326280907
Ni 1.5226981330550031 6.580617153430563 3.274837517927841 0.4815727643151706 0.6038418322604375 -0.7989664507148498
Ni 3.1157960091523513 6.659008979227349 7.620217334926671 -0.7828924279711228 -0.16226412028096573 -1.1683396155056136
Ni 4.227624169522776 0.057495155899992795 1.1874246332789207 0.09747103506498053 -0.3457079599633401 0.06014401647974803
Ni 6.891811220776305 8.677038015860104 7.817861916659143 -0.9679293231722297 1.7013223588616442 0.25553577255261795
Ni 9.352565996565565 8.158415631672872 4.554667324922396 0.9372028406226505 -1.150434967311051 -0.9153970576014686
Ni 6.225138317676703 7.366664757390509 2.7526637223194457 2.064238969393787 -1.2277467538193372 -0.9051769225353572
Ni 6.789921546036005 3.7708184817578037 4.088933392596769 0.487823887431205 -1.3354428090464356 -2.9759066418598104
Ni 8.089301000528835 6.9521739584815005 7.072933203255642 0.539170103113665 -1.2811835334822388 -0.6345158643055266
Ni 8.663783540587774 6.613514141951483 2.473000860338465 -1.7585528012390228 1.1141821556266036 0.8031267527401266
Ni 4.5400470664939085 0.06143397696641261 11.106717472695241 -0.6483653685941092 -1.0968200101990724 -0.8775483621848112
Ni 3.5388792350602647 0.5068884683215866 3.875939697001513 -0.8519471166769391 0.21664346636279466 0.17282081275088945
Ni 8.854036383810271 0.585741808756305 11.179316914570823 0.6507431247976664 1.789249973212564 -0.6895223024483931
Ni 5.100346473777362 4.8402942317569835 13.791600453738821 0.30174415278788036 -1.3111399706350129 -1.062496554326854
Ni 7.475889888367865 8.603964864854126 5.505313374070662 -1.8532863827681825 1.299668993880936 -0.5158651098391374
P 4.04654533678601 8.209154100708988 12.981581291704963 -3.0728477725632497 2.591042323411983 -0.10810100397500093
P 3.911533544433116 3.4296634844617273 12.83805680557313 -1.068403149619276 0.9546498324545043 -1.526025059545804
P 7.906468036952773 5.931935816907272 0.3833066675605772 1.0605695125074703 0.5191268113095447 0.3828421458114761
P 2.1250873001027473 6.555552781224147 10.536642772643711 1.45376446230818 -3.600402402925173 1.016478692835843
P 1.9432580370603998 4.006125284451637 7.543471765612753 0.7233605911540768 0.08877016485687293 -0.5549908721960055
P 4.878735024160386 2.942352804774875 4.8516698171517145 -0.01093875839969084 0.15442996894852756 -0.9424021254354028
P 1.134341069537864 4.46936591208697 3.8674551443590346 -1.704489700846032 -0.7392564364487269 1.2496615516145575
P 8.281401778378827 0.781428705429093 6.8914754032145575 0.15542267187910008 1.3311243841767397 0.5354864836144907
Ni 0.5585659132775604 1.3003081119959867 8.842947838007426 1.1638126741695376 -2.6727671513863 -0.4476910239660612
Ni 3.2161848232814885 4.8919519779174365 3.680327843359283 0.9508304587084141 -0.07616224628487528 -0.36793900344739855
Ni 2.587868289175911 0.009379440781884196 6.461836230549509 -2.2738057314154583 0.35758105725184225 -3.4165459011854127
Ni 5.23000206982417 5.7868776388384084 4.205700348145219 1.9133517234911952 -0.6825846947882954 0.053310538497682386
Ni 5.232328403771472 7.004685319114552 0.32866596093543926 1.3716339142550118 0.7393641656711848 2.561138336763699
Ni 6.693463110632349 1.7479491696540483 13.514752643441653 -1.626147930411335 -0.646445525863577 2.689241237781923
Ni 2.1251904842697646 4.157158763828693 9.725663059818709 -1.627329609424262 0.5560892474665068 -0.4623054314451264
Ni 6.743685658833378 8.751433800279669 10.088400432703303 -0.12302008717867845 -0.35703624049196575 1.2812177291542837
Ni 7.978922082956647 3.1044551311592543 6.6943664411126935 -0.16743306607641487 -1.7410142781346274 2.368271146884896
Ni 0.87943490333801 1.9906570912366781 6.606527635806521 0.11030726759770033 0.20722782947584956 0.12167719999753882
Ni 8.857844817611097 1.788669394110653 2.5310203794144823 -0.05751943437270739 0.7972579526641753 -0.8231235075770276
Ni 6.40380639305679 8.969940344507304 12.837823234140519 -0.4435811155627457 -0.8188215377675641 -0.5383236959529697
Ni 8.922372443512268 4.089591895189917 2.0413439681892847 -0.8916616616577419 -0.11987974177748388 0.7021016817753005
Ni 6.4228954639550135 1.6939650895462939 11.35344394856426 -0.04076741172534914 0.18992121987660196 -2.274919533304927
Ni 4.055081481511998 7.430939113063546 3.079114975815538 -2.4356039678035986 0.3974187580740704 -1.1952878619596834
Ni 0.20890666454348453 5.105796473871646 11.755184936581442 0.45114890060767465 -1.3026121356696598 0.07837339500358115
Ni 7.7554157968180775 9.331610230282207 3.080707764139134 2.856173195852204 -0.7881511052669007 0.0001313833715417092
Ni 8.388281814651242 8.478896274050182 0.6098578246640418 -0.8682661655519369 0.16855509549600003 0.3544872488178669
Ni 4.976966351160978 0.4442772538132933 6.157433557469277 -0.05144057516847915 -0.8769762917314251 0.18883955677664896
Ni 4.084170036232092 4.797857397976362 8.64972422881271 0.9452581068269591 -1.2017845254276205 -1.4641378351227041
Ni 0.6363358199585959 9.158167025904731 2.1243087286607065 1.608323243525088 -0.6179587312777939 0.4307248284253679
Ni 8.648596707278573 6.315068009421801 9.899391427712306 -2.093287292909995 -0.41420497639347376 0.06596088027184124
Ni 4.343227958097574 2.292179988019242 2.305821872936828 0.28499598679526406 0.6699436089855171 0.7127180238385661
Ni 1.949139534580393 3.7006063462918535 2.010878373858448 0.40280341942475145 -1.427976811821115 -1.0228671128606899
P 3.5385978236956723 -0.3828517191878185 8.088696904132842 2.072974806604888 2.5174568367153487 -0.33237858984428564
P 2.4137403171445917 1.4133979590470878 1.5264465324313816 -0.5430655815133292 -0.7974055339856331 0.24916689291179667
P 5.69376799867341 3.3053078024480875 9.508673322846233 -0.02886346119891158 -0.08702155759688239 -0.9446212445739087
P 2.0586085554070643 1.0746912406229707 10.678203945488566 -0.4918942008458367 1.3114392470429865 -1.394458368348695
P 6.454582383608184 9.148645941402668 1.3955386558121348 -0.547279876704993 -0.12554002538705475 -0.6525272132812826
P 8.249864944786772 8.086974666581533 11.652875958907899 0.9533054026114679 1.2650951125608083 -0.8903306015511441
P 8.451880783049257 2.176257266564572 12.620532387007927 1.037242921966388 0.7358384119061134 -1.2957133516672974
P 7.589448754359955 6.343903293913763 4.523804002529602 0.4158941911704386 0.21360853619121278 -1.0625736874216927
Ni 9.158729848633916 2.798298327239726 4.598710079556962 0.12571691728455123 0.4218938603972992 -0.7353686713585464
Ni 0.8155901690149174 8.027990844562844 10.279399954079855 -1.156385271357215 2.3236527368445725 -0.40144896227938603
Ni 5.6136970850678845 6.481898046731343 7.7623413305007105 0.29575116842923904 0.009050540238042476 -0.22093309487708404
Ni 3.706525365327126 7.152173015297736 5.422183518932011 -0.8685698128352847 1.4773911005881846 -0.40638290924589365
Ni 7.233913636333178 4.093550415051858 12.856262244786533 0.9458731147031388 0.1663478034320361 2.7622911636900622
Ni 0.23475148426770426 7.145456664062783 12.96420038778982 -0.042192574207649915 -0.03523465483257803 0.155616533057461
Ni 8.670818824702598 4.807434764751344 5.6056731090254575 1.8583887369917542 2.778084936189209 -0.8567537940369632
Ni 0.8088362962646858 6.226282723892715 8.056049433688528 1.716976006238501 -3.010767715403053 -0.04044808071271743
Ni 3.721571492954031 7.669360201525543 9.44584917373873 1.5070348915965464 -2.1213693958581916 4.168674308500801
Ni 0.22139101071471132 2.9188924773466396 10.207307990698423 -0.9621875355924462 1.0386943097009338 1.8065426988547404
Ni 5.005210671787293 7.002124475696756 11.607693488246731 -1.2899584514613913 -0.714451461589905 -1.0545564735441708
Ni 2.2715712957522154 6.085305010610449 12.950525671546364 1.7962143203455387 -0.820635193937535 -1.4522397981335378
Ni 2.2611872163987345 7.755265710756961 0.8199501690903447 0.587465190674627 0.7886673827816869 0.14993953727734177
Ni 1.8200655220204105 2.9520708772321527 12.060288323959512 0.6041822463189918 0.025244376389085554 0.09301505617615594
Ni 1.8268944378012004 9.110983720441306 12.223486278590038 1.6622053382555242 -1.4237715154905157 0.3097937625652342
Ni 5.376673673050034 1.1951446850475882 8.979814131252988 0.4470811582962042 -1.8739549668611275 -1.733258031227976
Ni 4.186237938169968 1.441464052475828 12.810516013358297 -0.3123702650431588 -0.5900049263773451 0.6954960035333247
Ni 5.696675916107536 0.018219509781631837 3.5069972035276438 -2.332124521761009 1.2959113266107165 1.3071596458310262
Ni 6.685349082953252 5.029515233309308 1.838097424225647 -0.35905918445926555 0.5993727407454903 0.7534124162341347
Ni 3.928483888960433 4.84809870693503 10.867720428973712 0.8043670529051308 0.4874726747393734 2.8698126410125093
Ni 5.050339674289189 2.765063645081294 6.932882271400769 0.5517633663976433 0.15452227155201775 1.043265988232016
Ni 7.106087214156224 6.565927480198809 12.188751673858325 0.2066552448018312 -2.6284436468785763 0.7591781150733183
Ni 7.679078273982821 1.9798508948363076 8.824495694831064 -0.6570603252649458 -0.33425266693854694 0.3265478420951215
Ni 6.42665699586174 4.644197412529772 5.981961377153086 -1.4180991476960867 1.7478402999175255 2.916952017702473
P 3.549432161232502 5.210537783773154 1.3912143011762226 -1.3256813587842975 1.0828463216277995 1.0880708032515325
P 2.0506070922738036 8.331464860139919 4.350514636364769 1.4045882576938455 0.5172211096463996 0.42620611461940794
P 6.462865258106037 2.957492736189977 1.4682759892563657 -0.060567477170411825 0.6419409531250042 1.452182719643357
P 5.805591494583842 7.325250384901241 5.700143842157204 -0.6751290098411986 0.3665778614338139 1.325918157385452
P 0.2841110376173139 8.147018471406856 8.07347161127048 -0.45927075838386067 2.6714954837627283 -0.05348125974759177
P 0.512166807483469 3.710699633901922 13.774576004218828 0.5317313874474326 0.391767473325564 -0.2500503239580145
P 8.259245323606539 5.0741095542184755 8.054401301129895 -0.3910521924260943 -1.5925338419013155 -0.45810681998274655
P 6.196246750911824 6.548142281956532 9.89264974945454 0.23969623441720006 -0.08016725367921032 -0.6626275349400781
