# total energy = -340858.9996491794 ev
CRYSTAL
PRIMVEC
9.36214972891668 0.00000000000000 0.00000000000000

0.00000000000000 9.36214972891668 0.00000000000000

0.00000000000000 0.00000000000000 13.70245246886975

PRIMCOORD
 96 1
Ni 4.177625260276334 4.644974412313387 12.961012504965016 -0.5324314988382507 0.42406515701700515 0.4062972915106228
Ni 5.366749345230647 0.7649999781897021 0.09527859773395092 0.1282224573152243 0.3056290896645833 1.056626468699322
Ni 3.4725524024654293 3.734346195177866 2.997398026204066 -0.769282807607488 1.262571060587374 1.3817530049668847
Ni 4.305802452137936 8.261900525661716 9.96843785829839 0.4778351516496093 -1.354712455909325 2.958152660310499
Ni 6.917083890809043 4.986955017405828 7.173645178041131 -1.7879379392693595 0.8382889024635564 -0.6136073962876336
Ni 4.409759762665379 0.4930005060639037 8.600536034658022 1.237785883222894 2.1364216622056236 -1.2109541077420307
Ni 8.810269721404145 7.089506602262927 1.5825103817474089 0.8622251015641795 -0.8644156814575951 -1.6833603750665846
Ni 2.234698328201377 2.6726877787061847 10.217658283932444 0.574674723778178 -2.9624271193161364 1.9188603120142502
Ni 5.284025390275631 3.3176930838924426 7.579661951025921 0.3925123219113885 -0.9201119465786347 -0.18690197343430393
Ni -0.05656517241316283 2.4842464290757467 9.15229245617034 0.8470087988350574 0.35461426131403445 -0.6438458834572008
Ni 5.114607928882925 8.357750214528787 6.08535519046657 0.8294792745917264 0.6783380036967995 1.2111220007784624
Ni 6.81509263172349 -0.03596750680694631 9.733249422669607 -0.3363026074890402 1.444562484093938 -0.9150430166961595
Ni 3.668230693831972 0.07826944411667254 4.068601154318644 -0.26996146105964475 0.5681996575767956 0.1066177345612551
Ni 5.819437370801024 7.176827372732078 8.34686297061557 -0.04514548618838677 -0.23451186200278323 -0.2565726984575646
Ni 7.158074986836323 3.198803144556347 9.278725479538492 -0.383359708877843 1.9404629778856906 -0.7259399218454787
Ni 2.1897225609306785 4.22549393181153 0.6269719323892514 1.9231671669197201 -0.9291488599699224 -0.6466990366352798
Ni 6.693309788122899 2.02607218376752 11.078939546091462 -1.9763316667578414 -1.614956689681206 1.6417270157965145
Ni 9.275016195818123 0.05372001511225414 2.642531358232486 0.13413188082112384 0.0447896455108648 0.7841797793239785
Ni 7.41898873747477 0.0655425377828283 5.135363814819465 0.4253576505761836 1.9327440119748776 -3.222406272352089
Ni 1.787131398529641 0.39700570387612094 11.029172230592382 -0.11963882941127137 -0.3543602363216994 -0.46841668654918683
Ni 2.569076867718503 8.367936233427729 1.870960087152005 -0.37726542305464705 -1.2474606873084968 -0.34448822862362605
Ni 5.270525170374643 5.95430849971478 5.085061920571185 -2.13423493896695 1.0676318186708904 0.5800663271073946
Ni 8.169327589197795 3.920109969987442 11.693824006972969 -0.5158856786644277 0.25917182664330846 0.2491743491109644
Ni 0.02785333164176844 4.247148584121507 0.09941198683678469 -0.961489223973841 -1.5696507666555546 0.044679088074929506
P 3.227900705896341 0.24069150723613483 6.894552941284966 -1.0538982711348817 -0.23054722092808036 -2.1079065854850665
P 4.618648047291488 2.1902749277643525 5.213481592110621 -1.759156753371609 -0.945737360456223 -0.10702448308137051
P 8.139452969430767 3.1818951021560804 6.441796572021609 -0.6490420829461596 -0.8983388165676013 -0.33247577754378227
P 8.174813808935646 1.9773141080086112 13.026291030125646 -3.7952724821666193 1.3076856935378254 -1.5500281073286208
P 2.0918506477233754 3.6170571834444534 4.525097702396457 -1.842368450304098 -1.0492029225417414 0.4639496519167688
P 0.09945786137042884 8.54262458511465 4.854271822882405 0.08948930241108459 0.6843870381043567 -1.0612863360688367
P 4.503203379053565 3.4066054198145546 1.350510694314379 1.7588294519391772 -0.15484494499875914 -3.773047095109515
P 2.1150313304382484 2.6885472603374425 12.511394328288906 -0.1423810082037935 -0.4496044389386902 0.8426924308478907
Ni 8.943493111966601 5.536822157103983 9.916012628492867 -0.09422527443417321 0.9563004806840497 1.4724594676145222
Ni 7.01312082267058 7.385060306877557 10.711686754035966 -0.8114483852319445 -1.814839905866526 0.07382742750411156
Ni 3.672855595795279 4.022616147307775 5.923569753528293 -0.5529892683849444 -1.3201069500203135 -4.292960663986412
Ni 2.895385234174151 7.801750866761873 5.495669891780278 1.2747025537435852 -1.1837970877112645 -0.23536161159758823
Ni 1.9308497589319091 5.7435571472937355 7.690282303511432 -0.298718221477363 0.2751062384853778 0.06708856611838122
Ni 4.05225671333172 1.4180567321379918 11.987768358050168 -0.8099201215128762 0.4363817696008291 -0.2020051476243295
Ni 8.724484343489612 2.1390826930773876 4.245335135720104 0.42887311992860977 -0.18402465188650888 0.2048503303826085
Ni 0.9854973284726942 2.8999633253888404 2.5763765358577544 0.4609358047911094 -0.150537832982973 -0.12908429109488737
Ni 3.0223827951706177 1.5842161654269928 0.6634946146747891 0.25610038680683633 0.5723982690391756 0.40032564730822023
Ni 8.89057824173055 1.0908308750094615 6.60389657719059 1.4844330950366305 0.5262996749089001 0.9650517445141187
Ni 0.18545201522379026 4.542215456950526 4.292087839008284 -1.2325670580261159 0.8979354104815954 0.008035211599650677
Ni 5.4505031366552235 7.472455974544495 0.04312112541051435 -2.565919045981794 0.4217959013668542 -1.793045949919886
Ni 7.135250065810935 5.05650642770017 0.8112171665137093 -1.8574289441816465 0.3539737995165581 -2.6193116026703214
Ni 1.3797000047216612 6.8936785165008105 4.053994328320363 -1.0342115913392318 0.46045757960311023 0.270011854681606
Ni 7.604555907140157 7.131018374136007 5.885586575885922 0.03177523552906786 -1.4878338931880635 -1.0885099476714801
Ni 2.611215903623044 8.879456007859279 13.011054131450988 -0.4402003720159709 -0.29315692533950155 0.7228738813256455
Ni 1.9046451018564126 1.6689717068719625 7.950477977266104 0.8064450184800821 -0.7333534407007305 -0.5865424217500415
Ni 6.48260524645047 2.732848952828064 4.682169296949057 1.3880416661890742 0.7507927192231004 0.21792284729585049
Ni 3.058061947766087 3.679156322559055 7.929965507222368 -1.4306900969872198 -1.1281422173511217 2.9942676608655012
Ni 6.027988618037094 3.2568016620921463 13.271647696568898 0.4737008177662616 -1.1291022672715456 0.8415904560329633
Ni 0.5587377765609765 0.10753926901157518 8.791616574295457 -1.1179094838795198 -1.4391310286657215 1.3692738986632678
Ni 4.476315285048268 5.0117272655736596 9.197072554511822 0.3648444236824749 0.651118248748898 0.8980300270779307
Ni 5.993676339301226 8.34248991047982 3.8692706883450447 -0.9027037784045164 -0.5565721006401962 0.165589842220089
Ni 2.413768165958799 6.517872464458113 11.426680681908644 -0.5696752136810576 0.8802855586103163 -0.5376770635079062
P 6.724691713995375 5.387467782568294 9.476849164412759 0.14665803831259258 0.8745049473727972 -0.9070147470750444
P 7.117209203294149 5.9172905597088805 12.273204387458835 -1.0029251225211244 -4.504538800011159 -1.1136280828953466
P 3.163292510655898 6.8461656066550995 13.424073792428802 0.5812891437709021 -0.5940148188676867 -0.487280099112593
P 1.5530963797467676 4.316025919635771 9.45770637687354 -2.2698858275357616 3.2377956103239653 -2.653734560234881
P 0.4488252025945466 6.055578873271639 6.10773072830524 -0.05151462293952418 0.38932621087392305 -0.010347147562278954
P 7.129314462886367 5.417492196730894 4.529113128412777 2.08582415176373 -0.8573068383269559 -1.0727459999690039
P 4.035507827476749 7.1614734471858785 3.4295043018227567 -0.4861814667317756 1.1455593843863046 2.423761980863348
P 0.7153506257771356 7.526531751346234 10.200982422845316 1.4949766748804316 -0.08559510956300098 -1.8739804207824244
Ni 4.936539841145895 8.718689172810896 2.0145211634389217 -0.7978403075302066 1.0474232049334995 -1.4592015741633513
Ni 3.8721102283561195 6.223245612666089 1.6328113397807162 -0.05689414208388265 -2.041145835019749 -0.8308910673375884
Ni 8.826728380617693 1.2439769201830853 11.088326037404036 0.7733991437687068 0.2932690254373337 -0.1493857216564008
Ni 3.2409889912095045 7.747206982473969 7.954163855612164 0.530836386436989 -0.8472147441982764 0.2619313916663166
Ni 5.855696976679337 4.589812626143747 2.8386955451696676 -0.33619667803879516 -0.18162247020291947 0.28390301084140135
Ni 1.0502365938092642 3.2973584946934507 6.485850167544563 -0.22950463859617892 0.11231169962223883 -0.972056715077042
Ni 0.4855725764734432 1.6305775308567385 0.22358405104676188 3.4494999875139305 -0.9315965501794666 1.4496722945166776
Ni 1.508317217620258 1.1681996803227535 5.061781999069245 0.4640663800002911 -0.24750827426245114 -0.2475370706178575
Ni 7.625030928584998 0.28476195462859105 0.8885794183221947 0.2103686890976764 -1.0844774294733195 -0.4549050252159972
Ni 5.78576171824634 4.269130911671797 11.103549829069083 0.22058342484714913 -0.6857003575991416 0.41287520183845666
Ni 4.683012826639126 6.229602512328205 11.223651230579373 0.5821782312440748 1.423622391507161 0.8798163322833815
Ni 1.0946412699468417 8.35707613974871 6.728273672479507 -0.7499756226384439 -0.26267109804581856 0.7560994761479947
Ni 1.1458428667835303 4.44959570973799 11.539191252423286 0.766173572554545 -0.512521133067569 0.8022872875579666
Ni 8.916623742260752 8.365811025440541 11.597125171125997 0.3830583755873403 1.5610393708374601 0.8036301747391063
Ni 4.899718506284184 1.7219146635571834 2.9207604047841635 0.9381888586850036 0.4404513116845124 -0.684249484085228
Ni 8.978741605674799 4.704630030350209 7.847189124228903 1.735254749943031 -0.28292959118453853 -0.37798430349854256
Ni 6.352190500805001 6.889334479029204 1.979662135159213 0.19498706443528355 -0.4884329817701137 0.9389614751849701
Ni 8.035018189267438 7.331696053454787 3.4919741820664 0.388052486367822 0.12713873733274234 3.055683859189454
Ni 7.769189310024261 2.517725476486242 1.5462807347482104 0.8250613480296887 3.026010243384421 -1.0651401625972883
Ni 7.588022350728822 7.489261033297805 13.270824763608221 0.8912878232580908 2.520213573524879 1.6652554379357576
Ni 1.3112158794957745 5.630584086582761 2.1999694338028224 -0.0665496628957757 -0.20491255107911163 -0.27237675536935674
Ni 0.4225250515918725 6.296775936592831 12.872714326064752 -0.12828287823951456 0.15196890900254473 -0.5082541302610989
Ni 8.356551859364204 7.331153048770837 8.030939100632999 0.9906211083427906 -0.29138260704789815 1.8943854668013371
Ni 6.756991130540736 1.5656884711245962 7.713685805389719 0.39513021915020985 -1.0080092219122512 -0.6727242570544478
P 7.295642414870388 8.890325463688022 7.016971474851771 -1.4009560602578968 0.31247028095613283 4.603853058932464
P 0.30426986600701633 8.230518599789237 13.747807567710542 1.0117164955605091 2.0309028171355026 -0.13066166288433628
P 8.630038977081036 4.792156768113274 2.0518049884969627 2.476157206635613 -0.743623455168171 2.2563196588155527
P 1.9335554202019405 0.8734080546955988 2.489310415861076 0.3665547215053623 1.1475244785324754 1.0553671423709243
P 4.231036324447719 2.1167726902867807 10.007161581983873 2.107035495734023 0.4428020713048761 -1.5219526892486435
P 4.3345442517884445 5.454145012897586 7.146554861601811 0.7670840001839564 3.134704915079362 0.7608038236021994
P 7.141897192114473 1.2280987142523807 2.9493430478893763 -1.0562099499871938 -1.8535365511057755 1.8460088752701627
P 5.746908796894674 9.224685278905701 11.974134259408135 0.3762953458318939 -0.9420771379958164 -1.6671585684957417
