# total energy = -340890.0253943567 ev
CRYSTAL
PRIMVEC
9.08580504048840 0.00000000000000 0.00000000000000

0.00000000000000 9.08580504048840 0.00000000000000

0.00000000000000 0.00000000000000 13.29799408400536

PRIMCOORD
 96 1
Ni 6.461788114643466 2.1094785852860776 11.600797514330935 -0.8812432945378952 0.41525192960074936 -1.206994094653018
Ni 4.8239173194443445 0.2804787978265398 6.029868937600431 0.24821764162464996 0.4125347877799025 -0.17714000895153365
Ni 2.988366666638745 1.4925160881168726 4.813713960521144 -0.9295540658281412 0.8574500487730393 0.35066838929240896
Ni 3.5199407691861873 4.475149611852199 4.294002284874977 -0.5804080267175293 0.10684476297039662 0.5913848374440073
Ni 4.048534727720441 2.5750897441269864 2.560874093751884 -1.0712635018862067 0.8217453962825784 -0.014028710178924224
Ni 5.245816670823528 4.651695887218817 2.431498591779372 0.2545808648385164 0.30954333711732496 -0.4469104370462948
Ni 5.077820137884988 5.160255645908318 11.111405169696985 -0.5342932346373378 0.1830409478170009 0.5680171092523443
Ni 5.690984768598363 8.240398028026359 12.320777593404793 -0.29469598769184735 -0.41316573649568206 -0.04162693151216702
Ni 2.1663102950497644 6.636589915465778 0.03968952162441444 -0.6575107825388031 1.2711400332033076 0.9429029763312212
Ni 2.341348326799952 1.5451501560083254 0.11435484928165247 3.0195372340655675 0.4812881431952163 1.5275525519339241
Ni 8.248520737623279 8.809387475227178 7.128296414612408 -0.7516206144410346 0.8919467969983285 1.2480301866587216
Ni -0.17513888418478016 2.4998592794038332 1.5771558124133713 0.8839995171267937 -0.7173349537852872 -1.3179392529450336
Ni 6.956337562149017 0.7157615398503125 4.71311501988573 -0.4127312200614247 0.9480896627384833 -0.12866340150738487
Ni 0.814124463895344 7.28756966624893 1.984167163853501 -0.48647637226437507 0.36012310694740557 0.7956325012456104
Ni 7.889713215596461 3.6856113360656533 3.565365250875004 1.3577895521727519 1.988761150770446 1.2928064624331477
Ni 7.921031985149687 3.9014900609233982 12.606458014547034 0.48369803818828955 -0.47344756410487493 0.4581883239529593
Ni 8.371070074360707 7.025017161526109 9.087596638985135 -0.08001812969585573 0.7806154590114879 0.27240015240812443
Ni 6.7498081305521564 1.0477114225387683 0.2420631060516647 2.0923809790456414 -1.7968010460869444 1.0194935684027666
Ni 2.014004947205051 6.651345262653025 8.600038718364182 -0.3950296890166035 0.0717224653459668 1.7195213983681743
Ni 0.5295906713337869 4.9545621083639375 1.2315408791278595 -1.1293071841935003 -1.3797573146930946 -0.7281122469064493
Ni 6.5087889834856 2.22767582146766 6.849012400132619 -0.04843932644831012 -0.9208727360040592 0.8544128046086125
Ni 3.7343748510619292 4.773191270585726 0.2826194134652807 0.5273060046862273 -1.4911683568779353 -0.4378948638112458
Ni 6.453420088313752 5.5009915019527265 4.538285961648662 -0.2249771830394706 0.6399704596621946 0.2794927975888477
Ni 5.316513318892472 3.053284742779679 9.539768075190961 -0.8152351059678863 -0.5946316265160791 -1.8275676378458394
P 0.3501623786470984 5.708347741797148 12.494781660555283 -0.2530544008916609 0.6432894967330985 -1.2433716048407877
P 4.113262001958091 6.545095859938948 12.493226170753278 0.5599914107343904 0.539724175844922 -1.5279515871445557
P 2.6341838193153184 8.613579293433858 1.4792553558386792 0.3877161860743258 -0.40050253920571666 -0.08200199289510393
P 6.885331996712853 7.975764873977257 5.670743412401474 -0.7538836994435985 -1.5572878742148277 0.6369668969491803
P 4.526875099251826 1.3225479355110716 12.51494124450791 -0.03372618860785159 -1.3363570933305888 -0.2794886838237896
P 4.132551165799548 6.255413141730216 7.762224835305471 -0.21621769167928567 0.7240643020893207 0.3742410344060264
P 4.929994091864975 1.2017067300982767 3.958998663153495 1.029925305259052 -0.5220352432055912 -0.4652372603799407
P 0.5253321545686007 5.486045352862197 3.2673971871613148 -0.511401417640829 0.09423710150871512 -0.049000598268418835
Ni 0.33058156046776654 9.14677066925675 5.150525657421358 0.44959544007762564 0.18557014199675784 -1.3995908044792542
Ni 1.5990380649784974 6.945788942638923 4.370571997243081 1.6116188835572245 0.2535058866067828 0.3972536932511158
Ni 6.074696481906118 5.771248769246229 9.063819996094553 0.08414603582130024 0.6104002022042455 0.06470258238470791
Ni 8.633704351327793 2.518721410414131 10.381225366021892 -0.06424698290452807 -0.1572828650162904 -0.1607101455302845
Ni 2.491109649267553 5.2704755453716725 6.59180234870173 -0.41126440570791106 -0.2543327533834523 0.03006648036807725
Ni 0.27456121308328013 0.3186546243515728 9.41499271624856 0.6529722712385012 -0.8773853542443857 -0.36901038213470644
Ni 1.5150761417289007 1.282297819723201 11.31921206546535 -0.031185167353552746 -0.190955060457755 -0.7119338373743739
Ni 4.24387953346293 6.9822684493857174 1.5318221887737367 1.0734450829185578 1.7569522895211225 -1.4036107242719247
Ni 5.838129379249506 7.966951643206549 7.74537702724555 -0.10916981155914746 -0.3767311478177318 0.4712700968375819
Ni 5.446658388541561 3.3259588341814377 4.543033294718451 0.8924371063711857 -1.3427331720602618 1.1851890829627847
Ni 0.9673656496466371 7.376864956985544 6.6406321900739105 -0.8741755890578364 -1.2461540526819312 0.45846626020469433
Ni 5.320783647204052 4.717885976048306 6.921592535561117 -0.18936920402787388 -0.6199485080143129 -0.5470096537627417
Ni 0.6688306317060487 7.875875534705958 11.445263979998767 0.936454135382084 -0.6688192655730869 -0.782945135585929
Ni 4.649179119256459 0.6017192422578481 10.37774095983574 0.4973595948357822 -0.6316747953123056 -0.05745849922778491
Ni 8.323405941759539 7.184591153305426 4.111061420006891 -0.1519912776000479 0.25645828436688733 0.36396947727668927
Ni 7.499959442018066 6.112057311729983 6.779024444847298 0.5207877439517353 0.2858439366178561 0.42499923879550033
Ni 2.5753350608597794 5.438462992505293 2.2511508156349564 -0.19289624334452585 -0.22786196078643337 1.2678281952212553
Ni 2.1786760755435095 5.589205581904067 11.171246098049599 1.2901543695222812 0.10711447169201552 -0.13967106547179817
Ni 1.5293862844751525 3.1369468344669733 3.461148342721141 -0.739788654803113 0.5433712856792062 -0.22611489618833963
Ni 1.4714824497311116 0.6743511667743807 2.8780586348676835 -0.6155989727963657 -0.012086241740572733 0.47506890175838185
Ni 1.313662018301018 3.408548800888378 8.138465291228945 -0.8013436926977747 0.4949198750460379 0.09681720353106552
Ni 3.6909265319428326 2.9058766437859056 7.035955562067196 0.1536612091033031 -0.324405598941138 0.15253635147024053
Ni 4.162934097446193 6.9968875094991905 5.53548939464685 0.29699223992519175 -0.6776746590811877 1.888576573429044
Ni 0.7863373467138439 0.028067868553474137 0.5148307812440812 -1.7172138332809201 -0.18427867687884392 -1.162339689168437
P 0.3500251829928328 5.466919733509269 7.970126223444988 -0.32999312033124456 -0.16795679979036882 -0.6139745498190652
P 8.664768718343307 1.8210042791314731 8.05120431221353 -0.7955733658729008 0.44658956337176636 -0.30225734497887297
P 1.9435808732836548 3.2917962076887974 10.465308130476902 -0.23197495451354241 0.7891543497204345 -1.167350512119467
P 4.230795974380642 6.369876112090395 3.5228118835403555 -0.00750093636273547 -1.303216087802246 0.8159305893730142
P 6.832915988139438 3.972849972751375 10.558740188192797 2.0404284972377504 1.4550068193557133 0.22876570354762538
P 6.433394974273917 7.867834597353303 10.147739259813061 -0.19600419284588824 -0.9249731313256778 -0.4170499020414366
P 2.446180343946781 8.645152465524795 5.8147070827507354 0.4121828037571224 0.5046404447679116 -1.300453180345128
P 7.251353647844764 3.913110805413847 1.517381210436662 -1.4350956822540832 1.5944608837206993 -1.6481174927038904
Ni 5.362887267195247 2.852915486917396 0.40898206252689934 -0.14724630671589478 2.0924131178351573 0.9413567148900238
Ni 1.5202277931175512 1.2015340998048298 7.102724416669978 0.015509408489508773 0.11538365367934321 -0.39198447443237655
Ni 6.842374311059341 0.8103811122690228 9.331148908462904 -0.31223682478908804 0.7975076067811362 -2.223135201643784
Ni 2.8753210818458133 1.6801107022640889 9.217092073582569 -0.30254196609882733 0.5417283507591444 -0.47625623719826365
Ni 6.628285489770493 2.1012922750547296 2.6142259402318793 -2.2348584036179835 -1.2363671484984964 -0.8466830400645224
Ni 4.0005889351668085 7.0083901385257015 9.808055539978186 0.7495675885667478 1.0226236293913162 1.0743025458228468
Ni 8.21992770954553 7.514424043447928 -0.10154659008838804 -0.43654297776904166 0.4955068578977595 1.8242959090731032
Ni 7.630558801913067 4.06437128569296 8.37530224229163 0.608675506203655 -0.7978493063912712 -0.27071530850653375
Ni 3.186446299661628 8.589810827767701 11.98206423753519 -0.18567401456447377 -0.5798801792385175 0.6693771949590859
Ni 0.18023238642195402 4.817039365121225 10.217978891894617 -0.36893350615018394 0.39064492968534653 -0.3177901505071495
Ni 8.853353685226613 2.368433111261271 5.713363106112025 0.2867011424118288 0.8812299248014566 0.21163264341176455
Ni 3.920879168618955 3.146704988949179 11.513350276314695 -1.058615988325525 -0.4698781015860617 0.41426256910428655
Ni 1.4824671878772824 3.6081275917227726 12.575580815112836 -0.662169364356737 0.3925228634343498 0.16285804511122276
Ni 3.2103601382064757 8.656827724844753 7.822465539074487 1.216933465253917 -0.5293346050804819 0.6637773322738052
Ni 5.9895897472368205 7.674588612546931 3.4908298502280974 -0.36572991161122176 1.1430404746191927 -0.07555855126260536
Ni 3.5393843917112533 8.479282010937126 3.8162315933119664 -0.12669393648583988 0.3786898142059994 -1.5834557908594473
Ni 3.333454623238998 4.464555563317513 9.163514899140601 0.5166688366873553 0.26041006992578375 -0.3282496552775766
Ni 7.481288112911051 6.178910664318507 11.529573889576733 -0.3446525221156322 -0.45644743000245264 -2.557291709324099
Ni 7.932879874763092 9.114243487649397 2.25903638572351 0.477684742114674 -1.2711690866690302 -0.1490116261464337
Ni 4.661408612676432 0.6242484041331539 1.408324294002844 -0.4106046606367252 -1.4513214000843262 0.07445426245483307
Ni 6.153306866058863 5.662337225691103 0.07299717387424638 -0.7414624429611102 0.09167936808386791 0.6775605021008266
Ni 7.790496225889114 9.256163760472543 11.264145727597283 0.81143141595108 -0.5640527252879577 1.6449933452526122
Ni 0.13140617937174212 4.937353593848761 5.24834615891277 0.3928385949025557 -0.17323681724238552 1.4741965049102868
Ni 7.288905279571914 6.141195488102829 2.1693413195704943 1.0631480718679238 -0.9258835589550892 0.03286126950439502
P 8.559064463924326 1.636689640559747 3.603516545726758 1.859037683429663 -0.7985938978667795 0.3258680424192775
P 2.385850599289566 3.339505769314556 1.3621802165645012 -0.5265125622506546 0.354465394440996 0.1818333006621449
P 4.857980002082884 1.285823112031484 8.135407009293461 0.20189638996060713 -0.4647081273493481 -0.19820762825511026
P 8.906732789121364 1.7112477557189498 12.622934213185799 -0.9536895254237641 0.036283150701750415 0.19204443686719183
P 6.385521868159631 7.844229676175675 1.125862973543141 0.13523591251858 0.7256370458930793 0.3343920207298886
P 2.089489814465916 3.339751086047349 5.617604173756566 -1.0646472821212696 -0.08770598525841669 0.7224532488484591
P 7.210849129519183 4.02172251740667 5.996105177943702 0.23401563909265505 0.5340106703999126 -1.1849993355494817
P 2.338459040835947 8.673800008432053 9.926487189926661 -0.12843585887761105 -0.48088679399173956 0.11119429818834399
