# total energy = -381177.6115717852 ev
CRYSTAL
PRIMVEC
9.12953558384187 0.00000000000000 0.00000000000000
0.00000000000000 9.12953558384187 0.00000000000000
0.00000000000000 0.00000000000000 13.36199815455558
PRIMCOORD
 96 1
Ni 4.790997688797016 0.994945918523548 10.157363360447317 0.8810864572450566 -0.2804317644633493 0.47527433290096854
Ni 0.4467437817825075 1.1146797778333022 3.5250825890883233 -0.7087518401019665 1.1223703478643507 0.0607202006981922
Ni 4.573148710463095 0.829421960490652 2.144400097432783 0.5752987305154221 -0.29116637727203404 -0.8607631723066724
Ni 0.7725221299036872 8.373947839245222 10.149786758858209 -0.9995788317567107 0.3728752644067514 0.1491167842657303
Ni 4.782899790725514 1.06175585999734 7.470786619765254 0.25429547238761363 -0.08765893407056516 -0.769976491240403
Ni 7.870170935656085 4.423086533911481 11.73685883577061 1.5380130851456157 -0.030542391563231266 -1.2826668028959847
Ni 1.2047974236774948 8.275412761583754 12.883812434880765 0.7571418013695799 -1.2527584453723264 0.18218194225081527
Ni 3.8419276866311884 -0.041803230529426916 12.57529712561348 -0.13211047951572086 0.9864839462459656 -0.7744921197225694
Ni 0.7680851756052091 3.605819637110116 0.554628416845359 0.479702029655019 0.5937620794269323 0.5544753660121676
Ni 7.861552654055748 4.1709470198880885 5.8698988166390915 -0.899655992717128 1.0984063808495856 -0.5764881228378329
Ni 3.607307751411869 2.4451178703495953 0.49136986471746824 0.3988760593458872 -1.2060782677069681 -0.32066927182715743
Ni 3.599721107333607 6.905270318770996 12.951717920625788 2.2862403576343855 -0.9135106392120331 0.7306887493843738
Ni 4.20620528635048 7.416314332692622 9.719824889403814 1.7886429357561842 1.2885651706582906 0.692281353250769
Ni 2.8369575380258936 4.7430767564663325 10.323546470950069 0.8148669239951901 -1.6307142096257787 0.6331503514165676
Ni 0.22495814770063766 5.9903904274031134 5.02401812938034 -1.504980580170679 -1.1925529795270235 -1.3710857550610258
Ni 1.2421646128620027 4.075972461108113 6.328456217479687 0.021465111852311418 -0.41297650330301133 -1.1762257031219099
Ni 0.9549859412304642 8.454369918289037 7.68662344845435 0.13373824492713096 -1.1128600943810705 -0.4809461864747653
Ni 1.70432909321562 1.2453690798553483 12.354997779926244 0.3458802238751463 0.9377563991332752 0.50424937997708
Ni 5.617238919086866 8.232540462436319 3.762097201493838 -0.29214468202490335 0.3048042797704428 0.7540703615331078
Ni 8.182939695556417 2.3526174157154793 12.987434489774976 -0.6649824083254999 -1.2345599200864288 -0.4457768376624839
Ni 7.049991717000369 2.0454633202051955 3.6404233158704487 -0.6348094842865454 0.6066906145631423 -0.5809477012710833
Ni 2.448897498085336 1.805374793165324 10.112614028781843 -0.23626149770403826 0.17623498063876097 -0.04708615485452536
Ni 8.822016316642358 5.52078537554073 2.187506112691413 1.071130061632136 0.45448027897375276 1.0165203447070557
Ni 2.4251333169352565 6.7809990802712345 8.776641611788724 -2.1139746460560174 -0.4329298064964866 -1.53570629138931
P 7.954902155500067 7.046339902762939 3.799591291223097 -0.09741292813353546 0.2505102943135685 -0.26890576610162076
Ni 3.0110760408665826 4.496825792900797 13.045064683209427 -0.394702644694488 2.31514547070451 -0.2921516240034388
P 3.525717091812077 2.974192717068534 11.677825432715427 -0.28417349089396865 -1.0359190609486417 -0.9927638657174064
Ni 0.5109837589867077 3.64914841303723 4.008091625109194 -1.6371733349875612 -0.3066547027156203 -1.1726814374140773
P 8.871041922779863 2.9760368832584367 7.211323392288694 -0.8480004733243653 -1.5800519073842207 2.0439352248394287
P 0.2793199673925882 5.734982539637221 13.012140838998313 0.5983468705841373 -1.402933752809558 0.9277262685907829
P 3.475084687410102 7.43844432697145 4.758407985588626 1.5084140313322603 -0.510081927498457 0.3045718520446626
Ni 7.47285354662364 4.295811678201432 0.6836616211107301 0.21936395061775127 1.3934492103578906 0.8890759032084365
Ni 2.0310934311809064 1.9342381880686543 7.54996982082902 -0.44774347447055146 0.40890310456458606 0.5273605120732466
Ni 7.400136795620805 0.19469008539369448 10.252701274743917 -0.9130882069626338 -1.1375853650418926 -0.3956187287508542
Ni -0.18925618580839784 1.5626934780168762 10.90840095423864 1.6115224671886763 1.1049202707087036 -0.008655618792468964
Ni 7.85364647623171 9.166784098798178 4.638230430849023 -1.0559731513860395 -0.9090901415468343 0.15420782563539248
Ni 2.450641239383709 2.334677878274102 2.6247770883420256 -0.8861846977035706 -0.05305008574744412 -0.650334319395022
Ni 2.480987815696757 4.639511304692803 8.046287893838207 0.9200075597902864 -0.37188204725554663 -0.34290879995164814
Ni 9.385162590196524 1.0546074336275697 6.251664954741438 -0.4806929328133786 0.5629265821033145 -0.7516645803050925
Ni 2.0158562362752273 6.539404179858423 6.144193887640975 3.056837256067606 0.27272385429613033 0.8772567990863215
Ni 6.7696693265996055 4.530048172925822 3.4641913255398467 -0.22963576485740453 -0.7989245417333208 0.6698999002317753
Ni 8.10148597899053 7.308741014793512 0.5864603685994817 0.18410821273925068 -0.22602516468801076 1.4120663112384455
Ni 2.590094895575588 4.329992659463782 4.497861995190668 0.5579538114790714 0.12504328825629432 -0.19202515359348218
Ni 6.62859061307207 6.181179462237672 10.06829195938215 0.7190254541138327 -0.03141888063091363 0.2983068449715572
Ni 9.162858398492938 1.2386771302652566 8.63678169126293 -0.4552773209537514 -0.3936819167394575 0.19208377474555952
Ni 1.8771877201443956 6.556038193709918 1.0033268321984512 -0.7834495860261733 -1.409777772314585 0.8607058367061757
Ni 0.5125814277155836 0.9671282235699208 1.1765360332940198 0.347877199700517 0.5468649006547615 -0.8283647013713088
Ni 1.1733826916999985 3.3648638041888543 11.483996262528207 0.08403290728220367 1.5447730295772686 1.5905291527664607
Ni 3.0251446552162835 0.053992986453970104 6.043350863381449 -0.7434311366517067 -0.4961203231120423 1.0062364462825444
Ni 5.86157268017775 3.5173818258151415 7.470786619765254 -0.5090596568815298 1.3399630655142922 -1.4635685928827953
Ni 6.0279310777639 8.305485451828995 8.641284378217684 1.953414395840036 0.41674394076524357 -0.08273450018575429
Ni 4.39852808316476 5.189912746558335 6.147320753581775 0.1683694618477552 -0.10972105607692716 -0.09811895306162458
Ni 4.012713908980222 7.44717216299891 2.19457419914796 0.4098510703001522 0.6774165203237945 -1.9928237508755935
Ni 6.480883856703597 6.473233305876181 2.304370558964106 0.038473730595166 1.2420888814736222 -0.3275284608408359
Ni 4.49267185420572 3.3857886997693316 2.9640653232345797 0.545588605045499 -1.7498730140768377 0.3990079569380612
Ni 2.1057456437295805 1.9923568116573618 4.867748781578653 -0.5951183363445106 -0.24070359263579189 1.0013390089809269
P 8.2419438840977 7.0950003274767 8.88372467362646 -0.2708623756073593 1.037365563587181 -0.3041221661017537
Ni 4.73806464142546 5.291670550284338 8.988496137051902 -0.11885464294707919 -0.4352725956970503 -0.9026502994587616
P 2.860374796823417 8.80905237609948 10.499804936933893 -0.5890302211689017 0.4500664661767733 2.830719017445157
Ni 4.134739281723964 3.0253272459281555 8.887586467182542 -0.5875268971504978 -0.5947897493604982 0.26241707305348355
P 8.178201466583351 2.5639387760999917 1.8661364173083712 0.4215650163029708 -0.2489720032921712 0.5689779305037168
P 4.687770029840447 6.037288851747315 11.213295489689514 -0.07317899528683526 -1.4549669672567136 1.142161157338033
P 6.292258521804716 8.859538707931957 6.4911253697324724 0.21561014000227383 -0.6483746245654898 -0.47777087407057717
Ni 6.698550244325646 5.729504818281074 7.6085084030550325 0.49704720580168593 0.6506271680450925 0.28927173135248246
Ni 5.960536846012118 0.8950614955013475 12.917564327970219 0.19457105994378748 0.06289715374485297 -0.02325331410098576
Ni 8.324246647473792 7.729156128877703 6.40957670599641 -1.3655504270650933 -0.1858370225048993 0.916217753730551
Ni 2.9374828544467633 9.19216420774832 8.495051128894014 0.9261648376409339 -0.21175734191508694 -0.5501510276052008
Ni 9.45829017030107 5.9202664645088525 7.504004435022481 -0.8873020991374655 -0.7156364830369417 0.5634711417528747
Ni 5.18773078755147 4.920417985371554 1.3041541595423867 -1.2992308779022528 -0.2365198935717475 -1.198542364341239
Ni 5.823703366535596 7.992260215148981 11.410946283476205 0.18374260186971583 0.6443063680333871 1.0498328428162564
Ni 0.4587390785989075 5.715162317863566 9.868196275963498 -0.06878112332945574 -0.8189423796161444 0.473507727918849
Ni 0.7348527530910317 3.3592400102632114 9.309437657215604 -0.18844746354455286 0.754400748289333 -1.7950832920648894
Ni 4.311742717812223 1.1142506896604043 4.51779816206636 2.750263028880934 2.000370967095232 0.5309034922294986
Ni 6.001364129186592 2.629004976275411 1.2000811055898533 0.223222405131893 -0.6491788656343401 0.6676051906603276
Ni 6.824939535083117 1.751127092668293 8.383090156188631 0.5553441417703661 -0.7540461931633916 1.782694431482233
Ni 2.736514387425366 -0.06262039758989978 3.4865459063942783 -1.3720707446821143 -0.06409297382516704 -1.2126800892942018
Ni 5.665588939590446 3.6747202422348373 12.215271150620117 -1.076300807199798 -0.6402440250385555 0.4703534985605835
Ni 4.190913314231239 5.515042897652371 3.4252949391434147 1.3672283289881484 1.6870146839897204 0.8698499650992889
Ni 4.493986507331194 7.39685929234271 7.296720155277448 -0.8201970779588519 -0.18247427668025348 -1.729009026143635
Ni 2.0232968077839923 6.568162216978188 3.449626977407415 -0.3815974747710977 -0.9577852927596925 0.008515750780495011
Ni 2.1631156453996145 6.648228244133853 11.236691750555172 -0.7651962962429403 1.0303881038280835 0.5570366989814406
Ni 8.447760134519287 6.893328886214598 11.6417345526069 -0.4743057983401123 0.8413983946268155 -1.5878816878412845
Ni 6.445935994451387 5.949837030296447 12.710413339444852 -1.6107539644537678 1.094246335934625 0.10894278315000593
Ni 7.474880303525413 4.038513976567669 9.33366287991316 0.0015953695115778976 -0.7000859368968524 -0.23004739847352637
Ni 0.5886176778602439 8.152711803206087 2.484262580114173 -1.0042610677237285 -1.0130583543003842 0.0888400988628599
Ni 7.413484176658613 0.1360720762080186 2.2262290379115672 0.11010466466859102 -0.06839288675210158 -0.6017618098029572
Ni 1.0561685842140713 8.384547230069366 5.020222981434091 -0.4328310761350933 -0.23694772513778548 -0.6982907926696426
Ni 6.366673366427957 6.560913365716889 5.456158306027363 0.12227986657854424 0.3342830059558501 -0.9614498860954733
P 6.03760838549309 8.219613040035814 0.9143485523963369 -0.835529337440548 0.06766423611619314 -0.6911040451132163
Ni 3.5906463489535922 2.919689389574883 6.393609148243245 1.8684818595616979 0.7129028861558625 -0.8277432657372261
P 5.447183059585319 3.1339230718137463 5.012873705281262 -0.25770424095884653 1.06909889013472 -0.09648758810578865
Ni 6.953382971349144 1.8860068515277904 5.967401343824928 -0.08337599042449512 -0.7546390895523842 0.7030892424995504
P 2.703027250868128 0.18575592186182063 1.0172968475637418 -0.6444776035039288 0.37026610891867845 0.9610187120953256
P 6.904759064777756 2.319961066897257 10.990805055459822 -0.09667913529130447 -0.114123556019997 -0.7412528980534653
P 2.4195095230096135 4.393296859269641 1.766535922843131 1.0082066826350378 0.3510741093712598 1.4459930458928776
Ni 8.221347651798594 -0.0496957140500737 12.567119800582313 -0.8625783711385404 1.2261012477961142 -0.48549626773929294
