# total energy = -340856.2515317942 ev
CRYSTAL
PRIMVEC
9.36073326019990 0.00000000000000 0.00000000000000
0.00000000000000 9.36073326019990 0.00000000000000
0.00000000000000 0.00000000000000 13.70037932371691
PRIMCOORD
 96 1
Ni 4.449690011777751 8.595390215616453 9.21846494971726 0.17135682661085327 0.7954095866015269 0.08654050419540579
Ni 3.3983954362634585 1.6500913122056862 6.254031228560583 2.2730572832852083 -0.8660555310538632 -0.09792097811820556
Ni 5.790512062567018 8.738852811350828 12.827500282921395 0.1868376958552718 -0.33025640129496026 0.6268177243303205
Ni 2.295345367351322 8.65191968290341 2.7655312474700366 0.836040986969644 0.18075729398914675 0.3181958705860004
Ni 6.6630447177668515 5.508108105193248 3.0961626379302656 -1.1006308993047302 -0.6077164847244954 -3.0092188828586948
Ni 8.92773368416358 0.4679514731239476 7.569527815904765 0.4204193327343017 0.4707059968039958 0.6170256779405632
Ni 6.6430595525643925 6.314001701340947 13.700282869695425 0.2333306972104885 1.7661203291736358 -1.7332143224742345
Ni 5.025421902071552 1.9757792995074053 4.476269813460366 1.7161586525435284 -2.2698953406174582 0.3269533050636563
Ni 1.634861399426107 0.99413793910857 10.626808776691492 -0.8153127532833572 -0.24039737424928279 0.354585464958628
Ni 5.111072610082093 2.7574754005504873 11.71656379635911 1.5094923519981034 -0.337451890602135 -1.1178367216600555
Ni 3.0932729796173852 5.661998557618744 7.172819946452667 0.7277921445628692 -0.20701211392061766 -0.5834948931729692
Ni 3.2647803317670157 3.886033467203468 2.1305047293268395 -1.430406247198214 4.864338462180875 -1.40713622092668
Ni 1.56122987273639 2.106735955798931 2.2565619779054997 2.1005681428421243 -2.91721786976935 -2.230617883174075
Ni 8.931431173744365 8.812053744317215 5.37467272677263 0.42737056724115424 -0.5807016466985483 1.3644193987844437
Ni 1.7249022912680072 7.67303037804065 5.786478522667373 -1.4948046680789417 -0.1544986174029339 -1.1055586756236508
Ni 0.8576715553050219 8.066564958966456 8.609290904293573 -0.6176414571476911 1.057193911167018 0.513202989625942
Ni 7.882121073650644 0.36355496097549383 11.669188189986196 0.49208806202419764 0.4395617099907075 1.3863930748420576
Ni 7.018499836377152 9.400141802324011 2.003379421099654 1.4965183083359388 -0.18049015637068913 -0.27830314815612067
Ni 1.0512290503824808 5.814007502687942 8.29430504316327 -0.08270930337477368 1.4814781261733647 -1.7319200291428432
Ni 7.213446464249012 1.8413404504967625 9.928349250588358 -0.3534989167626686 -1.1488128583265957 1.7178306409293125
Ni 7.53097189227366 2.6418797073021634 7.930355059250284 1.0013390089809269 1.5486281416573007 -0.2990745763755172
Ni 6.366580939252991 4.688164048638573 5.126284737468751 0.5013977694608978 -1.470450150493977 1.2215596511720188
Ni 4.594874982405454 3.460794083214088 6.2090117187129445 -0.11469716913527987 2.1545721078624056 0.44867369959430475
Ni 6.583974605136794 2.528193603609485 2.178524354138126 -0.4071020468001053 1.0851816546291955 1.840610587072727
P 9.060113171888725 0.31932362485621457 9.83800975136006 0.3028942072319235 -0.007684256018135153 0.1294820407539383
P 8.142826851661743 3.615152572295379 3.724310889379894 -1.0989609678014751 0.7199456519352568 -0.8521710597622872
P 4.788370696644348 3.8599919076750178 3.7635351693554755 1.160900385618749 1.5535888280966856 -0.447314614463249
P 2.835721768666346 7.663510512461775 12.622337350926838 -0.05847177098364769 0.32016893515197115 0.7672092129079109
P 4.740275249894822 7.476557950670898 3.6064470904975865 -0.602673265873633 -1.4932146978840026 2.148624374919403
P 5.710618205422759 4.691243729833706 1.056602111191011 -0.2355433885910911 -0.8593634637456684 1.7977433553955557
P 8.134196255728877 7.43354538200331 12.618871071454015 -0.8149651401359512 2.5292898247945343 -1.626845984919624
P 7.7455947811551535 7.712027192201515 8.14999904537515 -0.3685830647893007 1.3170043998355898 -0.5333504111080943
Ni 5.689715688374942 8.410515736577308 7.237033639554471 1.9321590860056854 -0.5923279180835669 0.1655502472314052
Ni 4.079950414432578 3.602384532325283 13.748192973929255 0.5991896782004067 -0.906885677696348 -0.8255925379428103
Ni 0.6147230880147965 8.73802906683663 12.231780419205199 0.9278393971298795 -1.2904690725492227 0.20950942642117468
Ni 0.07581257750572308 6.376943270812299 0.20353697265232634 0.9978456511156879 1.0641433459016578 1.694100387191908
Ni 0.14935330508421574 8.634714655436374 3.1182333744709485 -0.527525319785885 0.04383319513486645 0.22602619312927524
Ni 4.892986249947714 0.11834026019790743 3.071241558155789 2.467193312574106 0.3282697098822347 -2.891966037181097
Ni 6.4676768569047765 2.116808104631646 13.663264914515263 0.6842204306195054 -0.254320154977962 -0.8727319146327744
Ni 3.3886883560222643 5.3681838665766834 4.456938963502708 -0.5823862334898229 0.26811155233509953 0.32215254124090326
Ni 2.1759398557248244 7.311453339972548 0.9324338585551404 0.50984795711078 -1.6905304104524626 -0.13044671866005275
Ni 2.072868823385583 6.936499814281816 10.789350418662707 -1.0625873142684474 -0.6066409922721294 -1.3122566007379592
Ni 0.9110754738045777 3.766319051384146 3.468579404946587 -0.909413329214208 3.0395882391791718 0.8349860633425683
Ni 8.720983171832565 6.879586556937106 10.580172668234738 0.155712435205377 3.004168207808665 -0.034778284021449786
Ni 5.1990728621047255 7.201960844715794 1.5938202011527285 0.247685937490896 1.6521613237559611 0.7594982174168985
Ni 3.7710555823407943 0.9753603084780624 12.433532300052322 -1.6244882833207248 0.05067850019147401 1.6045794602119399
Ni 8.845471561540998 5.151286319548025 6.492801064587868 -0.36638631424829804 -1.4772324635231333 1.0398644187496349
Ni 4.339242721743176 5.946621008740982 13.636042030467584 -1.5267753074482675 0.5264020048147192 -1.661442491947571
Ni 7.139243932839224 6.638060921080498 6.092106458901705 1.3118647646161794 1.4237776861381026 1.7414878753369365
Ni 1.8953237983761928 3.87567113564416 9.079830620124069 1.6494835198134816 -1.7007621154828 -0.3692741773190544
Ni 7.935973371266452 5.747892644690297 8.72363413145099 -0.046877124167512815 -1.3819944315537296 -0.5299416425368615
Ni 7.092805335851215 7.675080378593034 3.939077933551373 -0.8396654710961088 1.6367123361907427 -0.3284627997296472
Ni 3.504190441939429 -0.16382874277465284 4.570391984940802 -2.2369052588446836 0.013531973048163792 2.539734674276942
Ni 8.51390503384249 2.8730336508663474 5.69904272285163 -0.471064408584679 -0.0210053986070735 0.7142100350030602
Ni 2.914904210093795 2.8925975830785915 3.954408942248604 -0.1003046478590337 -2.5320776719523166 3.691484503744675
Ni 2.312157244027489 0.26679025453643823 0.6407964740358412 -0.6191404102907209 0.6426726890847061 -0.6143951822962516
P 7.899503955046882 2.7525048512659414 11.880502995784529 -0.0709714461125552 -0.6586068438164593 1.0508509996681257
P 4.228158901856719 4.409569909642978 8.702069810571876 -3.4420962388506915 3.9913769480357977 -0.7212823684688093
P 1.6372015827050836 0.7513467321346916 5.901917891672661 -2.229790759287089 -1.6683284204341269 -0.635484655976699
P 8.403981944862407 7.28069397095368 2.034616187507433 -1.3628805935424142 -1.6180828940150132 0.3756245450171144
P 0.359852791028153 5.162126048496244 10.072875225604701 -0.12519266934996504 -1.8970943810920684 1.9381325299803007
P 2.662248662562375 3.068691694455016 12.224601672978611 -1.6905255253564564 -1.7897780778018921 0.13442344391961367
P 9.26133149094824 0.748101365963407 1.5649947595956075 0.6092115812127831 0.8563419033105252 -0.905256369623041
P 5.07307739436463 0.5499468148527267 0.857211943309031 1.3696616210199895 -1.7292599658121768 -1.2619367694374848
Ni 5.526333452569916 6.280480916052887 8.98105054784516 -0.5816462700000047 0.6235295404973519 0.1682283082842006
Ni 7.856463304179946 4.73984465617149 0.9645158991632853 0.28309979821381565 -0.8617126807041353 0.6769092416700729
Ni 8.440994283602699 5.28496694917628 12.248522090382997 -0.7579460424384301 -0.8727936211086452 -1.3066611089280529
Ni 4.49875897477133 7.101005338060748 11.240969284646024 0.14188607084524596 -0.5058280373181095 0.3944385923998239
Ni 0.6850465316213522 1.7211205550891813 12.775192506269711 0.291718136010446 -0.9905095224655909 -0.1160048322031099
Ni 6.797633338507349 1.0854612513873494 6.560207703755507 0.08218376988860684 -0.35750443837763596 -2.656749950022437
Ni 4.034344922691884 1.9450573734210017 1.8192051248975796 -0.4210520812222942 -0.824050133156355 0.5180348637969465
Ni 5.3470566919340845 2.899955119307694 8.94530658844207 2.356083346569452 -2.1027636078315464 2.092465568339648
Ni 3.6069338486196134 1.6310983847135128 9.780194119342978 0.7724509209228245 0.711450212869736 0.8537656579429167
Ni 3.6713263317239315 4.455240926515483 11.02618819937487 0.26155549638413667 1.510391209663289 -1.825884593716462
Ni 0.26596276572899213 1.583452253153551 4.137623763306299 0.13033050479716263 -1.217089016995175 0.41582477138508395
Ni 0.37148724621791257 3.8207704359193713 13.312151303924118 0.5315143863406201 0.7793389062919094 0.3007324236939143
Ni 0.0729304077793356 2.9085857152405588 10.237362027917403 -0.572381299758311 0.22650081877284864 -0.09692621830510405
Ni 8.611303461913492 5.908953418682576 4.250529181857111 -0.38333502628749466 -0.6452425066944113 0.5201174573575881
Ni 2.1703702195208603 5.25583634771958 12.689920907950366 -0.2774012051671417 0.6583456197352726 0.8996169119490764
Ni 3.508093867648762 8.326381467331545 6.708486396678017 1.112903031803864 -0.04876302833631602 1.554785162397632
Ni 4.966037411184245 6.645034667251848 5.700083636374119 -0.9469717470839563 0.22260225504939082 -0.7241483771626948
Ni 1.936848010478352 3.4064269452769063 6.154018347730308 -1.5632500053355334 1.3464561294378037 0.42449735945841727
Ni 6.92311396592607 4.44063818285467 10.707051789180973 1.6002697770929923 -1.6416529680254695 -3.346721167082791
Ni 6.558363639331675 8.343502248200537 10.43679806339165 0.4160178612324964 -0.9686209499226157 -1.2777629378364639
Ni 8.952024786599358 2.913125670801773 1.5825854492670182 -0.8473193880969407 -1.009466780294384 0.9179072256178321
Ni 1.2572494255304572 6.1621799709340666 3.4000644549780246 1.73983928398992 1.6911279348271457 -1.9384860566649778
Ni 2.575455945111694 0.6270427488686404 8.074743431489823 -1.933899208625244 -0.677237314433453 0.6206586467074602
Ni 6.186349383839336 4.483107829001535 7.641797355926118 1.0792845724184703 1.5164063055091175 -1.6045869164111075
P 5.036710946209335 0.40592819157126575 10.923490660286953 1.5022133018381871 0.29706911590971413 0.21677407840338797
P 1.2081149374050664 5.660472758120851 5.4844675737090265 1.238161778505074 -1.2937739685527396 0.12285270836287873
P 2.907200326739405 7.332870697341741 8.692589260072086 -0.7169138070874685 -0.7131245152483654 -0.5078229562609512
P 5.658722301028176 5.013112538024136 12.038660070364253 -2.7365729329883517 1.5968018731490499 1.692506303231911
P 0.28393443723822015 2.7264913739368386 7.753852819910007 0.8465208034550454 0.26691547514446934 -0.05038256621761
P 1.1272288425505221 4.949749735562568 1.4691605100282732 0.9615558155457182 -0.8410561807960483 0.20942483712716833
P 5.274351877822842 1.1232505309762622 7.98985562322823 -1.7892270903944283 -1.6831857971619335 -0.785438334321428
P 7.5210495151708 0.6668913897430525 4.4619394671332255 -1.4081728897213102 0.4683408390059289 -0.9208205426098851
