# total energy = -340860.6407941354 ev
CRYSTAL
PRIMVEC
9.29749004229157 0.00000000000000 0.00000000000000

0.00000000000000 9.29749004229157 0.00000000000000

0.00000000000000 0.00000000000000 13.60781648159138

PRIMCOORD
 96 1
Ni 7.888436871355384 2.8277665282546964 5.748445664219607 -0.5982026316967891 -0.07572927251251474 1.2111202010062496
Ni 7.836333736894492 5.522132668706949 2.8677113349257053 0.3779223399123556 1.1899199127795506 -0.722802918878394
Ni 6.951194085405213 0.9306508654767999 6.516334668191697 -1.659374810785265 -1.7091853065494886 0.9636312100175082
Ni 0.9928417766846714 3.18190792575923 5.404861566711565 1.3158211781607663 -0.5541154115695877 0.03000323123030962
Ni 8.844823189399591 2.936110180266257 3.6253126661138957 -0.5385298984265047 -0.36686222544345204 -1.138797640182439
Ni 0.9391952588689412 9.009128434259138 0.7108107825643701 0.8668350895323652 -0.2467192027022525 -0.924081472749344
Ni 2.0907544888694405 5.157382835010432 4.626317639097044 3.4480005201502686 0.26632669252053487 -0.38503735369058206
Ni 4.780639239098613 7.066362095142378 0.6504263736808653 0.5645849436423438 0.038531066195662676 0.17710966993423047
Ni 0.14582648330690098 5.508205028553056 4.803463647519034 -3.5312800942062155 1.6668886026638068 -1.9087754169744224
Ni 1.0513136918567902 1.9981421900891136 9.197386802835958 -0.40461579004314185 0.7068998744948922 0.732706551145351
Ni 1.0443870617402014 0.9488553510718085 3.5520754069308302 -1.4395750581816757 -0.2745822476611078 1.0348127152583404
Ni 3.5883291100363546 5.357306764402398 2.981798976314485 1.6625526942926143 0.5900959434292546 -0.8148532971484354
Ni 9.032558109284379 0.7265049458352457 5.800100659658191 1.9223089326844829 -0.8550003016809663 -1.068539160976508
Ni 0.8594534756193447 4.07257958385169 11.2074111852593 0.5418491926077249 1.362596486643092 -1.9850330511865812
Ni 6.973405789228745 8.94658421842787 0.12954564841138538 -0.5312009688652594 -1.4173607268681654 0.3750807566985024
Ni 6.228472288287336 1.862482512194951 2.672330159191411 0.5938034741878289 -0.5507040718951934 -0.9351837533100926
Ni 2.0524023422507427 8.129688144194649 11.91889603585515 0.3485531427216191 3.2775047559881294 -0.14501304651000185
Ni 5.472344609278313 7.812820384458446 9.460058563092149 0.7803624624604174 0.26445544363975104 0.0315993720728359
Ni 2.1430714656023895 1.7601543362712206 1.8476148957930216 0.6068677635709548 0.34731052856376954 -1.8202003988474909
Ni 4.293283403593423 8.82486147817769 12.638626830411273 0.08732983286592057 1.5675720297496551 0.8067386384611009
Ni 8.808135293506892 1.3323117348281615 1.2578658019334763 -0.05195428158010407 -0.31092376240461933 0.8743463103077458
Ni 3.7872024230482206 7.001660861610374 5.1182803809415205 1.605863469130686 -0.6897902113977991 -0.7905342607870965
Ni 3.5323861121685476 2.4921085410478523 5.359302005775579 1.2288248173748642 0.6495689019839072 -0.659038274926923
Ni 3.484187923545195 0.6441738115957565 3.681540167178438 0.6705005099302516 0.27927733914393194 -0.688268375436634
P 0.1638301431159789 3.118480448369471 7.340464189714456 -0.6399987417969687 -0.6899642750818182 1.4182485287897577
P 6.473489044612802 4.080054765883553 13.032423882645036 -0.879725058121156 -3.799028606774941 -3.6278612704670743
P 1.3457373105172281 9.0975940524596 9.70045446684319 -0.7756869113616188 0.07845309920158101 -0.23916453028344617
P 5.343946271143957 4.109137314883138 7.224036370070179 -0.3340099548001215 -0.08755557572348147 0.5902496953982996
P 9.297415709460584 6.299281972808065 8.548294618982919 -0.7298600828354913 -0.2898723410509588 0.3867286253500759
P 2.2534512679435243 0.9225025451624661 12.491036613234415 0.05359567383826899 -0.2234646030496861 0.7780019326480407
P 1.0961740815380552 7.005147420393893 2.979213344320628 -0.03659579684616278 0.424196797498863 1.374083661347085
P 3.385281223974357 5.727839636934511 12.97056210258633 0.32234331709547065 1.26643054354278 0.9583092835839626
Ni 3.6027867071253423 0.02811468028128011 10.184770023089154 -0.10355529358584746 1.00115286111205 0.23010987628034565
Ni 1.403874516046129 6.246258386828323 12.701944597417977 -2.0939876614111292 -2.541675085832764 1.4906425662814522
Ni 5.901433074393349 8.853925432197096 3.448029984587591 2.0273894046656054 2.1413874908513315 -0.015393965957567039
Ni 8.333256689701653 2.340447882709865 10.690341501177459 1.2520488208998115 -0.49064181649597444 -0.23657234407623773
Ni 1.9398934146791398 8.386819530106578 4.700943013550454 -1.051857586555769 -0.3049611170632812 0.4974374992615692
Ni 7.132188324975199 5.614605505135936 0.3437486630826232 1.3714737345280639 2.6384408673006043 2.0913219416535083
Ni 6.776828956268956 2.086477643428325 0.3064740955652847 -0.9643575466605715 0.19896070437105087 -1.0306904655598508
Ni 2.4098071587766494 6.5415559695571615 1.3158189171586079 -0.09173901767720975 -0.1703486970613131 -0.5891883440133208
Ni 4.178775515652603 6.119803224122648 8.3842524930929 1.715074418340414 -1.6928539163793168 -2.073178952195894
Ni 5.850389853802646 4.2732845024111645 3.0649427111877867 0.765275743330624 0.5233349358536213 -1.9651172860992605
Ni 6.467743195737564 6.9197034864724785 4.474290659649535 -0.19113169524493534 -2.0942362870868254 -1.6226715418269602
Ni 3.0553597881526615 8.719279180722676 1.6001436020839594 1.2941663188951518 0.4895537256381181 0.587917190610381
Ni 0.6006522604873626 7.0314965073071996 10.591888519122982 -0.9679807452354555 0.272275453904802 -1.921363538052078
Ni 3.9369663934079746 7.07265649593289 11.097297291134721 0.07803452360692367 -2.372029328375747 0.791308677059276
Ni 8.541966747228084 7.975173156399222 4.119263211339482 0.9803114988866665 0.12341809394804551 -0.6279148140492412
Ni 4.136806645389136 2.156934023325657 12.964452721848595 0.6366910175799744 0.20177914765645247 0.48520650441301594
Ni 5.032582625540667 1.6243087085752703 7.743337451773473 -2.524784223614697 -0.15535068099058408 -0.09624796129115683
Ni 4.216662787766833 4.303770972414245 11.726345016104062 -0.479250029719265 -0.4752082555497235 0.2596168846005271
Ni 4.700810989191185 0.043416489470383846 5.638154188034321 -0.22827873660887782 0.5698783308307992 -0.7229612988331291
Ni 1.4995363915757736 4.599849544310593 8.354137922693395 -2.0899908815469104 1.9243843271562733 1.4794402698077294
Ni 8.346645075430363 3.513158902663707 1.4292557342411312 -0.8252809202396625 1.4400298863309071 -1.165725060700902
Ni 3.0777109543275336 4.802720778060894 6.576126826956509 1.4911174490353416 1.7492130118953362 0.05048566745437757
Ni 6.265030019318784 3.1558842509990517 10.849716287042604 0.7948984512930632 0.48068804771737217 2.7302601033964464
Ni 6.799672889418566 2.5665070567430814 8.587634159049108 1.875027116879384 1.1186373631844801 -0.29197473210594227
P 7.2775080950722275 4.456872741716087 4.582785860749552 0.40117822511650264 1.0191426128212513 1.021553536255589
P 7.9408561204793155 7.865778888007561 6.182044341777003 0.21911146828731295 0.9934940590152115 -0.9376121602459272
P 8.119507392546778 0.5798017092129161 3.1265590375081342 0.41546533116313616 1.0310936145355405 0.3397381155331504
P 2.2355443020313754 6.84198576681534 6.518090034320573 0.05252866602633534 -0.32225152871261276 0.18665514753082046
P 1.9945161689542548 1.1488815528547576 5.8749566118658185 -0.4786458204763627 -0.8698147409859793 -1.3404891132210912
P 4.4063501805703895 1.0968899882749374 1.1363913046686829 0.5308050189784214 0.052851082362760586 1.3687445085223588
P 5.949603370546434 7.676221660065256 11.84039267828546 0.7576526795677275 0.3911758624881521 -0.5955901337746066
P 8.969511828988285 7.891114548501126 12.89884963177792 -0.018220636773084747 -0.3890364475476461 -1.0579631852328746
Ni 5.900159318251104 7.132783364340919 6.520171742351585 -1.1095282017943602 0.0884397781006477 2.3602994415333285
Ni 4.81597899892835 4.558168896239897 0.5400558688298199 -0.013780855834176266 0.004034060860057568 1.1997944915807852
Ni 7.896711637534934 8.868689846459032 10.431629541950333 0.9749337795145208 -0.9076536662106238 -0.3882720585777958
Ni 6.525545691623247 0.8106407229010839 11.63446535954278 -1.260639647892616 0.11051295585060322 0.6068317681266968
Ni 8.952525314594984 7.059658604787935 1.3559236406591542 -0.15551780269606763 0.1686142308687096 -0.5098782961280832
Ni 6.096280574196514 5.552860873452355 11.058446799047234 0.4358400381647462 1.3059378576087832 0.07582337488821779
Ni 2.591675362415037 4.052859607372112 0.8589253781822679 -1.714298459406338 0.16040675535725277 -0.9669713301343348
Ni 8.73288140872344 0.4823658725742179 8.246214517233875 -0.4542239399885726 1.4380359958293298 0.7102924451162089
Ni 2.666566645085003 2.9749829863299597 7.60106818817477 0.9349968341102672 -3.3404517891343115 0.31799043944341365
Ni 0.6746918930651415 8.09272132359927 7.3383824816834435 0.23891153373237564 -0.8142133495715912 -0.1989465633036638
Ni 8.712640772798858 0.7527731445847747 12.520293025298672 -0.21006889846907048 -1.4676440485037499 -0.46835857961774174
Ni 8.082019912506391 4.913435290045245 9.820829071030412 1.857005997711615 -1.4704943734683515 -0.1462464046964707
Ni 8.370074750455604 5.84733097956324 11.82892143501318 0.23767097645705515 0.2603319083896807 2.084571510303552
Ni 4.786877854948587 4.080482450427664 9.503141272668323 1.264656225251177 -1.8728617337969486 -2.667203027034961
Ni 7.545378082037393 7.715698802984768 8.231204649233577 0.6027329154669749 -0.4203283156823922 0.7659629992056357
Ni 0.8191060876274656 4.8967741878050735 2.343647149049621 0.3933193911937161 -0.36478117454470727 -0.03744143267590971
Ni 2.8749977779087534 2.3495873154677267 11.072856978936764 -0.4495694719356967 0.6563751262724631 -1.8992633637189291
Ni 2.6942731655513597 7.350279550001815 9.139485753555325 -3.1298308748165127 1.716541489804244 -0.1648449936342645
Ni 6.478993158745715 5.525228732906713 8.522494083984885 -0.5288054720498893 0.28065185089395533 -1.3712647038410513
Ni 4.143203318570631 3.0694919730885206 2.381585557359341 -0.5512985109460828 -1.800431186640364 -0.2018999895050329
Ni 8.357885740948424 5.0363852989872235 6.545740769846392 -1.2330753651211024 0.3077713328185667 3.0373230972940792
Ni 0.6656472947061916 2.516774782254981 12.742768016902433 1.6653497974217772 -2.0012705960913664 0.8835935399376266
Ni 2.4387037579744466 0.5790541910097299 7.846838970946484 1.3208811091821768 -1.1716409119647047 0.5563479004445321
Ni 5.051447232932022 4.653719201888467 5.110184126571688 -0.27903796943961623 0.2927275511115668 1.1010813565785877
P 3.0598039884153856 4.9288040411629925 9.864850827105615 -2.799370327930547 1.3205764334575643 1.2296015476398887
P 4.773619634081129 8.753810058914638 7.605041005689961 -0.18181247472653853 -0.5665942607628887 1.5935255163906232
P 5.28198779718832 1.4811552536690666 10.059211138428093 -1.0146933188006462 -0.07611493798670763 -1.2427239439544595
P 6.766053165255363 7.302694995724362 1.770920829794724 -0.04118213066526456 0.05157195854002086 0.939733063243672
P 4.527003709460291 7.490448510589328 2.931109990096187 -2.7424121653779476 -1.5723355125765694 -0.4294282211011314
P 2.2290360589688087 3.4387789819486563 3.3195451797954036 -0.6365434362585167 -0.627196704936294 -0.2618187773478523
P 5.841454965826751 1.9205918252535843 4.726089934995204 -0.9870647584501 -0.5819884838307718 1.5130481876701618
P 0.16697920300925237 4.356236708988624 13.355691104809761 0.1699568609395331 2.575817536042428 0.7693717677768686
