# total energy = -340859.2914861012 ev
CRYSTAL
PRIMVEC
9.36670263857420 0.00000000000000 0.00000000000000

0.00000000000000 9.36670263857420 0.00000000000000

0.00000000000000 0.00000000000000 13.70911611236280

PRIMCOORD
 96 1
Ni 6.163908621090136 6.1360707804755465 2.156965249162696 -0.39039553267870186 0.27682116429395554 0.6091300772425703
Ni 0.36481714926284736 2.0845316000184577 8.926581071189235 0.19643151019129396 0.979240891530307 0.5245310130442514
Ni 4.187731038645555 3.9752286530388345 9.693085521804838 1.8008268794168856 0.4197901837907351 1.0506026311027454
Ni 4.820020942026171 5.281302953044557 4.3883976586396924 -2.071577154926413 -1.175969878357362 -0.4078975461182072
Ni 4.421739373798403 6.664090548687388 13.556176946023418 -0.7212898246679772 0.03159397275619721 1.1745110344236482
Ni 8.535407893689062 8.182798368138528 12.693366867599263 0.96423079127472 -1.010206486673886 -1.0231784734535216
Ni 9.020087928211906 2.407233243643561 1.6233919628820834 1.4939667455586787 1.8210090107917154 -0.04297958888531953
Ni 2.006488232588864 0.9942942318034362 7.592369196080474 -0.9478387230699418 -2.447678125359314 -0.012066958466863089
Ni 5.817659086716352 9.120433414922568 4.192933305360676 -0.6481144289255677 0.39021041325108924 -0.8894214594733133
Ni 5.732244124211496 3.028498537870957 3.637070076512589 0.90480282702539 -0.3975907648755604 -0.38549578138423934
Ni 4.018371685969789 1.7723393968945549 7.6390209958668205 2.5881583169959685 0.3622977460012212 0.7000733384913621
Ni 3.6083255390704454 1.3414898031563829 13.567583716649407 -1.2883851934370005 0.8822192852979194 2.0502143729799207
Ni 7.79643124582656 0.24591247769560853 5.457119710605822 0.027416701450056008 0.2647344083327505 -0.4649022456380251
Ni 6.9128139738824705 2.7877742768363247 6.008431658580884 -0.44766042783844195 1.4197508243668968 -2.5496622178032995
Ni 5.798110778047898 8.596113494302504 9.977014636008667 -1.6591588381197169 -0.4327547143712031 -0.7540914445790303
Ni 5.921020651717021 1.4781874632941037 0.4914783873889493 0.413679700017623 -0.017556006605892346 -0.3759181649981332
Ni 0.03921744780256432 1.8253081010249381 6.473060392496846 0.5831233687661636 -1.382402979846058 -2.0178824936164346
Ni 4.123400524062448 2.954070717708265 5.671790487902405 0.7498972039920245 -0.2725839862841563 -1.1701686982945525
Ni 6.357827468413093 4.706290437065762 12.794005532106437 0.06022500622932854 1.6067163040492847 -1.4087205346946643
Ni 7.440974242635771 0.1065003470968823 11.161880055567208 1.294384348443229 1.6561920421819092 -0.20378332257067483
Ni 0.6220464772379128 6.424387258254031 6.832774562093871 -0.7005356228397612 0.8700620811100951 0.05075691883789323
Ni 6.832372730545295 5.0348462699183605 10.214415590902634 0.19970889539098508 -0.5540832727800715 -0.8176483433950692
Ni 1.1875386765273859 7.214346869260949 11.661796905476239 0.7321342235816488 0.14412087371303564 0.20728105131128818
Ni 0.548597477514058 3.2523721006331656 4.1658579143510766 1.8939000425244865 1.472240923845813 0.01113339090900018
P 7.990977662234705 2.8136357431677106 12.904637531792519 -1.0940463041086772 0.5935918723976551 -0.33151804161620324
P 4.7645700616633295 4.612801376778343 2.1918683936721646 -0.15429138648813429 -0.5854733570555788 1.3950121839696363
P 9.006993277747842 8.87082951966767 1.884290228329805 0.43685999478882825 1.1570108207563556 0.042679541146397465
P 3.49614990676886 8.19645502076843 11.907546402543755 -1.2751013318439008 -0.23030425167933888 -0.09931477314193864
P 4.356903057266041 1.63009664872055 1.9965679576915187 0.08887300898332436 -0.46475594986814794 0.022437503067909745
P 1.9887476975538605 0.5579801036727502 5.398827909294661 -0.9609654902598868 -0.5976871255129512 -0.5792132350784799
P 5.670208451805567 1.1603565051062767 5.869434472914603 -1.4151650047684274 -1.0982839963391084 0.5657586522354708
P 8.162032388110754 3.0018783686156874 7.5844449655421355 0.9010459310861191 1.899287017868013 3.5235297608368352
Ni 4.610553368114984 3.661837511961141 0.41177898691068154 -0.035339812951874626 -1.4647063060316645 -0.13294480249155813
Ni 6.946487270319028 6.845467381009358 -0.02555517515100342 -1.11852577730728 0.12052920243602469 0.6434077674785177
Ni 7.611982134998001 7.38137391294848 6.0427868509786595 0.8144684030051909 0.7226296265253233 0.7026333859090544
Ni 7.5208815839154 5.662096887211949 7.838393137538974 -0.40417998805730393 -0.009131015766990725 -0.15221059269970558
Ni 2.001336546068668 5.474753465229315 13.27527796016374 0.46614151736176496 -0.11708700952369512 0.4087843195985346
Ni 0.7671011095816688 3.3512563817126444 13.0397690792281 -1.8306344496966214 2.913276882843731 -0.565713143709516
Ni 2.0604310738067024 8.060871998259625 2.9015619186835937 -2.0683295945233926 -0.49250689472917114 0.5203385722294587
Ni 3.8802877538229965 8.850859709374834 1.6645061679943562 0.3846822843440084 -0.08845803293309283 -0.6471237828775243
Ni 8.677294707158035 0.8354836597804796 13.584280800996503 0.07029036088513056 0.6442035239069357 0.7056312921951138
Ni 1.923124577989322 3.173860398065372 6.606409456396439 0.38856465011755015 1.1737204202015528 0.18677444671750415
Ni 0.03951624562073571 6.645338409753872 0.5680006022896704 0.8199929323678459 0.6970322376721931 1.8630205793368109
Ni 5.40803444144139 2.908005273514945 11.866295443571126 0.19508348080383175 -1.289176321879728 -1.6032178039777227
Ni 8.985421761282364 4.371224745792187 6.275690851875634 0.5216979144708306 0.258665062210219 -0.921806046451606
Ni 1.6250760960390496 8.418839277791163 0.23568310160705125 -0.2846316614773098 -0.3455374958237468 -1.930657304649178
Ni 4.05236345030032 8.481024817441316 7.624119508439583 1.2030536219480312 4.236924756137768 1.149532767211756
Ni 8.619155583101927 5.803196897648747 12.42206313205102 0.8430678119094384 -2.102087407700128 -2.572279440982183
Ni 1.948770610157136 4.514113796456908 11.013767194771006 -0.00716180785576186 -0.2486686131191395 0.5076072407057194
Ni 5.01476405919236 6.597558858954741 8.575984450062682 0.9663002722092391 -1.7382236027633675 0.5968353190356173
Ni 4.611967740232347 6.521248331536487 11.234305274678958 3.4046524921819366 -0.805447173343187 1.0270644387714891
Ni 9.153170041082724 8.822169498808723 7.550145036690668 1.05851340130939 -1.021313395220325 -0.36976345825064705
Ni 3.1776258125764976 6.098950537421842 9.8617901419574 -3.1034629263459457 0.44329623733247525 -2.167817917128718
Ni 3.398567597373576 0.6082989675911996 9.801977188117366 0.9451688895472625 -1.5874394580975435 -0.771430192967794
Ni -0.044474978063993864 1.1220654242070713 3.875965020497414 0.4769144396075528 -1.9095737445060017 -0.4238355575047023
Ni 5.185903085393284 7.1878016336277915 6.272263575334289 0.771028329543685 -1.6637873380306636 -0.015074120724303074
P 3.7974580012810017 4.289959232611779 12.356396925653767 -1.1113009774240667 1.5820416841207396 -2.0311645554373214
P 6.867244964935643 6.681166047826148 11.433361758467965 -0.42091504142379765 1.4891942638706999 0.6998427105377947
P 2.58447936004661 2.9851026039653754 8.921742232541355 -1.340178266848892 -1.0563811854577356 -0.6897701567931411
P 2.357449218452936 6.781549001347867 1.311228796536749 0.6406847121203998 -0.7527017633203553 -2.045872551071457
P 7.897394934919646 3.0444219325697457 3.9129934698640327 -0.6055960959473828 -0.9821557511842569 -0.43817614249709047
P 5.914126758482722 7.036164082581501 4.348737165796392 1.2631562436668826 1.5910150912639438 -2.290579608439687
P 9.34040106263219 0.08124022308294468 9.592872105603147 -0.5850033593976958 -1.1636884898868476 0.518697694191926
P 8.203995216493444 5.418590715456411 1.8532939355431979 -1.3674764404432127 -0.8432814705821413 -1.0194956252852958
Ni 2.67116819412737 0.8557176110912583 3.332535152898251 1.1782723012382934 -0.487667821469315 3.5939499624316102
Ni 1.4599411263098443 4.8836770540102705 8.5775196526457 -0.3073111053526965 -0.45534365541531263 0.033252077184910474
Ni 2.997878786535462 5.909068738990165 6.394261132154198 -0.27098604566941714 -1.3337754486463418 -1.4275446093797028
Ni 9.28488461535 6.761972592571119 9.264647854028393 -0.7370010647556469 -0.4383761743230385 0.29784044685809996
Ni 3.388142457197251 7.855235405778911 4.771211053923001 -0.19809424260569755 0.7396909528829841 0.34373155296325963
Ni 6.210358100096779 3.347528434012575 8.361053278429258 -0.6532833747210168 -0.02153633140987904 0.4600328333608658
Ni 0.532106460627771 7.962980587673129 4.981563781245384 0.11068907641715131 0.8294124259095328 -0.01073075615394281
Ni 7.353685939578116 1.1037909871145202 2.290395803376336 -0.2892532194097212 -0.47489638073625945 1.554223119246575
Ni 2.881357004151383 2.275425002348645 11.058293689700205 -0.16082327406938107 1.338525047516185 1.6195188551305917
Ni 6.915183749681761 3.615313099332385 0.9191086453871371 1.1876599131007803 0.2649804629052856 2.553979100011098
Ni 7.821608942856175 2.7591121663785043 10.469117782471972 0.4615122461198697 0.6243268395876668 0.8201960495175874
Ni 0.7599805421404808 5.708321565352257 3.771899079448893 -0.2933081062053852 1.3292724185696654 2.850245260403543
Ni 6.932811884283597 5.399201640734944 5.18942121895144 1.5728391916858655 -2.2579600226324534 0.5519659693267526
Ni 8.147935500450943 7.1696676970767 2.9911235205020703 0.23194538682718763 1.4695811176254625 1.617926056722175
Ni 0.7012766059077045 4.622954882574512 1.9380026486596493 1.266967646993173 -1.3050983924266233 -1.7326049710250095
Ni 7.434380083889921 0.9347135721919501 7.645765958527171 -2.0795820275087604 0.04249622149099778 1.1144901737853257
Ni 1.8345436699502358 8.025568895542133 9.518842370307924 0.28935426376395973 1.6115438073449149 -0.32366075035531355
Ni 4.737968625813588 0.5815270577511534 12.039181359837537 2.3599222606995682 -1.4618644657074953 -3.135577033271671
Ni 3.3326728434288815 2.989458120750632 3.293450712274935 -0.12133395772550717 2.188689875481721 0.5526686518207321
Ni 1.7740160366893098 0.8641195434705604 1.4458048984984253 -2.3152776254069996 0.32475629741233747 0.6756648277400106
Ni 2.366328852673202 3.1346794804035873 1.1381855196639041 -0.05294518473846365 0.4455284690971037 -0.48881581903082905
Ni 6.232650852675084 8.489585983767606 1.6041452620426297 0.056664028350947575 0.055609104723871976 0.34164253164471486
Ni 1.047899871721771 0.7450621946482684 11.368449571643215 -0.6821743467237542 -0.9401395546534711 -0.37729524785131796
Ni 2.96114257829508 5.5677460902702425 2.8501527705634153 -0.2039573862546939 -0.6823301555753282 0.9480950620551221
P 6.462519105206248 8.994947697993346 13.192323630474986 0.2940732665061839 0.03391542180052223 -0.04539385475376698
P 2.4650726332112214 4.411539034488415 4.820303816449643 -1.172924663773135 0.04890058235544482 -0.4494193195110776
P 6.082540074179325 1.6033172455182925 9.94178272023218 -1.4234562982429422 -0.33359497874988997 0.3309958505641461
P 2.4286455261620503 7.455633132461421 7.527044874334107 -3.728367492813953 -0.13024385862062732 1.4023254298015977
P 6.457751453499375 8.213193318607686 7.96017057684393 0.7189264666421231 -1.0576978473866299 -1.039204930788765
P 1.5455902563838007 1.5816801621334677 13.259005187451853 0.6464730366674027 -1.7131466051900819 -0.9585602232525039
P 4.7375752242975 4.778723149539724 6.572767070079005 2.758541981060275 -0.18409381456154747 1.7425499980528634
P 9.301922647677705 4.831036184476627 10.3693839414518 -0.9496271824289322 0.1598007463421377 -0.5515119125084696
