# total energy = -340871.3107351706 ev
CRYSTAL
PRIMVEC
9.24964380818318 0.00000000000000 0.00000000000000
0.00000000000000 9.24964380818318 0.00000000000000
0.00000000000000 0.00000000000000 13.53778868160428
PRIMCOORD
 96 1
Ni 1.112695174974158 1.5877198923876452 0.5269179951630177 -0.49235802785613264 0.38682735571146926 -0.8145079979938745
Ni 4.427018364453154 5.506942050725 13.609809640368521 -0.35665777410662447 -0.14417692376195168 1.1258804179001385
Ni 2.8839465036675596 7.132215497764463 0.2211312391775886 -0.4624170173223262 0.6224049399746054 1.0457039082495474
Ni 4.368634611506781 3.7782298348009844 2.6814301730458285 -0.5724108674446658 -0.16345248416211205 -1.5957752316567484
Ni 6.644296776610918 3.618904716850846 12.026145716876153 -0.6756334602814429 0.8565319078341442 -0.29573445625869066
Ni 9.313096560770774 2.056778589419255 3.09418351213852 -1.9424936351624742 -1.6790617476912308 0.10007144880230508
Ni 7.061094985026082 0.8505843130060735 10.623279034922279 0.9156644523302424 0.2945597192242992 0.2688474020598596
Ni 6.412509947541976 7.847240728121476 6.692663165102138 1.4995228994902174 -1.380393919835829 0.825224098859798
Ni 3.2514903577672234 0.5022834182900654 9.621943098992364 -0.21974987320226025 0.2622602357606451 0.24991276993888573
Ni 1.7833683623372147 3.071418288318556 11.891999979830738 -0.9157397856528681 -0.5194543698522924 0.03288518076379497
Ni 2.153946099669833 3.102080858188205 7.864020507307157 -0.39259125477844004 0.42115929622411985 0.5762348691764463
Ni 2.6566365022960268 5.706743610831876 6.692324628131632 -0.383245809007798 -0.3722569140964621 0.9006103862105973
Ni 3.0900933195604328 3.1119779772713194 0.5620000449372579 -0.36262067655827873 0.13741415111682143 0.5020516009948128
Ni 7.117258823411756 3.363818034538572 2.9135490643344752 0.4647991444012576 0.7584880309848292 -1.2967032263843927
Ni 9.299037101886347 6.839815751544447 7.142673145274154 -0.896558841849043 -0.27627480487218226 1.1340966351623436
Ni 1.5252477967919857 0.24877842510228898 4.137026300567095 0.503869628040158 0.2835489699360923 -1.4309310093534324
Ni 5.378621739472618 3.5985092518244284 4.613259021487363 0.4881668725929206 -0.03462607471430165 2.417063228686934
Ni 7.2515081564700035 1.9812552461354884 4.61130919653155 0.5395886787083223 0.28997955605278447 -0.3373981545460641
Ni 0.2009929142544512 4.624220774595213 3.3805210416790286 0.6044522121509268 -0.9542027176147566 -1.5261469298356491
Ni 1.172013141964825 0.9007849059030713 11.278359172425228 0.5323134852031477 -2.6376317411357477 1.2257922011961278
Ni 2.551542047134954 4.846720961085232 9.861236939134068 1.0295468388737108 -0.49652038676393845 -0.9918110148858339
Ni 2.4839918969816965 0.2782339164295584 1.8863011756948072 -1.2177546756036317 -0.523404355638976 0.4940935224900007
Ni 6.759057109755032 0.3312362264950379 2.5101628397235323 0.128107786114231 0.46944409937243664 1.7562699187421174
Ni 4.877809014579015 1.9371899421056213 10.796251077634311 -0.12855747205713988 1.242266544702067 0.44054310006737035
P 4.924704709673773 2.555482395480194 13.280205051075596 -0.6072575428102058 0.5048790431412788 -0.5204774118001682
P 6.194431090885348 5.795836181867912 12.243969283358298 0.1866417777943818 0.2609057786152797 -0.3171535453644151
P 4.511199374523645 6.007532784162532 7.8806985404088055 0.9187526043372629 0.29593654496716776 0.33649261201265923
P 7.467700085750038 3.7308716575060816 6.1196495690506145 0.167137389212867 -0.13540431977564424 -0.2069892311024822
P 1.6004011543156362 3.056581859337887 2.199173158986466 0.8287146285115599 0.38003527249030034 0.05717593499035959
P 7.864898298523034 5.134273893847723 1.628961280103424 1.6845060586352538 -0.20830666436232514 0.967973546146604
P 4.136727537065802 6.5673212392186935 2.291419858627495 0.6348591065775583 -2.4106244150401257 -1.3176970550272402
P 2.9505994383525347 6.118232523589369 11.555355486487198 -0.01921051149017982 0.06316917645931702 1.0452087137806838
Ni 5.610047832425447 4.521281486486819 10.004981031761305 -0.7354355200407399 -0.009318963408080725 -0.8158591127051305
Ni 4.651775464079884 1.0359046304619925 1.5280781878568763 1.1304788359040983 0.4531348206894518 0.003188939250942895
Ni 8.89496640361919 3.867368654057036 0.09047261792127116 0.26912868074570423 1.5203889443059493 2.5934545323979012
Ni 6.955797037696945 5.261290005295694 7.80752738159498 -0.7702559701540347 0.27849726644479783 -1.2698416261068581
Ni 5.351742274000159 5.637556273690103 5.873166905589848 0.6077954175915468 0.8534913212356076 -0.5571917365020662
Ni 1.3306815351907568 0.6565785798314211 7.976140067088441 1.1057597358908633 0.3734015692238666 -0.1454316221046592
Ni 4.596934324786626 3.9473595753942092 7.514054676670625 -0.8085898327372267 0.7750585337490006 -0.6678435319233789
Ni 4.225579617357763 6.761175278231699 9.887026796542985 1.0601409096104837 0.18421697040297305 1.3106704871977621
Ni 8.276673950244616 1.0106993505540607 8.524840048913912 -1.2556429660089727 -0.054996410840537545 -0.3913851502854808
Ni 6.21817492704082 5.631275765412126 3.1678967000909166 -1.153236184205272 -0.7930655118493826 0.7654462074702172
Ni 5.753861297382704 9.103527376596823 4.700361069133973 -0.07242977582563655 -1.4384658842778968 -0.8229193619860216
Ni 6.625954732553145 0.9798147892283414 6.400788798661487 0.11642417912871561 0.2670028926519531 3.7711244241655053
Ni 1.8966302531528576 4.922299802233017 13.072062162006896 -0.03431342856988929 1.6941173564727725 0.9037725859886628
Ni 8.153570438209876 7.2132701281619696 2.647287887102285 -0.24010298293731552 -0.4265660690619879 0.4676998629878203
Ni 6.538101613813499 1.3870396161004925 12.810538652432994 0.4578900759862501 -1.3701215913755436 0.9029341492477675
Ni 3.9669688206803797 4.177647962134679 11.849261074750888 0.33942804049189934 -1.4681155888235298 -0.8903252022345055
Ni 8.670440545092532 2.4778871319397755 11.989742817938295 -0.05771869486770705 -1.8964834869809466 -1.7006824112848
Ni 1.541314428425042 2.6846351746928376 4.613271970988968 1.4354458665046503 0.7492847672190064 0.8935424236202225
Ni 8.569184692192668 9.206771902957312 4.839028957132411 -1.2604391018460357 -0.40749542558378204 -0.9237305171678285
Ni 7.792279343456181 5.334130951818617 10.010517868661447 1.5364768510067472 -0.3653473314608224 0.9563758140066754
Ni 0.49060019294998874 6.63908922703728 0.6843478610569599 -0.4673216537127952 -0.14097949987057656 0.4442251769046478
Ni 4.075846380238643 1.644799445529608 7.507976735596312 -1.0431148073661325 -1.2777801642276443 0.08586558961556824
Ni 0.5866281470594081 2.3061489917377305 9.70683818157988 0.3598302582973351 0.7232495194975093 -0.06849187422381108
Ni 2.056260609355092 7.097270342721466 2.6482896235477997 -1.1574281107994324 2.8403495985563856 1.5001664466114875
P 6.423702016785498 8.870362350571448 0.6053744005601075 -0.4170643002191398 -0.8945158432770853 -0.8070412573031843
P 8.89998896031277 -0.08525119388162801 2.31567982491833 1.500865272450725 1.281305917992716 0.0637607872967289
P 6.766762063209457 7.103375107763387 4.578521058470032 -1.1309182374343618 1.500617160995661 0.4171969691422621
P 5.141673609050052 1.6923981135685868 3.593863155641766 0.44273008041636003 -0.017772236381756488 -0.6254241864169036
P 0.013740346166324 4.8107398459139095 11.808918752432191 0.29644536628278617 -0.06259864866782767 -0.7770493389267844
P 5.093982444571044 9.049971937819969 10.837473966062085 -1.216968946477543 -0.9200137304378737 1.6262258348371221
P 7.454204855149791 7.21107796253328 8.7834665699861 0.616165643933113 0.2177968632409475 -1.3826073825473801
P 1.253844742458577 6.414609616730636 4.6462774756845535 1.7128678976073985 -0.20412399373954523 0.7266094371086776
Ni 5.043655131551207 7.848979661194024 12.736013345737142 0.4743865309793766 0.11142981123791776 -0.3698367346907437
Ni 3.235469974354182 0.7746160618457667 13.279907212538701 0.29653175534900544 0.2013891113068854 -1.842040120430402
Ni 3.6669011195819503 7.5524083255286945 5.471405843430217 0.5618207506336453 -0.2155350637899643 -0.45616846530945304
Ni 9.025978361276417 2.0281324419422404 6.434741466902972 0.20080264267579612 -0.3722263179688428 -1.074895185101523
Ni 8.108450674763677 1.8923476679795097 1.0569910438954284 -1.2359688846188133 -0.6063872243901104 -0.12126813748457822
Ni 8.64355182997607 3.566079999950223 8.13308432667223 -0.7392672350820042 0.4666367118306286 0.9259524645198118
Ni 0.8935720335096015 6.385297494885412 10.463655153470846 -0.5165711347672265 0.7205056382037849 -0.37252276616333907
Ni 5.690787974926855 0.10980622381615533 8.890144564200472 0.20601504011467098 -1.2529083406866293 -2.551323407555806
Ni 6.6344459057478185 7.403831293909938 10.67504744247777 -1.4911768415183673 0.16504065458483835 1.2257793456803212
Ni 2.871783221803732 8.259182873435112 11.63570251911848 -0.33595268034878917 0.13825927272593608 -1.1633506469314545
Ni 3.0357886596193433 7.652424726132169 8.18030375930709 -0.378501095233961 1.5298665447790813 -1.777459665445855
Ni 8.440762634856254 6.846327500922496 12.20717327455032 -0.7967262485304214 -0.5021030230580384 -0.23682585484794053
Ni 5.98744255738821 2.4529500917079274 8.353844655125302 2.7839177408209026 0.4181559906214217 1.1611215004906197
Ni 1.5859162118070778 8.281807502666231 6.0207828991967025 -0.17475633921070546 -0.63764566818376 0.18002144426438677
Ni 2.205494365698055 5.092613497258613 2.011498807131806 1.3856338280785299 -2.019015578779613 -1.2455634702857838
Ni 3.6657541637255897 1.039706234147189 5.151859317026057 -0.5331123269553593 -0.029023126705227435 -0.5987273938520076
Ni 8.696598538332763 8.517155444676295 10.174257841694173 0.4320898270936946 -0.7519438021084083 0.23111054963071812
Ni 6.140403920264347 4.07116606037317 0.8448689579766748 0.06914596286804221 -0.9665812937847675 -0.3830511764984887
Ni 0.4991847875490903 4.676028030655516 6.286042339983378 -0.07907016396028964 -1.5587534030167605 -1.3055401079497322
Ni 4.07399645143806 8.361992666527465 3.2092814572887405 0.0379080878996831 1.5809975591269416 0.509760025382664
Ni 6.341139694415516 6.513747301153835 1.020526172342753 0.008181764479843975 2.1729387832950517 -1.6139932973266722
Ni 8.465181695023938 5.918615956362551 4.822999324075368 -1.8743365185702623 0.6455692939062108 1.1994137112025989
Ni 3.2751786960586777 5.0460507893479605 4.540655790815316 -0.38999006971016703 -0.31362676315807925 -1.008021306097109
Ni 8.482173291057286 9.020872557786811 13.232633207004225 0.3835103755230943 0.749273968585729 -0.08938440140210412
P 4.6013926531960285 8.92553647704881 6.785762681920236 -0.493436348521976 0.947623521735342 0.5568549219879378
P 3.2502694047588387 3.12583394398768 5.947692212285701 0.12026155059693482 0.49490290576517343 -0.605174435028932
P 1.0801919259479296 5.041333470906475 8.311430412549955 -0.5532520351280278 0.544570705303946 0.342478654392765
P 8.956495035526553 8.97135921343923 6.908671951430915 -0.8290992655444882 0.8974911238553254 -0.007964249152399188
P 2.914109592761052 2.7808962198311304 10.147939829612692 0.3448175869385868 -1.6682134921228173 -0.9127058839225507
P 1.3984351775120785 8.612084541078168 13.3278851159818 -0.21986428729293747 0.7658894656552229 -0.05560653362071069
P 7.463861483488829 2.910243241567835 9.984647539349705 0.17663838672476675 0.5166279561470909 -0.21399960098204437
P 1.470036671738611 8.399462974383258 9.524322356185644 0.5111412220009067 0.2686216592022987 1.235688120153601
