# total energy = -340876.9358743481 ev
CRYSTAL
PRIMVEC
9.16722204159466 0.00000000000000 0.00000000000000

0.00000000000000 9.16722204159466 0.00000000000000

0.00000000000000 0.00000000000000 13.41715609487852

PRIMCOORD
 96 1
Ni 5.666131581309633 3.397519151280972 4.20500381780783 -1.209687068104149 0.6721329033273522 0.3854636425947232
Ni 3.479354942135888 4.744669926849735 4.258055448283519 -0.654949192459214 0.015111401720141717 1.1125376780446452
Ni 3.2241028125778883 6.317820226552723 9.483259235342345 -0.4180030099833253 0.31000176481098224 0.26825810521529286
Ni 7.583694411808988 2.227671616546186 4.517596921018511 0.4238574118815732 0.5552040166480761 -0.4263434115282206
Ni 1.3678686973041847 3.4363973398119114 11.258308432523618 1.103675856778641 -0.75055566351163 1.5169858321616714
Ni 6.412682639879335 1.3478474844412818 12.465692074487544 0.6871854267851003 -1.7393772567518366 1.505753968001594
Ni 7.946743904945226 4.401733318796468 0.835033085379564 -0.4127114225670828 0.03068457356805038 0.3661672562589565
Ni 4.906068037501873 1.3260203288430346 3.212013080195289 1.1978119139331176 -0.2139147545777219 -2.103057484922881
Ni 1.0873883727834068 1.70405822996043 2.2693375572894006 -0.5833588818157371 -1.2077775097862617 0.9109894154520763
Ni 8.224226547869772 5.848394289249302 10.074741233333418 0.09516809796341674 0.9585368262137361 0.6711420001689926
Ni 1.8469568866027979 5.782399458022178 2.261931358630088 1.0345329792343925 -0.1789348960684273 -0.46099288328128996
Ni 7.622820115334111 0.16981637062100427 6.303527610721884 1.4953399717571214 -0.3954783465182479 -0.02005897553340416
Ni 5.2162043252147265 3.6017648575930044 -0.03033342089837894 0.36798014109797916 -0.1153124341217756 1.6374677262995283
Ni 6.518921575716415 2.797102778722047 1.9884227064454993 -0.5339517921375192 0.949694802442074 0.24174206120263533
Ni 2.3561502329718205 7.064884649554807 4.375388556193258 0.5899553040863325 0.3180202642400845 -0.4810649714408166
Ni 8.98418008501345 4.118585332671704 5.9244253951294965 0.08256403604616103 -0.28130131155249616 -0.7138909611007447
Ni 8.250893996687623 1.8559774330575125 11.04587456351509 1.5105935554820822 -1.2949793017147504 -1.2380270526994226
Ni 6.776575517440202 7.806925434897151 2.08156443220143 0.8631039046247071 0.8890584197069398 -1.0966608589133888
Ni 3.217832432725221 3.935635083081523 9.003125982734954 -0.7357553652740038 0.8213399333140435 0.5853273183960177
Ni 0.9789218019986689 7.2935151664049895 9.338984578676753 -0.7968028674046277 1.015021391564026 0.6390176088306221
Ni 0.5149228601232871 7.543578648307127 5.773496252009151 -1.2736167768785742 1.125065378198011 -0.31833471015670983
Ni 6.497332767890344 8.999773529647058 4.10158471946005 1.6625655498084204 -0.5549147675424315 -0.36948629332986044
Ni 6.195126127213395 5.401290537532497 12.239062762201451 3.0714940867488325 0.019719589916114423 -0.19946335503908227
Ni 4.600772043008623 8.726846996059903 1.2853636992427715 -0.17980804270200001 -0.5943449485135958 -0.02687445579334081
P 8.657936988234608 3.284138949500577 2.6760514455663413 -0.06739427028425812 -0.3560021428004966 0.595715089388245
P 0.7395473009564882 0.28477058441997144 10.357695791073839 -0.6120881314296298 -0.8875345268632456 -1.6808466075057955
P 1.2735196484099551 4.977269850828874 9.914808961480173 0.6574537040486226 2.0978851966933223 -1.2747645173297721
P 2.0216291347208166 0.07379797059933214 4.982138562436697 0.03373750146176125 0.11972084760211638 1.226436776758662
P 6.2981840370141065 1.32031831675479 10.123526438687133 0.5734786465875479 -0.31192906374068213 -1.1023828489988308
P 1.3848005563507881 0.28329099478807007 0.6628369039255882 -1.0850451290513312 0.4629458932426027 0.49995178104299054
P 6.217640824462154 0.8548361183587045 1.1022383557122604 0.38473190663502127 -0.3787420076001735 0.3474763647176725
P 7.877806395453912 6.937056905891657 12.223659995785585 0.958865927418381 0.7064291055060608 -0.3970330925998775
Ni 4.40925960806407 4.676309952344851 2.089963441004082 0.2902652056140033 -0.8703855258877848 0.3925141216836014
Ni 8.78602141411395 3.597355423807722 9.532124195527517 -1.064928303696798 0.04055735259707209 -1.1541787506241994
Ni 2.469255418092011 6.117864780139885 11.823291658581766 -0.821570818377927 -0.875082674253138 -0.29944481523074234
Ni 6.181549471421288 7.9900773633714826 12.865389371040463 -1.6052109231483516 -0.04144849695277378 -0.29978857172340634
Ni 3.380688131676444 1.8049893442555591 10.462564227220899 -0.4068102265912994 -0.47407337061433197 0.08943916589943952
Ni 2.751009986471738 8.45867825069429 10.706675431874006 -1.2879280512949238 0.15399159585952835 0.6453944588912433
Ni 0.8397707057126905 7.974016390415526 12.223324475460135 -1.1082372508970786 -0.7736459696721902 -1.1509918682557854
Ni 0.34711961145498144 5.867003749923153 3.9410886634533826 -0.4403834345610545 -0.7010233611094572 0.9608492763969969
Ni 1.5570526578590054 2.1639044202667206 9.155477878710757 -2.221205331610923 -1.2078392162621328 -1.1250484089171462
Ni 6.809430841112658 2.3241932970560333 6.824972032580826 0.44307280846775954 0.37552427199382427 -1.2719237054468675
Ni 6.7148709461122715 7.168107569351641 8.82878375460918 -0.9339730208314431 0.4412758644683368 -0.6770056580386211
Ni 0.1923384016473687 5.508968727224647 7.864278325938442 0.39854618681029425 0.3726862883243968 -0.2293912529467662
Ni 5.184870760395403 6.637967120697027 3.5183138022204865 -0.559090753296992 -0.7732603041979973 0.1551534773781134
Ni 8.856609023566492 6.6326409647110625 1.126720338803684 0.28454964328646476 -0.3802407036328871 -1.09515650645372
Ni 5.206890427655793 2.7154503323072685 11.338396034141832 0.4854335328221575 1.1755811275593753 -1.88933993395763
Ni 4.373525776681471 4.793366210149983 11.013700364437742 -1.2083290114143577 0.348145108649923 -0.41556329019358107
Ni 1.9290860285619316 3.4613963542245196 1.368978847889211 0.9115434881833334 2.051631050821789 -1.1749990298036603
Ni 7.653539476278977 8.66038463651043 10.687355511494625 0.4830444637646907 -0.958716032104078 0.3720291143563722
Ni 2.163620236384509 7.159517882331248 7.253596498176277 1.0733388963579966 0.922325923510818 1.700404732143381
Ni 5.53017251172643 3.048037146714832 8.660304881678972 0.08967879271407136 -0.5155033556243445 1.9715825821086304
Ni 2.497783812977247 7.671983926956706 0.403914218676057 0.3829971833321017 -0.6180767449128968 -0.2569869031768477
Ni 4.558602821777234 3.718509429849904 6.59082926513794 -0.26707436931983686 -1.0159462173711407 -0.3012165624191845
Ni 7.262163267141653 5.216011813552583 3.436468844143565 -0.07760000717266635 -0.8669099086343587 0.0986246890534495
Ni 9.211224672456453 5.210832333118728 12.234326058590524 -1.186649469558395 -0.22715413608613136 -0.6978825014876304
P 3.2729641058742587 3.0898121773999283 12.639967381892667 -0.539074200965749 -0.6590087072405683 -0.5785177516733521
P 8.941974194894035 2.6161051474193204 7.475717370679414 0.7518648692413568 0.12047032417363124 -0.007387036492690504
P 7.93512903466258 7.406794528743311 3.9534726636624007 0.8064460469213466 0.11302698052170858 0.11305449132553433
P 3.3015200024255145 2.8185449109960077 3.0837324757650024 -0.4834118744064384 1.0070939091868332 -0.986171042991237
P 7.629548856287119 3.3225312752651543 12.286223535815555 -1.3706304126911621 2.575548855762074 1.0386277181290564
P 5.72917456705056 5.142472358613843 5.50248291765482 1.742635358677818 -0.019685137133753194 -0.6174193138345561
P 3.341626598705368 7.355769771053329 2.3527253588300714 0.7023564780985839 -1.8470545429258578 1.2420253752255384
P 1.992202352078913 5.609973179295831 6.026127472795399 -0.9267718750973135 -2.6346893706779726 -2.025039673486506
Ni 8.272189453409474 0.8305182285412033 8.604247319107245 0.2202422394576465 -0.09029842857594127 1.0406537474201496
Ni 5.040432010455889 5.36898524718045 8.172899271853566 -0.1117270307633624 1.099034758462204 0.8462480094096329
Ni 7.032496854204699 4.512748377299102 7.358169749774715 0.25514136532767673 0.6026652954538331 0.6857013860404062
Ni 3.6022690548033793 1.8908953816815042 4.973162935369817 -1.294918109459512 0.07513071969656739 2.2668418985031153
Ni 2.738588400652491 -0.1678536683893433 8.44121560949349 1.1574101130773036 1.538515221593015 0.6127915852545575
Ni 8.92825086354982 2.22281298888257 0.05246401154505203 0.7074930279942009 -0.6256311602213871 1.3724790358641266
Ni 3.8301661938930165 0.5986461819894073 12.52038005409145 0.8352501156372324 -0.8386935941011427 -0.33376441444821875
Ni 0.986558097930353 0.5637676524200452 7.006734210198922 -0.21648200108426588 0.48437012455464973 -1.0102720498044988
Ni 8.285729440313553 8.834011821319672 0.10481251609281808 -0.042076874565392046 1.2604095341596808 0.8612753360564006
Ni 5.81465891226419 0.6368093272038144 8.085487059851902 -1.163507484224293 -0.9836611320851899 0.40893781445726346
Ni 1.2925966374061553 3.381870703315324 4.179766455623045 0.09685062787216224 -0.1367556915972161 -0.6990688084862478
Ni 2.133936771526414 3.6128296945552405 6.8243275768737455 -0.617039304787318 -0.8059894189999023 -0.4306415246829422
Ni 5.849008493123759 7.90748069309 6.4905361894944855 -0.23818211176551887 0.0507746594497061 -0.1984796509695743
Ni 4.98662958449784 8.800267277112553 10.340937192523164 0.7281261308635202 -0.7306062169728965 -0.3115140876904506
Ni 0.362680054089364 8.289148814122099 2.656020148759231 0.5106645394748044 -0.07384696788813734 -0.21506429480113282
Ni 7.701951575697013 6.26761135162135 5.807213294550249 -0.9019861835122013 -0.28090510455534207 0.11906470207535624
Ni 4.219461443634792 8.531080970104183 4.500865824133858 0.039337107036725806 0.5086387672940272 1.3737759002986794
Ni 2.753448467525553 0.1490205274985247 2.8981191481818396 -1.091552591152546 0.45839221243364925 -0.5035767793900876
Ni 1.4310675258192271 1.1690133175321649 12.090883785683152 0.9872272521698933 0.6791833824162302 0.794142289853329
Ni 4.175009584123704 6.402287010123597 6.071853576165435 -1.2731992297251815 0.05819974826918364 -0.4287378799023261
Ni 8.005010768020599 1.0155998572479703 2.3154257659287065 -0.08063545156488047 -0.7197263368355993 0.22772852053236264
Ni 0.04892454712821741 0.6880742661103739 4.418175648187907 0.9092541779285243 -0.48400734189859224 0.4274867811040444
Ni 4.512922554517232 6.091784033530471 0.23170611983347242 -0.4839788026535019 0.705717681261333 0.440822321870686
Ni 3.6032499475581097 1.7504993766469992 1.0624214436478223 -0.2606946910457381 0.8769714066354187 0.7036235177364656
P 8.538873108809982 7.744102462484388 7.778971824831744 0.25573786126109505 -0.020189844684313618 -0.4784653290344405
P 1.5545041701411084 5.258410215334142 0.18224345677345447 0.5513442765823536 0.5733158957574385 1.3733508969461186
P 6.337768101639572 4.8559049986805345 9.89715197517283 -0.6906692715686428 -0.10439141633389763 -0.7465321441745336
P 6.340307422135462 5.833919245700527 1.5482053719002198 -0.8265065651166474 -1.3158366047797339 -1.108660711587742
P 4.183223415041818 7.383353942071863 11.951734522841575 0.7306265286878707 0.6510457436397498 -0.15711240087669714
P 4.392456090125562 7.505094650322481 8.113206905756135 0.4694811232579592 0.8790429444524667 -0.24066888274311457
P 3.507104123150543 1.9648015255005167 8.182587192070379 0.6420314559562814 -0.13542180327714098 -1.004168508009922
P 5.5768245045191565 0.9641717417896895 5.543298140195801 -0.3708803454639097 0.800964454981485 1.1844069533811215
