# total energy = -340888.63549238007 ev
CRYSTAL
PRIMVEC
9.06150489308362 0.00000000000000 0.00000000000000

0.00000000000000 9.06150489308362 0.00000000000000

0.00000000000000 0.00000000000000 13.26242836197728

PRIMCOORD
 96 1
Ni 6.4216530658381155 1.747465951172967 11.495554950458287 0.03760804016076104 1.7469825799029202 -0.14350098074084963
Ni 4.694321778999232 0.40163127828385076 5.854526989144934 -0.5557501189595332 -0.1323544772057269 0.7774236915470675
Ni 2.5243540909941413 1.5220700732944825 4.848942771287546 0.7285328793836356 0.2472208249290194 -0.1855554867087385
Ni 3.4487816568673173 4.209023811818234 4.701915320273742 -0.4897190475713889 -0.04591553158519189 0.46156032574898576
Ni 4.903443193716594 4.652212964795592 2.6492760003144276 1.0510602874654542 0.5239445444131621 -0.1362304152213654
Ni 7.323254700362256 6.058168911727813 2.8053613318270383 -1.1453976619974597 -0.8743843626345328 -2.0731514413920684
Ni 5.1758229755429745 4.33789653736249 11.538737553016375 0.4967458725111832 0.7232379495332835 0.041305029396374024
Ni 5.680612240195894 7.860728813913934 12.555766451816133 -0.36746206381098 0.10904459883519284 0.030724168556734183
Ni 1.6699447750352157 6.524020888962392 0.18204382517500936 0.03442270045424394 -0.017370115847331377 0.6011102922618874
Ni 3.01479899307242 1.7066529321987494 0.4156222421595595 -0.6642211046794432 -1.606453537306201 -0.029969292668580647
Ni 0.437959758383659 9.127472857981832 4.517050648560839 0.8821557790498354 0.6202169311843512 1.0350001486787983
Ni 8.821610814807821 2.310991891889582 1.5777249314733786 -1.001190656328521 0.7979184690663097 0.009954797219866727
Ni 6.817205886500318 0.5538002272918754 4.688334842579102 -0.6467566293460927 1.386066287630258 -0.03870358721778496
Ni 0.7738434741072895 7.481214857280232 2.3663359404435194 -0.28818981114221337 0.4572935800528317 0.29065755595641557
Ni 7.393481364893826 3.900823900328204 4.051897313369536 0.5574107944914078 -0.046487602038578005 -0.3212727097391112
Ni 7.277956236363119 3.801292328300493 12.695300944262046 2.1763058999950715 -1.1532097018427105 -0.6597689824453605
Ni 7.8056439244058815 8.999361298866047 6.824142468655016 -0.27244720359597596 0.5424767988893948 0.5847665607965413
Ni 7.0656542333553585 0.7985958814407649 0.5092384636574369 -1.3709530861379036 -0.5379141192193768 -0.1390735410971153
Ni 2.0074405325162865 6.3386859251347545 9.177428029452296 -0.42127113921163584 0.7048486483928185 1.4511095411838364
Ni 9.004979432028573 4.876530523567077 1.486201011503287 0.3598107179133094 -0.6306306703185075 -1.0610798764849854
Ni 6.26242429820602 2.0637215406976517 7.276325165444966 1.4160332663059936 -0.3093664452198285 0.2587445092979027
Ni 3.597789046745656 4.080894129692249 0.29716299827719816 -1.8457648775801565 0.9368894231472896 0.4400039397344486
Ni 5.836044237190734 5.750358644957119 4.768758418800655 0.3301257892543669 -0.768451055734812 1.363448293120426
Ni 4.939571414553674 2.468480850542315 9.600393715345582 2.3707496903323753 0.7495423917557672 -0.2315509796022464
P 0.07548233749006103 5.259868435353336 12.489719859587584 -0.006592565615853162 1.507064202172585 -0.6558321092847995
P 4.232955246789573 5.95145156615513 12.85460854698852 -0.5411431676796358 1.2070745701819665 -1.347442404610473
P 2.3039420409211226 8.610504930473372 1.1701773965091846 1.6783251266355224 -0.3421194712811334 0.6187336617706053
P 6.285494890192779 7.834821970830611 5.595020887615329 -0.48403433848178573 -1.3774800886231438 1.573668115345064
P 4.931533859529221 0.9740483678054177 12.76312449764087 -1.0333196756525818 -1.1665807238329782 -0.08087250727635105
P 4.057361400945347 6.252112305401256 8.179921237241803 -0.3706558881579294 0.34881668079565087 0.5247323304217802
P 4.594581792354202 1.2971000861557376 3.8344066925410307 -0.4133883940294493 -1.1161675614877486 -0.3992599250478672
P 9.271097713830269 5.716106155675916 3.4947026462668833 1.0468675895403454 -1.4430321634923404 1.5087099653061242
Ni 1.563363352039045 1.2374300750666558 2.6414649829174963 -0.054745985392628295 -0.11419169025377109 -0.8222660446727387
Ni 1.830741183049757 6.778948211964539 4.690205137231917 -0.2974820350774167 -0.4306320116012455 0.5318031212256324
Ni 6.044331993438819 5.608247060460526 8.872232913053706 0.6998581371567624 -2.3179302325384983 0.6417856584940624
Ni 8.869229024112775 2.397257420449652 10.22883356015314 -0.6262024593438248 -0.8601453362170153 0.4422274297483287
Ni 2.286861103806025 5.567017212251669 7.047522161648562 -0.3179279616365944 -1.2457349628666419 -1.786476010011852
Ni 0.5622346762397444 -0.015778798832106034 9.392080586883214 -2.4083932117167617 0.5391515911709038 -0.9545189633035948
Ni 1.6980173178376416 0.9904587535430528 11.546615625551052 -0.6828274069267208 0.5791463863962865 -0.44597069884084484
Ni 4.199708584574563 6.901088239218865 1.6076188368010753 -0.5695314890143418 -0.004001150739593109 -0.48176071195626063
Ni 5.852409315402865 7.782093072648778 8.110054314462738 -2.2374161370428305 2.0079670342749356 -0.7874443090078632
Ni 5.430061624157457 2.7595545173917433 5.218567001254182 -0.25364061241243413 0.5873559187902723 -0.637054314456664
Ni 0.5747078380110612 7.654063067078901 6.965771981080246 0.017154914512731746 -1.4255831147779576 -0.3110664586300707
Ni 4.812909696254025 4.7762649696261965 6.848532415784458 0.7665852061706668 -0.20514652146678863 -0.7692470692735461
Ni 8.003420334736983 7.165430466020792 9.042191408875714 1.1273037806102264 0.45683283836632943 0.2653306471558527
Ni 4.443209349644541 0.06458859605782197 10.425289709191047 0.23133037895100805 0.05375713911679775 0.049621262571553255
Ni 8.205500959990985 7.2742863267972755 4.534106213461655 -0.344036228687872 0.2839670313101174 1.5208162616513552
Ni 7.301425534574314 6.381048461481217 6.950294930367997 0.9098447603246718 -1.6285753089059047 -1.7642621929189743
Ni 2.1939534920070343 5.374387736817849 2.5476457837053603 0.8462775770959877 -0.43360832062075 -0.2667673796023793
Ni 2.400374578204344 5.4093379619918185 11.378911632198134 0.45993821676453045 -0.750093893383863 1.2132755567863558
Ni 1.0683605128950402 3.4635700331919006 3.8294464246488267 -0.2953755302573752 -0.5048391910422789 -0.3763326268277325
Ni 3.642543820438743 2.767655502951901 2.557884378318808 -0.03502048193924292 -0.45309496859045195 0.7526415995063812
Ni 1.255444347207141 3.6231521995229286 8.40170882378913 1.539709241901116 -0.9133751420754335 -1.6306573882459143
Ni 4.027023481867709 2.7230275903302266 7.421310153209039 -1.931574417146809 0.9975114077047208 -1.494593323399084
Ni 4.028446138168542 7.0586043823869 6.081195102339578 0.6966949089374324 0.2849949583539995 -0.7432483312169393
Ni 0.3514359769282152 7.001163501552625 11.030892748843447 1.1551866230634233 1.3277248715768875 0.7477140802977768
P 0.22536506876114185 5.612397229796714 7.9816609425383165 -0.03348810445511652 0.5277263800530976 -0.25738362439463414
P 8.815213392206623 1.4932635485788877 8.071859164312155 -3.82985073436212 1.8068630583086367 1.2069002493876313
P 1.9777459803008088 3.0736806532177283 10.368752260415329 -0.3278660466859128 0.6324548680114397 1.3082240825397986
P 3.853504720691577 6.247092231575386 3.966752692990441 -0.08885861080562116 -0.020700979992777254 -1.5662450834081154
P 6.956472158395245 3.8078981655190107 10.332930318450657 -0.11079809119118983 -0.008559716644553001 -0.8584597209844763
P 6.332351933069262 7.767875571145548 10.278090089580326 -0.046279342682513845 1.30300397179144 0.45908512473561586
P 2.3381673456870247 8.62587324312441 5.795959763226625 -0.332351336150776 -0.25083013954683253 -1.5944889087451573
P 6.910185990340116 3.967435024324535 1.6610527200797536 0.04838019107560055 -0.20655934265391523 1.2843177082358461
Ni 5.316294427616315 2.700754410792343 0.6889099867970443 0.6155375234308109 0.25694268020247363 -0.8717803493527825
Ni 1.4454369246566137 1.0899540795503602 7.147096322750247 1.3752681685734898 0.5985489592926143 -1.9025875429961556
Ni 6.837558026956821 0.7482311299397435 9.366934910228363 0.09225915184673787 -0.33592285555211826 -1.374651103814781
Ni 2.8281410495000596 1.5446060364802907 9.014552006017109 -1.7932968895884274 -1.3594607692275877 1.4778127615066357
Ni 6.278979668025269 2.0894018461534536 2.6832412398839347 1.0747869416584328 0.29417019709536435 1.055658448359098
Ni 4.529710477337233 6.467531466163707 10.419030021467382 -0.8810206370041278 1.1039375950804602 1.1263558148746602
Ni 8.157239383823871 7.340027546303926 -0.14529489123852166 -0.25248490154143616 -0.9996155985319172 0.19747974895015022
Ni 8.016749808740329 3.7315912310647725 8.136141481497567 -1.5963251906229474 0.20296648309633428 0.49779076883592976
Ni 3.017861781796507 8.170922256526152 12.281234562528303 0.7785758028736398 -0.45469985118372663 0.33957305071019583
Ni 9.32211398754804 4.796626171587802 10.262043070197235 -0.7345384621477672 -0.5361187178818508 -0.021585953700891856
Ni -0.5323652369758203 2.589814403842665 6.007190696331464 0.15832287624503055 -1.5307042101890282 0.024698531187944562
Ni 3.7753583007018667 2.605010547896786 11.501138649901426 -1.4830686105889361 -1.0981772955579152 0.9289868804707613
Ni 1.0854052039897346 3.2639269528100248 12.607384409472601 0.28074775304187133 0.4198110097263415 0.014130011643478891
Ni 2.710640512857368 8.189525526498192 7.794925976172599 2.1247797070913212 0.29418176705959015 1.9704988621261483
Ni 5.740191636233968 7.6452824686361796 3.4330463532596953 -0.9175968934662649 0.8683924067171561 0.44291674250586943
Ni 2.983636477030605 8.60995217866222 3.4280199363802555 1.0446165887226395 -0.8843291325520705 -0.029923269921993626
Ni 3.525704773668413 4.42534006158567 9.404799315442766 0.5127818429281233 -0.6296356533950898 -0.37745877001237577
Ni 7.080614778276858 6.008040665509924 11.147243380488842 0.41047533414771237 -1.171331608254402 0.9316775399290472
Ni 0.37692055387383916 0.03907320999485511 0.5833706368874716 -0.09224192545555727 0.8995804022841862 -0.7904036487465033
Ni 4.995879607250341 0.17262892137522862 1.847907298312803 -0.8168934675069156 0.8929500414518622 -0.9819528911448313
Ni 6.361638717555201 5.596929240589566 0.419679077993209 -1.306399370626234 2.1237996025662387 0.30086046463134636
Ni 7.974378210888766 9.124845021502587 11.344310274970546 1.3274749603496105 -1.2278534546005304 0.3278737599953966
Ni 0.21338485286731115 4.772486321999144 5.601850544009837 0.15569700858640928 1.5451003310097002 1.0456188047349089
Ni 7.924648670895314 9.135084522266544 2.653162479852181 0.399181506401448 -0.8591516048451785 -0.7604148156938968
P 8.310958756354651 1.8477405666189475 3.8916609063702268 1.3197557373284818 0.9289174606854066 -0.679598615576778
P 1.7830867277243994 3.2551644773775052 1.6250051466380717 -0.2959095483839742 0.6862397750423794 -0.47774979102465465
P 4.6355397954100335 0.8208155980985534 8.150982414551736 1.5591529524480243 -1.110538131116113 0.15507120207695227
P 8.576886746549228 1.7644562732370566 12.650845200237287 0.25095458093983875 -0.5162299493777238 -1.2617639913050465
P 6.634090991422388 7.732245733089016 1.425127373274084 -0.017728784738330755 -0.159061554183268 -0.540685768427243
P 2.0910147940614046 3.0979654868880004 6.2048538378488045 -0.49962936470656527 1.8163758828950785 0.15969764510537013
P 6.923252680695537 4.183189460775718 6.236988653387941 -0.4068099694809832 0.22488796575977396 0.01839701444994896
P 2.248811843887566 8.358160136424967 10.095467234229375 2.691079833652559 -0.939547429595427 2.1115714359311637
