# total energy = -340868.28906732175 ev
CRYSTAL
PRIMVEC
9.30184670421404 0.00000000000000 0.00000000000000
0.00000000000000 9.30184670421404 0.00000000000000
0.00000000000000 0.00000000000000 13.61419289668692
PRIMCOORD
 96 1
Ni 1.5340140659022625 1.368552814928916 8.268825557447496 1.3059887654513764 0.6234192401717327 1.2850972667143479
Ni 6.533235820350162 5.125457117443139 2.0846871175169746 1.2473650422708968 -1.7269629422478838 -1.3689656233942293
Ni 7.113950116407394 6.04322383249178 12.07568077730638 -0.10186325059540521 -0.7409410232400013 -1.897695505011177
Ni 3.3784214578518377 7.006337050716442 8.531388787221761 1.1576787933576578 1.0081287782092507 0.36069492029047556
Ni 0.741344167799885 0.6768526035291179 1.211569267133954 1.8225154201339127 0.15256463360501468 0.7812888309294287
Ni 2.0567685545154344 4.600163224652109 10.894240191974914 -1.4697107012247914 0.689951676676328 0.8825671555556414
Ni 8.062096663122269 6.479499051355727 0.8159570715795402 0.3397944226923825 -0.5628656469583919 -0.6047538025517456
Ni 6.412432735889243 9.032744377259254 12.845603939230987 0.15673187760882684 -0.8643064095732406 -0.5442356905620304
Ni 3.7701408305182174 7.293699004073739 5.855110724178075 0.11089733577321548 0.8743141715182297 -0.1727555067305928
Ni 3.4397857412266504 5.194839592764152 6.883512674944723 -2.6223110516182775 0.8139428695190241 -0.17139873559238222
Ni 1.7682252666138598 3.2707060718460275 5.856539487847375 0.39473684036653306 -2.1880792384809156 -0.11842629716040896
Ni 6.954004860589612 3.731361431186765 9.912548395125953 0.9482002201744186 1.5550435582653412 -1.073717362743338
Ni 4.406070889211933 8.5839116652081 3.457800627934548 -0.27073510600087564 -1.0500686129761465 0.748428332755982
Ni 4.5099353106403335 3.7715454093858236 2.296700391012314 -0.8616160072252709 -0.0551884722466856 1.5929213071477213
Ni 2.40843417483803 2.3008118073002732 11.924113694906167 -0.5959961109637736 -0.08750441077057189 -1.259069989412651
Ni 8.199122168411698 4.356036255246021 5.972682347058821 0.7395066047863199 -0.6003289340111726 0.8880765154096447
Ni 0.8045148698242943 4.679889353620657 4.289764317496713 -0.8440484306551528 -1.4085138180004968 -1.0511389632221897
Ni 5.88800391485111 0.3241888950443091 1.5913766947814187 -2.441746847476543 0.06610486204887324 -0.6223571174558056
Ni 3.1986539664918814 5.6257290423278095 1.7149256844192748 -0.9360669272459944 0.978291383132844 0.3090663974809064
Ni 6.735318442196124 8.352993318265593 4.272256381439706 -0.5996725313740963 -0.8025873352968887 -0.08346186527008206
Ni 3.2461119888927144 0.2419280128213054 9.730798680211779 0.154574722056508 -0.5083428333201633 -0.26376201711715225
Ni 7.848042564437838 6.202899334752207 4.227070800213418 0.6429197720985056 -0.0754575069083668 -0.36040232875072126
Ni 1.3722828554978561 8.574163329756107 6.864167624143661 0.9788161452880627 0.3480060119688974 -0.3412635510387413
Ni -0.15669426035931577 1.3729804940082566 12.633944135914248 -0.3557560882279615 -1.4552467032806613 -0.16071605906755546
P 1.0955436111922552 5.138498306664222 0.6247194729239225 -0.08726349840435937 1.592835175191818 -0.001419763165662071
P 6.739420556637278 6.056162701398004 6.025491721926764 -1.2501492898842534 0.5334121175839652 -0.14141015965009193
P 8.37839666189097 7.562410754586334 12.498387392235383 0.7272015621667217 2.344980551788071 1.271848372124242
P 2.521386500595246 7.091793117317079 10.598186592962712 1.5666775429598436 0.09248926557967298 0.34330449272817004
P 1.034932777408675 1.1433458019248854 5.2800603226406135 -0.06702454564966522 0.33016615557399914 1.2192978517210358
P 2.6731554330711353 6.83865265835662 3.7550671877701682 2.014019154006286 0.07042920045583999 -1.9796548175938034
P 7.904495472699432 3.2111463467514505 3.0712391293217274 -0.37439324371317456 1.0783052392243366 0.36256282673714973
P 0.9893909354497417 5.092184411420445 6.598921741750735 -0.7838067122552759 -0.25580625260518525 1.72010143924136
Ni 3.6768340052138755 5.080436178905304 4.403742636956557 -1.3073681622974065 -1.5156987379191316 0.5172421926923222
Ni 1.341261196402055 3.512758729414524 2.085612651274106 -0.5057820145715225 0.591886202560458 -0.15043627440810223
Ni 7.857707183268584 8.741252403920388 1.1111642025324586 1.8431886322125484 -0.556789615967641 -1.603320133883542
Ni 0.2341702725856538 6.18248178101449 2.5726061898441572 1.4012985311989803 -0.3173157819738922 -0.5632032328034687
Ni -0.033333168026927554 3.917816950399758 8.601665170020768 -0.957786321200957 0.662185305196337 -0.9525384425384564
Ni 8.292373182635208 8.80702576268093 10.715050345301572 0.453641070901909 0.32392043177460345 -0.02723081069149504
Ni 7.182839593847724 5.3670353808245626 8.059942355402152 -1.0263766686758453 -0.424546724639114 0.1087484077510127
Ni 1.0488390383826547 8.33929169792133 9.265874703372072 1.8615895033172392 -0.03505416339065575 2.146024218292394
Ni 4.825146993332812 2.3792821869501024 0.44524964066173733 0.2596744773113399 -0.36144542530325496 -0.4275366605053733
Ni 0.2909050268054499 3.626371486294919 12.729678743234784 2.2033824444968895 -0.4379763677814586 2.2623751209810132
Ni 3.078715953783858 6.3330600770992955 12.853186804746697 -1.8193305946480278 0.12893876665595858 -0.5043360261536153
Ni 9.122311860147851 2.4320515638767826 10.351306276902243 -0.3406639697815294 -0.4507267254685915 0.11829362823728659
Ni 7.206345360724813 0.8514157116014873 8.812779885114713 0.7724462929371343 0.004506372510785787 0.014915226548935604
Ni 1.3258108288583892 6.628189072539049 5.268883223519321 -0.6831863329280363 2.0759845399654893 0.705735678983462
Ni 2.6189256661960165 3.6171626579576346 0.16126425769477817 1.460298663882272 1.3639411735964444 -0.10028382192342729
Ni 3.370393964058831 0.8621770181705826 2.18739252883343 -0.04373420766315694 1.2648773401230473 1.8677755775232927
Ni 1.4055369578269383 6.004528149781574 8.664330781763647 -1.800771343588602 0.26605389847512245 -0.23035207419813877
Ni 5.962986101948937 2.1669117225374377 3.067155618574184 -0.38342295801561066 -0.500218404440816 -0.5045540557016923
Ni 5.376774414429751 4.220675780534748 6.5621906090858175 2.1352736646441097 0.11379831147009434 0.7032620206319888
Ni 6.344268802499728 4.090542943728074 4.383783664266344 1.0728622138318944 1.7103577295910353 -0.5979277807688476
Ni 4.979306500437672 5.033619983934039 11.74687072476918 0.06761024294980615 -0.024297953315416218 -0.5721005352930986
Ni 8.90081628401915 8.838372986414917 5.208940262336363 -0.5411529378716488 -0.3500960617287067 -0.9273357180205837
Ni 2.3917745672096706 9.137957566474428 12.219541279628372 -1.0204801006857522 -1.1637800211593892 0.22181986835741155
Ni 5.8425922987474515 1.666146799772084 6.8336854721625695 -1.1790387470906727 -0.6887836245101557 0.7320311223448812
P 6.555532347142558 0.7929526742452595 10.968397305261108 -1.2160384642434734 0.13644150279090697 -1.2255777711924762
P 2.769866734306231 1.4478789644848353 13.977147557929259 -0.9165036604020861 -0.6281004476974861 -2.2873621299436544
P 7.430957055533302 2.8768658781080303 7.844198111153191 -0.5102354223571859 0.7967398753771762 -0.38768199040228074
P 6.900835504250303 1.7992097183224396 -0.05058902403550947 1.2364792485963285 -0.6360832087926465 2.112128079765582
P 5.546663344482438 0.7400047018599165 4.708972507842227 -0.39032508445208264 0.4882671456162107 0.5812860584471086
P 6.240804360483957 7.272500095204375 1.8920737757188475 -0.43520934655928273 1.327427652051443 -0.0901953273391737
P 3.875865621307686 3.7427468916764983 10.499769333023517 0.9514657782995678 -2.2142636101857667 -0.8820778746240485
P 8.919987390284952 4.502912416302304 11.125940824233753 -1.6102405151524593 1.7261790128940078 -3.133392366915526
Ni 3.246809627403115 0.9044520515314812 5.668609625915734 0.3692559224866092 -0.2864640867003582 0.7693936221537395
Ni 3.95725678085439 8.6579729694722 0.40164351302299484 0.10568416700339217 -0.38008258078846796 -0.3709394808366192
Ni 8.94530701728908 1.400979052892323 7.119187986343479 -0.5862940531846613 -0.05470819017615739 -0.9279378703809567
Ni 7.536021415199591 2.067884261447813 5.270122229513791 0.28604448266443644 -0.4769398935288496 -1.5369087963378434
Ni 5.350292056574955 6.182658516103791 3.5670545394019606 -0.2157322674024349 2.084405931259965 1.1942007995430917
Ni 0.6964292703156316 6.52268752607291 11.438822394301491 -0.2448109299359461 0.26139197422307886 0.9385907221091127
Ni 0.842755692225718 7.985570369454755 0.15487760967823333 -0.0032678721179943723 -1.7531696825502385 -0.371544975631102
Ni 1.798977172152306 8.806532764800247 4.017302992536886 0.35984311381314155 0.30361411611708355 -0.7097270595310422
Ni 6.979631448538318 8.299507699134901 6.778479941557571 -1.3334340061465229 0.8561878942311643 -0.09571754270898354
Ni 4.337655805958675 0.9722011225534776 12.000747889996623 2.3079831486281157 0.7438869932422026 -0.38704898480397215
Ni 0.20054037564563598 1.8539417849250461 3.3518553833757934 1.9283430546937046 0.34435221726639403 1.6883105199830084
Ni 8.409818300399401 6.408879430409604 9.762411006579718 -0.7350251719761987 -0.1236896024418773 -0.1788474785609436
Ni 7.666889097903886 0.6854382081304446 2.8771691183138843 1.341755638638341 0.04803540614167211 1.8210928287547734
Ni 5.612250666306874 8.406237089379346 8.89499611847305 0.3218931169319295 -0.4470809011858881 1.3895465328693746
Ni 5.265431308169859 6.648374080106632 -0.15668309814314937 1.2680297697091003 1.1648066626516906 1.4717069057192138
Ni 8.696650048488793 6.809528576009107 6.754600240438908 1.6001039409390894 -0.6624701834266075 0.5947249575608339
Ni 4.647797982142243 2.803492910507527 4.928024488815166 -2.4702534395566684 -1.3439719295633694 -0.07422543427347861
Ni 6.399865940855231 2.761811334972809 11.827003344443122 -1.2878249500581562 0.4602467491438848 0.0850808889307438
Ni 2.2506190419386716 3.9417599040766977 8.658259466353805 1.8279777288000647 -1.8648992844167622 -0.34447820132129703
Ni 7.571303320132237 4.3895880166728745 13.580089855381296 -1.1102807636896685 -1.6998195490638726 0.15700287188202638
Ni 4.532799250087853 8.012192255011632 11.324122251529555 -0.1001354692710211 -1.4001852435301434 -0.4209487228752105
Ni 8.698956906496518 2.488923055244617 1.159459391145772 -1.901219201893719 0.6557516337558512 -0.49246395730637765
Ni 5.207294765636499 2.1135749329556317 9.455505873084409 -0.9181553370728962 0.053613928670714114 0.5961480631606056
Ni 4.791539420825127 4.98834789553246 8.829362287414588 0.5226618210459966 -0.17274496520763152 1.3213241102568662
P 4.8674238870630715 4.63074769694806 0.3594884734858851 -0.15042316178197962 -0.44217060836846434 -0.25533136985129573
P 1.1868505394334499 0.8390675099674016 10.74199314457323 -0.1407205897822351 -0.16396567635310472 -1.084080708255533
P 8.769948601314855 8.637685641589758 8.088777150314018 -2.029378410071176 0.419545928990413 -1.1731722610075666
P 0.10272773574878818 8.293452196864628 2.6410994086105806 -0.3245310687754088 0.7634057800014208 0.18574883366646722
P 6.085072841268993 6.465034679573426 10.036478760482828 -0.10279733237390036 -0.24136616592045532 -0.36301071290784576
P 3.469663273165395 3.0085707270248063 7.112163231636089 1.9052329510388024 -1.2955832538473364 0.15164546422485498
P 4.087910521082163 8.810709294015844 7.578422023492362 -1.3557851201482134 1.0639715962104839 -1.4241201570791862
P 2.716222983779849 2.830198512685651 3.4701897576945773 1.1882317264438507 0.13958184819210154 1.3731431518106867
