# total energy = -381172.87411516113 ev
CRYSTAL
PRIMVEC
9.25157013622903 0.00000000000000 0.00000000000000

0.00000000000000 9.25157013622903 0.00000000000000

0.00000000000000 0.00000000000000 13.54060805740825

PRIMCOORD
 96 1
Ni 2.007942294792881 1.0316888517394562 11.897631231422201 -1.1408622360209513 -0.3764059032678292 0.17966020427022608
Ni 8.661310777111844 1.1558356723599268 3.8522761214003043 -1.1302314957799826 -0.5962676194576053 -1.8359967424497994
Ni 6.114954850926942 7.724635551408025 0.37934860933568704 0.9391203693603374 1.396199519409518 -0.07646589356822314
Ni 2.192057793501278 8.878546897164698 7.310994146782534 2.0288047969558933 -1.2318031832768979 -1.0143459627635563
Ni 8.930633237435453 6.322680356806027 10.127603241253963 0.008966979385300685 0.6212456295591817 1.351973202601291
Ni 1.013157956612934 4.8001216929732005 1.007839228900384 0.31958940849941736 -0.8000568555655512 1.07854872269371
Ni 7.892449783410016 4.153362922875887 9.294435508193702 0.20894892593201433 -0.8007451398818274 0.40724345747397606
Ni 8.190923941458873 5.579446212580218 2.3171908315059158 0.4681338652014454 0.1840112821500702 -0.1200581763368771
Ni -0.0032870828948843548 8.467175827868237 7.05258483867622 -0.6969216802362578 0.18587867437611214 0.17556160872082022
Ni 6.264386212925738 3.138012344123669 11.168591771366449 0.37216615415486876 0.46595279838972653 0.2195544693620025
Ni 6.155874545956701 1.779687554622358 3.204520032034574 -0.667749686657992 1.3407423668824778 -0.4507133557321528
Ni 5.320133951221609 7.730167990392379 2.696449700610586 -1.2833897971049382 -0.9044770682548552 0.08603939618927117
Ni 0.3421832014963135 4.673301168562633 4.440195830132082 0.3108844245262517 -0.07514640342585123 -1.1641572019931499
Ni 7.773826150203691 6.258122899894956 8.11197566708934 0.4312621889860766 -0.44922982920809085 -1.2176762569572124
Ni 0.8606615494042448 2.6280842974019247 0.25752485799443264 1.6890299146475365 0.78941763068415 0.6503533455584154
Ni 2.3748225629593147 8.641290379181841 2.9878575093346114 1.33853867436294 0.29831352983977655 -0.31364141844609855
Ni 3.8668417935357 1.731773672515389 7.872928970271244 -0.9932976267336895 -0.1416320458529109 -0.33437710833155315
Ni 2.748558244649839 5.87487660403066 12.896969192458501 -2.788282188437185 0.027714692306449042 0.1943057220975428
Ni 7.03150791142847 7.827596276252293 6.402703663633725 1.3040198146504638 -0.6954800626937249 -0.39341709311384504
Ni 8.029724582155566 1.3851913493851955 6.266526101114836 0.13247274795114605 -1.3281141365955063 1.3732629652180026
Ni 2.6923549556365476 0.6848548858996067 0.6227824007463922 -0.559075069567708 0.8732448497134508 0.6285136239755047
Ni 3.5651758437651 7.814718090522827 0.7267830020820325 -0.4933954679817116 -0.5081901097923829 0.6132952643638534
Ni 3.1567837800755982 7.474343571002167 10.9035074553551 0.6077373106601017 -0.25625670987904253 0.8493557018006791
Ni 7.728419443623077 3.5317221658931555 13.442384412183896 0.8818796425703136 -1.3235211179081852 -1.504724755406131
P 2.7326547954623743 7.630177019584864 5.211333635262085 -0.07448485858245235 -0.739790711685642 -0.053418781940772514
Ni 2.997925068034902 4.059635265099153 8.594521841466616 -0.18903727460975187 0.8606873247634144 0.3991725075403835
P 5.763867013105477 5.612779620039459 2.383865047680564 -0.06596885069164124 -0.5316874215833746 0.3419065839393789
Ni 5.064744355631172 0.33723453659208147 1.1339640352313138 -0.21809562542828892 2.2575769282614218 1.1253070618951715
P 0.5361358948068231 8.708947112112574 10.67144846951507 0.9621559110235623 -0.5105264712350434 0.10376072472843421
P 1.9062305319266872 4.157914695418198 2.948440269306623 0.18745681749650944 0.7784657596583368 0.6657737938785437
P 8.770340532012526 2.519776164977463 8.10834627609676 -0.3173597478379502 -0.4147847601563437 0.5027529979372115
Ni 0.859735467226429 5.1369251063935915 8.439617250532798 0.31146317984785715 -0.2690430630104334 -0.27096110596875267
Ni 5.827388294153257 4.634398315838206 4.816800423744091 -0.6202945784998221 -1.0538779594199075 -0.06829467061134044
Ni 8.064001649776017 8.441909789630328 9.268275768273705 -0.8143218501249975 -0.5828693437738285 -0.31281866543448705
Ni 7.3111181178233196 1.367446837726349 1.2313053563312724 0.35631607449648955 0.24309394724483943 -0.6546730559796918
Ni 9.21453617240679 3.220712130212527 11.745407745534646 0.7764883242169918 0.32399576509722916 -1.69753512390507
Ni 7.4852881785581715 8.62009503183543 2.5849969594724422 0.5975626841199451 -0.42259731422222707 -0.5719400984558344
Ni 1.310790221772868 7.9177620794989645 12.66981168851464 1.0649190477254176 2.011134890479956 -0.5941711419398928
Ni 4.942697641447906 6.762111438543197 5.139621939109208 -1.3728215068052099 1.022431310874852 0.03995545734701506
Ni 7.7194454205213665 2.9862033285814307 4.781107865881824 -1.2025517426109482 1.9453053935796565 -0.9192902220082878
Ni 0.18961740751106462 5.950471184199813 12.756593267379246 -0.5169025499647162 -0.6884429533412852 -0.28116889973968995
Ni 7.0203505177576835 6.679254375760804 4.144943068829632 1.4433579222628754 0.05740064940665598 0.13929517018961818
Ni 3.3194356359015527 0.48786027630472334 5.269598174117708 2.112700921549916 0.08802917292579032 -0.5413380572992612
Ni 7.0184076880140145 5.692454142670317 13.76863178399702 0.29101699617836335 -0.4082094209316711 -0.6866704348218947
Ni 5.411974288675921 1.7509706806968837 5.667218634614094 0.2552634927278378 0.7086729072349149 0.3303425332508634
Ni 3.3934204428545227 2.322939757233135 10.627888376347961 2.161894609665748 1.1264735713994471 0.3466404990799385
Ni 6.075515407130455 0.9270443411173427 7.900795624894607 1.0910417129543983 -0.14977987177102592 1.1781650862364677
Ni 6.619415219655789 3.6192050137795233 1.6920076482905606 -1.9209256791837113 0.830798250513466 1.7492322951690455
Ni 2.294851990081802 4.154186312624394 6.357112850805971 -1.382101389445239 -0.22653707132742273 1.523831394328595
Ni 8.684624734035875 1.238479949027537 10.08251293837446 -0.085911098141523 1.8251194334156633 0.5255612540809788
Ni 5.15944342827974 3.904162627754567 9.082146202731037 0.8899043126470029 -2.137703357131525 -0.08946590537231688
Ni 6.087662718813492 9.203582313280577 4.353969345479954 0.31237437880821683 -1.7650386660736828 1.3836535644237073
Ni 3.0520004959003653 5.327738741932544 4.667582773017099 -0.2620974849305357 0.7761720785281535 -1.0358283010070484
Ni 3.0060109403966497 3.147670983420768 1.2758683197089222 -0.022464756761419378 -0.023645921553714117 -1.4931452780986478
Ni 1.1918705383198889 0.21792443687632684 4.960466207189293 -1.0341591408347415 -1.8893378770751008 0.3117881672874437
Ni 5.063134582414989 8.659599236623373 6.4809007105023735 -2.7084581770300065 0.7465501418966627 0.978970668588056
P 3.8669343092377795 1.3642550460046066 3.0516332085631093 0.039578790733886676 -0.3392997424441512 -0.2702049445290185
Ni 4.37178324391536 3.7883607234616665 2.984160581879515 0.9375710225953465 0.6272836082231456 -0.04572218462746319
P 5.902881107050122 0.39403917766888963 10.061877311025631 0.3820710719734065 0.6210096022889756 -0.2175847472301414
Ni 4.054491392063533 4.968953597698066 11.09460603925646 1.0522885034456004 -1.2402207179166318 1.1777855914098618
P 4.623000381342012 6.8829832033100535 12.695606916568444 0.5076182964493129 -0.5447961910511908 -1.7831672573535937
P 7.91900178990683 5.026165307864024 11.57709855452653 -1.4493329088993878 -1.0969040852724463 -0.35683209490095963
P 2.5207198251386735 3.557922612722068 12.372784476046307 0.07526056040621233 -0.37053658897124575 0.11360265051952048
Ni 3.2251621354825506 6.11167054350312 2.4099979580469584 0.29679117965797913 -0.5078800347511317 -0.1712231292464664
Ni 5.873285333954893 7.583530602596384 8.562674236182772 -0.5641915648586671 0.5070711656965912 0.6725180545809127
Ni 6.608156058712714 3.3741401705411564 7.068739005416321 0.6065574314193876 0.10970382968574656 0.3256996351622133
Ni 1.3885311662302653 2.872177725768456 9.748208374067236 -1.9059181500312854 0.7828723733664646 -0.6087642092627192
Ni 0.3680607685249682 -0.024213209548244675 1.7587355235724154 0.05559342099458813 0.7177514724974154 -0.6243090989758538
Ni 0.8256156762995124 6.839445313911445 3.88222807994854 0.11715642930904983 1.4698580254359332 -0.17092822371386693
Ni 3.950031912845579 8.973412498077009 9.12557122297311 2.424797621216714 -1.1488748219127827 0.11302286675665052
Ni 8.883080166566593 1.1349641299707933 13.02007983721568 -0.778974323863639 -2.1184306249448417 -1.1158076070451686
Ni 1.851257701751053 7.3551278373025335 9.048402950711584 -1.2986240975561893 -0.21696331159605858 0.08197319653969753
Ni 1.093313560894606 6.4528499496318705 6.32976058348617 -0.42707283349507735 -0.08512176947100825 -0.36944104191422183
Ni 8.978944937061364 4.165047656048527 6.5401810717668285 0.6092735447989701 -0.8776830879904626 1.6758578960419526
Ni 4.42528507442793 4.9130371073612205 0.37976400483802397 2.2967721104036447 -0.4397319170199846 1.2642782730864677
Ni 4.814998217867583 2.5284448862623115 13.306044022029349 0.25759856861891767 -0.3590764108504461 -0.653731518002029
Ni 3.263546900275332 6.529674988638681 7.210455483018707 0.10100013126416155 0.11461669360633164 0.19156209791413462
Ni 1.8369640257797715 5.261071927014061 10.672720560418663 -1.2062075941959807 -0.4082713845178582 -0.06577961749897059
Ni 3.3177240954130824 2.7874796005146814 4.857260315734515 0.049571383170224304 -0.17986203586838703 -0.7635356207110657
Ni 6.076107507623764 5.6397386956254225 10.10670949509633 2.2742844708240897 1.114087281919952 0.7908006270746059
Ni 4.31097267293851 -0.1479104038566088 12.34198044788192 -0.20908827972335606 1.171525469432763 -0.09295412103123346
Ni 1.4406360096414352 2.0163612236821145 2.530699493921989 2.065910700669255 -2.1125232583214717 1.3381041579286828
Ni 8.214885508297462 8.049004854468933 12.303497616444934 0.16223121016050127 0.42757137039805077 -0.7649939504241471
Ni 0.8490471281651853 2.3888756981051897 5.09017229634772 0.7373749031552979 2.2996800280790586 -0.4225548910200659
Ni 1.2974679606734212 1.6425792841405507 7.212513032232955 -0.16362603362549885 1.3321440836905059 0.5771980044206639
Ni 5.372534844879434 5.556502318464505 7.349273443674944 0.8075503357291189 -0.3060610349956794 -0.7513020547593512
Ni 2.10426039222784 0.7186194165305382 9.4311829674374 -2.6738490715965693 -0.4079548817187038 0.5443560181899786
Ni 1.3175161133140472 7.036318727936604 1.311295357506222 -0.40518374673146995 0.5162744294624141 0.5427495929348072
P 7.433747680929686 5.430958510742633 6.043024817717158 -0.9719690404592424 1.0738927119789377 -0.19828064758489078
Ni 6.2025394660855975 7.985835133089056 11.323807215059256 -0.9652188662196021 -1.8090878338740972 -0.6734019998477628
P 4.050985046954721 6.115787492245658 9.321571288770638 -0.39884417766668734 0.825893871233313 -1.3915728192707841
Ni 8.829976153572964 3.0932254927469867 2.5329467003254997 -1.5797174068629374 1.5924883333753606 -0.5403091018141146
P 4.395180464971263 3.4664800927866977 6.775408720403083 0.04879105336077404 0.8631707533069004 -0.2112318084289201
P 8.477528334930932 8.596984609455973 4.873400605119303 -1.1693328326568184 -1.9048789101334935 0.37850083812364493
P 8.48489258481646 7.599175007818027 0.8009158341583296 -0.2525589493124812 -0.8285413361584891 0.7021795862010874
Ni 6.705371558457845 0.8799112915359246 12.218909584876634 -0.780243677494366 0.652375775305083 0.01596063709431445
