# total energy = -340865.78277791315 ev
CRYSTAL
PRIMVEC
9.23055538915467 0.00000000000000 0.00000000000000
0.00000000000000 9.23055538915467 0.00000000000000
0.00000000000000 0.00000000000000 13.50985085086455
PRIMCOORD
 96 1
Ni 7.790653475006166 8.36231100907947 3.5340280254576832 -1.4230469786196653 0.5629234967795208 -0.178042466161145
Ni 6.330979577431739 0.857299843888398 12.238236041929492 0.9107081367662316 -0.4905757391447293 0.334344712431721
Ni 4.033365080066568 0.7316581373918329 10.90297711002267 -1.5543763569949876 1.915938510381765 -0.6595573806551867
Ni 1.1105927488188094 3.044726430813025 12.773875025297858 -1.517918628388586 2.0090826359366174 -2.2464129412248024
Ni 5.045855484790642 2.8810317591743306 13.076455404497018 0.7507423256011393 -0.12834509893601767 -0.540105727554057
Ni 4.343040987295989 3.3911584101336425 4.679623040818386 -2.3273445838738627 0.939487265781453 -0.10647529544611986
Ni 0.6805633203517502 5.9987811147270484 5.932661722462747 -0.14867712562515037 -0.8745627971939262 0.07882385227743845
Ni 5.337688728194778 2.242821919782713 6.470894491932979 1.8956872163318965 -0.8848207274765084 -0.5220753524149073
Ni 6.373864738389975 3.4019304684285765 8.34847994468433 0.5135315766099543 -0.05803365500496457 -2.1701841033680496
Ni 8.972423037460137 3.344128729745736 1.9524166433179306 -1.5016641142029366 1.5136480260376899 -1.602424618652466
Ni 8.754037324349737 5.934831826066122 10.59589775806177 0.5042727770158476 0.24699996716746495 -0.06032219392882514
Ni 3.082267100123647 3.8851777417059283 0.09563224743687421 -1.3154612237181862 0.5988055553881106 0.6231665007309783
Ni 7.765380213985147 1.1203309848952063 2.322005317278223 0.10881422799194164 0.7350832789076437 -1.143220451840483
Ni 3.6474263231090047 3.7250460644989776 9.622039997366649 -1.3070359757689685 -1.7172179470459783 1.0207901757270033
Ni 1.7647991409311816 1.7133295633368792 9.771121776557433 0.365470487302248 -0.4515692759745448 0.5472672782995027
Ni 1.2358052344835713 5.57605859401172 13.002312813372427 0.12753982942590292 -0.17428839843535146 -1.386741459320412
Ni 6.725124298248939 6.618695993072772 4.5887962205866035 -1.2834309347555186 -1.8839987242503746 -1.2030654490225732
Ni 7.907244621812771 7.749254433487076 6.004318524985087 1.3297642706044195 2.366926717041859 0.3681806871445595
Ni 4.783024646838675 5.062313565287529 1.0181865805371018 0.4674144705369176 0.6110013261233542 -0.9188040264004886
Ni 7.160603446696572 0.8475413005898513 7.246940524722136 -2.230199821800049 0.24294585170274935 0.3365273219053365
Ni 3.3204708159411807 1.1188264043450142 13.207433295141229 -0.4343840224445099 0.6600638879779601 0.4139753768811709
Ni 5.776407801630862 2.5488056048030736 10.702085145738796 0.01668748795800997 0.5127569032274588 0.44473271266868564
Ni 7.758346530676887 3.2289129357120046 5.83941649668403 -0.5032229955950948 -0.7229906094091677 0.24407636576276673
Ni 4.417263884253626 7.159458857811763 3.4827993653625224 -0.9095830220228529 -0.5396614409277867 0.8097954230095538
P 8.75241274657775 6.850106020025635 13.303718142853553 -1.2008643276061963 0.4195680404776 -0.46233859867590693
P 2.542279602048559 8.30434312039722 12.772820895857173 0.9793511918559262 -1.7463387756713344 -3.8020295983847943
P 5.163092770483833 6.810839236832277 8.905950114919317 -1.304137828285567 -1.4395406053993145 -0.6699348672347689
P 6.757006637024175 0.7381426026464953 4.992714253591188 -0.033532841650122894 -0.9596745393626054 0.6810500033113239
P 4.9827000239046635 1.9124787987380765 8.811462456367254 -1.1510296634722563 -1.618478329681219 -1.0145740196139623
P 3.0529231641171393 2.881105603618512 11.671808540615322 -0.32334116223236575 -0.1419331220330975 -0.9907162391597583
P 8.873600710034635 0.7174790810534886 9.988089676339557 1.5606210523531188 0.0015385481317134796 2.202088922496446
P 8.39887323950469 0.8735290066083231 -0.19878832068026128 0.014094530419853146 -0.8495125390935175 0.7908710753012251
Ni 7.098334119140768 7.268564024089498 9.648141239218049 -0.593295681313475 0.019624716209462975 -1.118830967252525
Ni 6.406134760497164 2.5247046243334315 3.834743832441267 0.0874157077115075 -0.8260129133096807 2.1521295598591843
Ni 5.530542724729528 -0.07265277946323435 2.7653313609756607 0.6350853636557514 0.3230773670480178 -0.8805544960009867
Ni 8.266608609420624 8.238972326185806 11.423092145113042 -0.9556003692932317 2.0552370230054926 2.1882165353897283
Ni 5.711175465752286 4.732801194239931 10.053153093052066 0.08924247650760114 3.3080435480069355 0.5643520016959312
Ni 9.281969716912242 8.504360028017548 1.6467966421851628 -0.8567316825497762 -0.5715397776936222 -0.37441098432498743
Ni 2.7851724400715994 5.623014429955446 10.895964656992112 -0.9686672297795189 -0.11577446135985868 -0.5045381148620923
Ni 8.779910571479727 8.789334968668355 8.24861548754032 0.3264200582680056 -0.39963659166099563 0.16765212406575644
Ni 2.056401620447252 1.0274346741152458 5.51218130368387 -0.28683458266589956 2.7202250877579477 -2.389947346306748
Ni 5.334005736541242 8.00556849924005 5.536336744431096 -0.6339160259379986 2.0105440509734924 1.2082189681990547
Ni 4.347130123392524 6.992293497296552 11.983238253394049 -0.6537212335893838 -0.4085395505775803 1.0503936004157328
Ni 8.329616381418239 2.6706858599241583 11.158744726888704 -0.516548251949091 -1.821644330382869 0.6205583736841699
Ni 3.591221470531582 0.05325938231014444 6.651304776567642 1.4497921079239935 0.5735087284945348 1.5441261400218889
Ni 0.9802757659500215 4.7532284136115575 3.56461439423754 1.3083292406590952 0.09721546741074871 0.6811908997645624
Ni 5.660342796489047 4.919313799130619 3.2118724071616387 1.2619683940063686 -0.17617198861130948 0.5914012925042396
Ni 4.326176762356106 2.576644960259389 1.9352727325457109 0.44109845835020806 -0.19006957252900814 0.3272885769158879
Ni 7.964797135496501 4.806664099532186 4.069369784938221 0.3458789383235656 -1.0333528428833623 -0.80406160584957
Ni 4.33712420120597 1.1654314791788796 4.223490524388822 0.8063791982391533 0.5517230000780111 1.7796561588765416
Ni 7.355238940447192 2.6988021320461533 13.70614913336344 0.5282776245708772 0.0030475285770721707 -0.6027773955516651
Ni 8.382904378450505 4.693617486046278 7.554276486126565 0.22585650032063037 -0.3600408316462444 0.4313544915895668
Ni 0.8109301482203604 3.177803349783086 6.943657700247703 1.1784062557129964 -0.5870039347674924 -2.8197252374378143
Ni 1.0137734519417223 8.106089248881721 10.638939838463891 2.2940310573233975 0.39176361667082205 -0.5764868372862523
Ni 8.150912826499715 4.577238642016693 12.50708243291557 0.10906619610174764 0.8721963538442785 0.1903076566817432
Ni 1.3281292508211273 1.9825017929329072 1.1096558474332603 0.9400989312235227 -2.302771008299557 2.09763631390731
P 2.4905331077885773 2.1709158922612612 3.141986025188543 -0.791185006997218 -0.3314077412905841 0.5582592585346321
P 5.850501470811182 4.464875089639461 5.67675841643053 1.1533300294706588 0.29746326602433937 0.23809700825088026
P 8.560306425040336 6.736284039875825 7.730404716054271 0.26397901822396475 0.4048541313061931 0.405957648783017
P 2.0489617926959953 5.351506869812188 1.4173859535585063 1.1043728828456658 -0.3308600963172302 1.2928242030449606
P 1.7282553716170062 1.3366213619019662 7.613273581749589 -0.2699270082772835 -1.1708762658845382 0.605328444108293
P 1.9937815317815868 8.945128284779658 1.0785950280995393 -0.033494275102703606 1.060455098416793 2.8427312114146845
P 5.225629784149795 0.7306030848955939 0.5916629170575454 0.12530939743348743 -0.07584934303014679 1.2385443586554734
P 6.109030869889594 6.973140094587051 2.3412436410985324 0.42538259027684805 0.5316223726733941 -0.23091308890793136
Ni 1.168782170833602 8.275331484389529 6.551980306921707 -0.47664267400340493 0.46080262164735475 0.32015427986395184
Ni 0.6440887802039945 9.022941867835607 4.170626209855047 0.0610485305718884 -0.5378598689426738 -0.49451055542276123
Ni 6.734714845436974 6.737447089871678 12.174320906324 -0.25960762862914644 -0.22687131473838992 -0.0328044481245306
Ni 4.112692474228232 7.887334313550414 0.9705790673734767 0.14527529903245304 0.2009455960115636 0.3048978679255136
Ni 9.378982855455305 2.275996536331121 3.7384322161179258 1.3163773077745522 -0.8878173482109871 2.4095041853927537
Ni 2.107354286932286 7.187676666044507 2.9707619894100223 -2.475078114638821 -3.411771876835537 -1.2369531029089533
Ni 8.927396387620647 2.5047943160710733 8.766447806249941 -0.49807256174240677 -1.2469539228754074 -0.44046930940664136
Ni 6.445410774246044 6.114947655979612 7.04136128434386 -1.0900556948920452 0.07046005369377543 0.6681708333558106
Ni 6.765489517549492 0.4966398862851662 9.775161067654144 -0.06952700035654477 0.5334319150783071 -0.25960608596724966
Ni 1.9156448792823455 4.921741435233076 7.770001953135338 -0.20585537460835515 0.9205055824726276 1.2819787756900245
Ni -0.09712759743154367 5.672905582555375 1.669506577937541 2.8223271938370362 1.1660323075286756 1.0706209832062015
Ni 1.0809072822579635 0.844960437265718 12.24435590024101 -0.39754577057023793 -1.0516205308442985 -1.0030475070316016
Ni 3.9090571888430263 5.749094587839337 5.587620787859392 1.2086378009040282 -1.076926613709255 -2.2035562510705917
Ni 6.777646159172823 8.353763514665495 0.6980026089006949 0.6734570214554144 -0.12282468333842073 -0.1969506159195576
Ni 5.293585133907552 8.746191352155483 8.13122774379211 0.21980849435433758 0.5844102058983871 -0.07734109708432488
Ni 8.980555156875594 1.1482072625736126 6.166558461073412 1.2730449635355043 -0.24094090545757862 -1.012879919740991
Ni 4.243858668205104 5.0779870485649905 7.922095662593166 1.6787542437531409 -0.012987413398603438 -0.42882066942411956
Ni 0.8480785189212696 4.026663696757124 10.346492763117498 1.5915159421597622 0.15473721577630126 0.16614674316482353
Ni 2.979051028269363 8.669079291319255 9.106017790595018 -0.3480677184447683 -0.40967186440981057 -0.442357784678606
Ni 7.148262193962787 5.685394524177522 1.031821957155162 -2.55497051739009 -0.5901774473994674 -1.14911342028615
Ni 3.44414179883366 4.935430349073168 3.093066850085149 -1.9825843325357726 -0.12372174123139337 -0.3232195490528369
Ni 3.371968085202051 2.7653267456979 7.265678552433117 -1.6275643511428872 0.3130310385556093 0.24795950286725685
Ni 3.0732488473780166 6.944599216911014 7.134201288735133 -0.5191070138152027 1.5446524448390044 2.5640927914063325
Ni 2.904366603535593 9.08364200095256 3.2170738251986526 0.27704999247531 2.635189193132526 -0.6890651603063165
P 7.892051127422488 4.118904638094976 9.590602571367604 0.28457946808313567 1.5140303490777731 1.759560673678247
P 2.820728539944852 7.963403321612581 5.196037546199727 0.7452329657471358 -0.48839055856795244 -1.2628613381342833
P 2.2809533446467847 4.271162651441106 5.411087336544243 -0.302429351780363 0.2038761393947973 0.7066630758937378
P 9.232217022645154 6.839426267285928 4.077488981575946 -0.27347178820574836 -0.5941883683310735 -0.6430413852780344
P 6.591650465391404 3.3577807213637363 2.0513091229654052 0.622369715861296 1.1424385793691356 -2.3318740963131
P 5.407176350169295 8.510470655773542 10.97328163616094 2.110090994730895 -1.7431755474520043 0.18179730521788692
P 5.895260434540517 4.791839827362808 12.19781451624025 -0.5444658042949655 -0.9377072910628946 1.446110288197032
P 1.7237693216329977 6.711592303852733 9.229862307931324 0.9802279380339247 -0.9152142521667013 -0.5918293811805936
