# total energy = -340868.79669854493 ev
CRYSTAL
PRIMVEC
9.26137542219805 0.00000000000000 0.00000000000000
0.00000000000000 9.26137542219805 0.00000000000000
0.00000000000000 0.00000000000000 13.55495908455643
PRIMCOORD
 96 1
Ni 6.110109023201142 4.370072564366457 8.908061272610368 -0.20822053240642205 -0.20739932205670736 0.3308032749373657
Ni 1.4901738137407103 1.9869354638222771 1.5119741651357477 1.0842378026586874 0.3575754008248874 0.16474523483160658
Ni 2.039854962471855 0.036447216483295374 4.597584732370647 -0.9913129922034927 -0.5388070633472914 1.1198648078336777
Ni 4.744834117193755 5.704201465130839 3.5212258389590785 -0.6009043468986683 -0.21014423179169614 1.4824461465135887
Ni 2.3008312579647607 1.6755309796442206 9.755734581763125 -1.2129397707134917 -2.2570997315146872 0.24640295701341433
Ni 3.0222460894853924 2.0706119899508977 3.7107784078881854 0.76376444889242 1.1611569817142455 -0.8498087301776978
Ni 2.3582980919025682 7.077774563436095 2.5203277056187217 1.3935481978296 0.7413647410409813 1.3324713851229375
Ni 7.015899314840044 8.804919187808018 1.4031141072031483 1.3673656258969613 -0.4077617918712913 -1.0438144045363185
Ni 8.072650024397763 7.977368994977593 6.017642525744499 1.3095937091938155 -0.3155383783584953 -1.0839832634457203
Ni 1.373869462315894 2.441650469894553 7.469175103185659 1.1074723477065957 0.37398932340653657 0.5701462397802052
Ni 1.3790836166280593 4.534554590270641 13.017206626773183 -0.7266983972780581 -0.20898903514133038 -0.09760961752537382
Ni -0.07338621199674346 2.8627096380087327 10.187270217653364 0.9665674098276966 0.5694695254281548 0.35974695455490946
Ni 2.331551239942473 4.809654483145522 7.1992958475856765 0.4696207341596171 0.30683776526070383 -0.8603530813524473
Ni 7.045971000544486 6.048298604232418 3.076568686497835 0.15165703418908075 -1.4271936537981873 -0.45490245411283586
Ni 8.557445977549815 4.457722220512696 2.1835683541930364 -0.604384849248101 -1.0536398752671725 -1.3206401968159642
Ni 4.116801733150144 5.840991978791019 1.1887688365090925 -0.3134652978795505 -0.9047596324922805 -0.4881061945583143
Ni 9.01890326486411 1.1679705659250257 6.674394434694015 -3.5807596889935813 1.207585962600746 -2.3274186316449073
Ni 5.73369894556467 1.6102290221751663 7.040120589746982 0.22511782238239295 -0.059581716218374804 -0.08897431044787903
Ni 7.0596870974118335 4.074301281749563 10.955944921357917 1.9254500494166258 -0.18443217173757268 0.2888852945473412
Ni 3.753292751351764 3.602073014923638 -0.007725839302323779 -0.30578387007489277 -0.19569283225305653 1.0936611528551166
Ni 5.106361164670991 2.8943001892676947 11.157289999497824 -1.5602754960882417 0.26972363401722577 0.8207146410252188
Ni 7.586103671307882 8.505730457693454 10.556371217877473 -0.06655274821956926 2.0004427008734322 -0.8436848766681471
Ni 6.669588707034011 1.6797171212944848 9.872185262918194 1.1821235566635835 -0.028694796831531224 -1.7369768748404601
Ni 0.2595305948035112 4.386631903460865 6.140464106990756 -0.19541258200847633 -0.6116582429810627 -2.0034069257080787
P 1.9818417073894337 6.3770033375314785 0.4087470957472298 0.1861733227983955 -0.01352837350373799 1.2645117292535126
P 5.3000535683737 3.8818035954647403 7.0428851102837156 -0.05813495646951923 -0.05065716003523534 -1.2236041924058734
P 4.112680421127207 3.9466980524191673 2.5577668154001216 -0.43986792837721667 -0.9702962807425095 -0.18745681749650944
P 3.325787666006205 1.6017548637459813 0.3806517875387313 0.09469527209205628 -1.66026107004496 0.1559507764684282
P 6.630357521125783 6.571751538022085 5.087691158138321 -0.39880098313357765 0.18195491384167375 0.9703770133817742
P -0.15490113312277196 4.884078895317033 11.356290097403557 1.2894992524367859 0.8951617043912004 -1.956966117747036
P 9.313702103071096 0.621652222577091 0.5998842859957174 -0.9219096619090058 -0.35317752886750786 0.05008457536121697
P 9.099153082119727 -0.05097460982976514 4.560091906612319 0.854638033245541 0.7193332151622386 0.05238134181519366
Ni 3.2836391468682575 0.5361780634964431 11.907895759928781 -2.115453030373757 -0.29800268346757713 1.5262718854492876
Ni 6.187543382355695 4.414434552208858 1.5851436609497118 -0.8409132274602807 0.25470607756247104 -0.5035230433340167
Ni 7.356319687934644 3.2077977442708834 6.051014965617424 0.4056372893291208 -0.7207820317936232 1.0982505719980118
Ni 0.022502363645236258 6.891759839883981 10.309765798487918 0.20211930460469063 -0.9475633579213681 0.20455928150475094
Ni 3.807193955786581 2.912415439417953 5.8552952468544435 -0.4300864235104206 -0.22232431879765582 0.5789453261290739
Ni 5.206948962156653 9.059755191455515 8.642181078878934 -0.5196677714146793 0.9202952662340343 0.8880947702420898
Ni 3.4767943908016847 5.58060841131939 12.3066831726435 -1.8616018446124132 -1.0915093966194362 -1.5388602636372595
Ni 6.330464926485953 2.0846614963302135 1.6757856674658629 -0.7498928331166504 -0.9070764535509152 -0.1508545928924434
Ni 1.9871206913289259 4.851219535637526 2.1877841322443645 0.8991885661624064 -0.9493320197860166 -1.5595311617230496
Ni 7.003174185133268 0.8819320626449968 4.795338249156631 -0.06260301954320185 0.5203318873612393 -0.04289834202542289
Ni 8.080790773314982 4.798568616872588 13.121552690368746 -1.216243381165428 1.416404019381851 1.3604352173257153
Ni 8.80571566608661 1.2100079485589834 11.958794426480821 -2.3185069309775748 -2.34547806024978 -1.0156407703155799
Ni 7.7858530144780085 8.039318334576302 3.4603369268359336 -0.13991043517611387 1.1027587442810105 0.5436204255755348
Ni 7.353291218200935 5.363947796792223 7.044173367592459 -0.7647977752529409 1.33093309410154 -0.6899087392535345
Ni 6.667495636208879 6.426079365418092 10.638176020051407 -0.3266031208130891 -0.29644459495183784 -0.4656982591767592
Ni 1.1415293393509016 9.04202891906922 2.5356858443325114 -2.7714247505602136 0.19160657799882486 0.14796158761536454
Ni 4.200302293147448 0.2921056302603122 5.190519282316899 0.803135751601191 0.11875257015157611 1.1889431506885781
Ni 6.487537852124182 0.8377840125727751 12.044895580671476 -1.1133082376620826 0.3551300246081884 1.2609299254395252
Ni 4.375777571571242 5.838287657193946 5.922324450822998 0.9410006171021859 -0.4318759113106756 0.19924686815290202
Ni 0.10956947928306422 6.67739604643926 1.8196852128312258 -0.7008233292835092 0.7512280069883063 -1.3128803503648871
Ni 3.3958314476454694 7.818184475763566 7.023963194342002 0.3786155093246383 -0.4335820953685049 -0.06146736327686188
Ni 2.4739819311801114 4.655619288616333 4.629668914934828 0.4921793361864234 0.24282758095733017 0.2632120581509531
Ni 8.883659400884447 2.877509315789976 0.2894976269666963 -1.0535923098586888 -1.3789852124137605 0.8498547529242848
Ni 0.8804900665057354 3.298309165394847 3.391559175204614 -0.6766742428411314 -1.7792301270827164 1.7136353719010424
P 7.974859162262501 3.174484577200087 3.9207449003250625 0.7115342879431101 -0.31516942505485074 -0.28656847348870645
P 4.705686283663519 0.7674234918971408 10.55056989236923 1.7209799851915715 0.617517272865001 -1.6809592218242597
P 7.107531362379233 6.402092403307066 0.7533184172658305 0.06033967743032189 0.4331794606134475 1.137750686975163
P 2.1380348023710813 3.7643786176246983 9.045427843816226 0.09876095752099766 0.023716369780333348 1.5308034547710538
P 5.713222044704637 7.025836770571755 8.374064263004714 1.9352737203752668 -0.027109454622282345 -0.16825556197771022
P 5.278724620983085 0.6211354378335406 3.377516151788031 1.1787003899146473 0.22745546937663405 -1.1006416979380078
P 3.31723941657436 0.6149182765728718 7.542928065645567 -0.04926902143845708 1.6357389165338798 0.12818851875349535
P 4.76835801053816 5.2618781792533715 10.561549252825841 -0.14462069616758963 -0.7749855144192201 0.3978355338965149
Ni 0.12720591632863504 5.064777589428323 8.314082965664149 0.48998361408668517 0.3992308715821447 1.7016645726924113
Ni 0.11256738647817595 0.46464690497878797 9.033783516610745 -0.04843624112451658 0.8996073988673796 2.103155443953326
Ni 1.6278071125561429 7.383511085910696 12.07077186335032 -0.7400853601079255 -0.6460865998622616 -2.0202522794001916
Ni 5.216108462360439 7.535453209614753 2.2756338340977837 0.26737364572781047 1.7740506397643059 -0.4916064944020888
Ni 3.423337732382825 0.14906090983813353 2.37890928270492 0.538580292048466 -0.2599518993424426 -0.8542647090665224
Ni 8.311195268835494 1.1694523859782164 2.5523174221545117 0.8025377130058758 0.8981328712043822 0.8305419115282858
Ni 2.2921255651522645 8.204439395378426 9.469481214575383 1.2540509389315049 1.2884253026463166 -0.33016615557399914
Ni 1.148734689359542 8.988618567527022 7.27032411342278 3.18375873518322 -2.6593886731968652 -0.8399457213406889
Ni 8.297108716954847 7.611026032327485 8.244153098941474 -0.40534829733379224 -0.538126492340499 0.5396889517316125
Ni 4.134213118775136 2.59435202637587 8.819046489740126 1.0541980617634876 0.2720401979655444 -1.0937526841276581
Ni 5.036836020050343 0.10367554002149762 0.43385746268608194 -0.8415197506960281 0.5785992556435647 -0.26355324354045584
Ni 5.932892606214849 8.411681191192498 6.495753618181593 -0.6908952715365199 -1.096667029560976 -0.0797219386116756
Ni 1.0217241880504215 6.794580228520659 5.943185698759326 0.9520278214506247 -0.03795873863196043 0.0942234746619603
Ni 2.3123709316289847 5.8079196074788655 10.158669238351713 -0.38958589229321294 -0.8025605958240113 -0.43004271475667877
Ni 1.9294408457584722 8.621266114965678 0.39994415849374293 -0.9446148168160055 1.944777288990328 0.8974157905326996
Ni 2.6823999216614034 3.3364012021371843 11.321291360022252 0.576116341320711 1.5574575670234725 -0.9261098160332825
Ni 8.144388637722866 7.372619708519744 12.566436040454992 -0.18931341108927396 -0.26242967145897383 0.7808113770723778
Ni 5.516065886627596 4.968533376973578 12.77931708770899 2.3205386166956226 0.36722809342330304 0.12080482469491453
Ni 4.121358329813706 5.731661442991532 8.475806953994333 -0.6257298905827805 -0.3973845624020253 -0.10405974402609176
Ni 1.3425289681909076 2.021443348310959 12.539936467216274 3.2500371466954805 0.31314313865344134 1.2465818842479692
Ni 3.698956262276322 7.58370497509678 13.08511658753585 2.929288170670323 1.4178474366965967 0.610647028107729
Ni 0.4268549367972219 5.591499788710342 3.8216583717807904 -0.5601397633867966 1.0780131619052145 1.4800758465091992
Ni 4.252221563261123 7.686719252919541 10.685577591277914 0.9533084879352616 -0.33594779525278273 -0.06890273650898456
Ni 5.8924018732614085 3.196647048370622 4.215591897683778 -1.7425448558465408 0.01233641007816585 -1.0500267039946176
P 3.080009287433838 7.261640647911082 4.823939228458281 -0.45951835561829246 -0.361681452573461 -0.5448404140255649
P 8.05189528227776 3.244945120729312 8.456111713212358 -0.6301606726606244 0.5497895305007241 -1.2635586213116239
P 5.9611953692307935 7.936276272627544 12.247894740445755 -0.0019807778754546528 0.6301172210171987 -0.004641869647385554
P 7.4791440475935005 0.39078280601489046 8.176758070647287 -1.6937226921375153 -0.16649024254717132 -0.9770374561210851
P 6.6375721325097565 3.050400670496018 12.845817467146063 0.15516041935664893 -1.2294927899761665 1.4346408541048519
P 1.1397789394130697 9.177633976686847 10.868148935481425 -1.314293171552014 1.137954575455853 2.123299265891053
P 1.7120671053307073 6.793468863480766 8.125194437346378 -1.4952813506050442 -1.4697361551460884 -1.136940532369042
P 1.58537149078289 2.294061192596745 5.293753980872572 -0.11136167700414369 0.7967383327152794 0.33953576971435717
