# total energy = -340887.57811079314 ev
CRYSTAL
PRIMVEC
9.13886036841510 0.00000000000000 0.00000000000000

0.00000000000000 9.13886036841510 0.00000000000000

0.00000000000000 0.00000000000000 13.37564591934411

PRIMCOORD
 96 1
Ni 7.018315653958448 2.42553575350076 11.320169991894264 -1.7278263186894438 -1.380703737766764 0.2826598824629196
Ni 4.808237669126173 0.5105543069971233 5.735276339278708 -0.14191409586970397 0.169984628853675 -0.49555905129193356
Ni 2.7092790857716764 1.5967599362612412 4.513089953180274 0.3659487124902472 -2.135068233501523 2.133440210979797
Ni 3.698615538307115 4.815265452639325 4.648090110312431 -0.05589501139540696 -1.1212945983016689 1.2759703647124154
Ni 3.476084291824353 3.013520881527637 2.945410784041529 1.0228655701987932 0.5930015471118238 -0.7163119118374115
Ni 4.990137543047854 4.77425938680901 2.4358251962282735 1.0635630479181555 0.29689633777727575 0.037777732969405904
Ni 4.815658423629007 3.013922991377544 0.7379117855647953 -0.12201118629818986 -0.523506428434479 0.1169034327579793
Ni 6.00434997311619 8.03308555450052 12.246741666289292 -0.7718091735737675 1.5461439417828662 0.4376503519006076
Ni 2.057815434620805 6.944446246758441 0.20855427365439547 -0.060270514755283305 -0.11388007255062324 0.3023229081094858
Ni 0.9011135514657882 0.057586699936830854 0.1368142208868519 -0.20331049669931436 0.07491089037627743 1.2257955436302375
Ni 7.982474546573559 -0.07121365441857407 7.233334757336125 0.16712736191053798 -0.12495021432185578 -0.6697700595221303
Ni 0.05105698430595062 2.263978982440297 1.421684049269692 0.26118962840428567 0.7250798878380287 -0.6283968958919823
Ni 7.128310975628532 1.1479962049045247 4.841154015885172 -0.697757802984308 -0.8891710340254042 -0.4212577694751971
Ni 0.6594939676307239 7.5171420616286175 2.2557092278225452 0.343092376717364 -0.8988450667800584 -0.49127893585934107
Ni 7.693777952060603 4.208646188613336 3.2803098003088276 0.8064154507937273 -1.3769021046324867 0.7825389012864459
Ni 8.023233863177792 4.183486906413457 12.612364616747572 -0.056669941888218535 0.3153450314007666 0.7471450951681842
Ni 8.653906607316415 7.405657105741832 8.927013220171261 0.220617106298562 0.0778036385430402 0.45623942775670456
Ni 7.278425893687088 0.89595009543857 0.3274033231106184 -0.9344671868590423 0.21685686792518136 -0.24694803088360695
Ni 2.3574512448232823 6.842812982194383 9.016549375455268 -0.6734228257833692 -0.8913582714847101 0.9320850597801109
Ni 0.3796309954114127 5.042293018352868 1.1111245594400747 0.8223768592189902 -0.5600760000283966 0.19931628793825673
Ni 6.617914770913304 2.2868352718634344 6.98351852976511 -1.1532595812440396 -0.9191734939247654 0.5987610753034204
Ni 3.550419780895843 5.195103900177849 0.3917134825151031 1.1054342342306445 -0.6093907871031247 -1.0047318367125597
Ni 6.0861153555507395 5.88206288444326 4.700830472671856 0.9409355681922054 0.26913228029013003 -0.33829984042472705
Ni 5.554142301843897 2.7696778129997903 9.430566246349887 -0.5220586402443589 0.06274802976149838 -0.8846271234084637
P 0.3895430032116264 5.995997054870389 12.43935045662282 0.4368455966111251 -1.2896748587827016 -0.6713924256169017
P 4.623559581696043 6.318653653980058 12.194094520304162 -0.6922764681547626 -0.16996843090375888 -0.925955035622973
P 2.8063337813629263 8.657123486115673 1.3557691060096684 -1.7171991779929008 0.5528162331421899 -0.4997936581985714
P 6.535884361532224 8.147385279336657 5.640991632221706 0.8223310935827192 -0.059079322660659545 -0.05932614856414299
P 5.0536708993331985 1.3246229564762844 12.631545256588147 0.5849735346010247 -0.1483253987126865 -1.126731195936208
P 4.37182967679388 6.4226173279015315 8.00442791660645 0.24448697093762412 -0.5620061271715739 0.6757661292045652
P 4.590869878670628 1.2582108592200119 3.4453119216741777 1.929180462993336 0.31804391838916835 0.21572018321757688
P 0.4684177641569561 5.600302684841205 3.440002243883357 -0.6019055344696731 0.5565453611673189 -0.23074750986434456
Ni 0.24249417275861243 0.20020958038279751 5.262888654239941 1.2595052771778568 0.5121005005903826 -0.7411325704255171
Ni 2.2583403056813705 6.889585668826777 4.4471613016299125 -2.5585029560233807 -1.3149326049082257 1.4721735609429871
Ni 6.501741579731009 6.3332301360391945 9.131633214498724 -0.0974329827381935 -1.2751805218212686 -0.13822404861262647
Ni 9.205299739001733 2.8992759898528524 10.414705429075275 0.12103622397943026 -0.6427657630191446 -0.7563684135386651
Ni 2.5959754967000834 5.835747140822125 6.762097654799706 -0.31566539085466283 -1.740318280508867 0.3829997544352629
Ni 0.6727416594131228 0.30890261447079487 9.363968630231042 -0.11475244785324752 0.6001970364189985 -0.5673257396122745
Ni 1.7316038188835479 1.2723943702894676 11.468920478121202 0.06453777467206949 0.5104133426959467 -0.23078453374986707
Ni 4.424661427755557 7.199438724760989 1.5201022628065368 0.6537790834105127 -0.19785255890853667 -0.9462495242059512
Ni 5.756814805057377 8.174948081775755 7.747722816197705 -0.35788624719708684 0.7862934832328716 0.32940433770731015
Ni 5.819699302266736 3.3559813907452374 4.78894919073494 -1.0590649029374857 -0.6118911849274752 -0.37915441254724375
Ni 1.098819998032913 7.73608173604289 6.947203440888373 -1.178579290955751 0.6042362394853786 -0.6759044545546424
Ni 5.71484915890342 4.741359489998417 7.138930331210173 -0.4793942686066131 0.14840407446942183 0.005197742150855565
Ni 1.317878477630113 7.7780747987775225 11.45090321518729 -0.19080053715776174 -0.6599566729761344 -0.8165029169367164
Ni 4.849591011645043 0.44380133025445223 10.350542405320414 0.626446971254463 1.5756710047077056 0.22979080237803004
Ni 8.376441672020187 7.457026639067484 4.3352203166178915 -0.3656720617900928 -1.084320592180481 0.14181330862578156
Ni 7.57775098264191 6.556821490308077 6.775219230310997 0.5321479061595609 -0.7027449717862543 -0.2113333670037909
Ni 2.497029057042224 5.572547966337379 2.599503096746997 -0.289308755238005 -1.1276981878351675 -1.7685219966365928
Ni 2.7781221198478425 5.565876598373008 11.282637606835534 0.09096203030186914 -0.23188316613068452 -0.008412906654043576
Ni 1.5288216493473663 3.4176047252435233 4.126051911556365 -2.029442687650208 1.558266178967697 -0.3437791183717434
Ni 1.341904541162071 0.5630195896637719 2.7555034407905596 0.4636110376304273 0.45667420130127806 -0.06483319442530125
Ni 1.2725040366121698 3.734969924282821 8.342898399449743 0.4397301172477718 -0.28399582766552384 -0.009756565166131586
Ni 4.023748768537803 2.9358314307535114 6.662021652018017 -0.3670298613695679 -0.09383189565049647 0.009487113554828822
Ni 4.349073914833219 7.095319690215687 5.827126453971728 0.4293559731022992 0.9514958602065547 -0.15615183673564076
Ni 8.221199853375312 7.508825698823717 0.055477450996862826 2.7074847573731438 -0.2370598252356175 -0.944537940831483
P 0.5724700850226148 5.835829390564151 7.8463411707734805 -0.2959355165259033 -0.23071125730977043 0.724390575080488
P 8.76264990513565 1.8659724807741456 7.841659332680129 -0.008732237666675285 -0.47743508799771317 1.4546232107640498
P 2.4177494445889196 3.441055040581296 10.301373509536983 -1.7000314079643626 -0.31341824669169893 0.7292877552717891
P 4.335164569570518 6.542637979238622 3.540680497553885 0.5769645482536192 -0.8940659002238601 0.7313284398509018
P 7.311097318992052 4.212813508876012 10.031627255586928 -0.10516428994418019 0.7297675231216851 0.37722505673501483
P 7.180466450933547 8.1691905998339 10.419280342503992 -1.203888973365133 0.052872936739631525 -1.5420299196144927
P 2.544615102234657 8.695004061748982 5.4688063667193765 -0.8361039789970957 1.442133562937471 1.609674358236344
P 6.695531110805628 4.041176574987192 1.1346735744682794 1.0765792576721653 0.12303140003258811 0.6927387525031617
Ni 2.7107321645474776 1.5920991175464074 0.44020884429993995 0.02349936867352082 1.1432055394421472 0.3239479425784291
Ni 1.5888182667255732 1.4059953679211519 7.01817491551098 0.04411138849691758 0.1530999372831944 -0.6477663015575296
Ni 7.193343104990804 0.95446256191621 9.328308797632449 0.21249216319858244 -0.4738591977209968 -0.27623675254539526
Ni 2.8604541116163524 1.5966137144976387 8.966725223393693 0.8395975939726509 0.7644707309308254 0.9924013401716649
Ni 6.575245432522008 2.0714414752165253 2.5316753900418467 -0.374296056013678 0.4711801082269369 -0.20056173030958363
Ni 4.536466243750223 7.339043953560606 10.18838978057327 -0.45637749599646565 -1.1920007065679794 0.011238806138612901
Ni 7.477232659025323 6.253822579542739 11.430746545074667 0.6241052104951639 -0.7899261948894525 -0.868664172321304
Ni 8.058327086442425 3.955837898204603 7.951379574657435 -0.14801018146511286 1.1617861306578119 0.2508753909624712
Ni 3.4357088073495743 8.845804394324425 12.446854374753704 0.7611786904431148 -0.5694127040482904 -0.37784083594214285
Ni 0.474761047039243 5.285999003977337 10.158883142564282 -0.1578896453623539 0.48135190655361615 0.3325703941401176
Ni 8.667514370191686 2.667733827188077 5.78663856151618 1.966991106083206 0.00134700094619768 -0.8554145064002494
Ni 3.8224196777774226 3.001640363234923 11.867822588089421 -0.6332956187451803 -0.6270007868754041 0.024661250192105914
Ni 1.3934842682729012 3.7108981664497365 12.398902775152264 0.10782075373042076 0.14943508683709747 0.7478912293055894
Ni 3.149123289548632 8.611666795355703 7.698995327363149 1.491864097393379 0.5537999372116978 -0.5249729856776766
Ni 6.13440509298051 8.309746270096934 3.452588282185454 -2.1062181420390504 -0.6008824925217974 0.26997971589208986
Ni 3.480525777893783 8.475899887850655 3.464586691775073 1.0559415268171557 2.09372129512362 -0.5309664842569501
Ni 3.691606032514414 4.31807490094946 8.875757922598424 0.6958359033712468 0.8492963093176534 -0.6487492342960892
Ni 5.53512433371533 4.3598394921784625 11.348539755691242 0.431618800994547 1.9030655110738388 0.1759580728282905
Ni 8.002625733370046 9.138147394067222 2.586461943205687 1.7522826519595953 0.42573585985120865 -0.7284068953287327
Ni 4.8341371990042905 0.42345457184914537 1.2179797687367915 0.7533360544702445 0.08673976469040545 0.7316824807562108
Ni 6.228763824805337 5.988594578088006 0.15632111803746615 -0.3042306666551599 -1.020109604720211 0.32481157613030515
Ni 8.603359571411028 0.012522066280520787 11.654842364427978 -0.7542642227114688 1.0372200391482524 -0.7521440910446724
Ni 0.3447735547405891 5.181578387044604 5.647758958218441 0.3302209200713345 0.2855693428002308 -0.075819775343792
Ni 7.66287946563932 6.099668285264659 2.057455363527933 -0.5257286328967784 1.4305443154379751 0.707645237301349
P 8.861185096083377 1.799277078850893 3.574962190030523 -0.35350277341741054 0.668435656981423 0.6523127832776314
P 2.392416524044763 3.657015446562165 1.2695119737744507 -1.5312626537956597 -0.5080368720439703 -0.9996161127525494
P 4.8042531260680015 1.1291244585395592 7.89425255938993 0.43682554200646706 0.9698676778455233 0.8239269773149294
P 8.707807604924437 2.051564454226792 12.526144953839278 2.1430273404475995 -0.15725509710214855 0.3034315677926323
P 6.691985233038264 8.058820584894585 1.1713249734013027 -2.7053168031875474 0.11398574489055208 1.920267733884738
P 1.9058544667967647 3.572544961500967 6.285430241517493 1.2062731573265937 -0.3797182554705138 -1.4879081980694244
P 7.464319449527165 4.385894382680408 5.707027208436701 -1.6570744447868622 1.015207282322587 0.41642255287008284
P 2.698010871114048 -0.38188463834293834 10.087644813223099 0.33636302841333043 0.6257080362059095 0.3669457862961939
