# total energy = -340861.66264051216 ev
CRYSTAL
PRIMVEC
9.36429578882792 0.00000000000000 0.00000000000000
0.00000000000000 9.36429578882792 0.00000000000000
0.00000000000000 0.00000000000000 13.70559344447334
PRIMCOORD
 96 1
Ni 1.7695802918983679 2.0966938635924044 8.032368706903812 1.1808138367132244 1.242366817725357 1.2276359392730858
Ni 9.178133341599654 1.1027768996042746 7.772085303167775 -1.596993934555198 -1.0658477301872742 -0.2631544654401403
Ni 0.5996126989579242 7.306042106459141 8.532348110638072 0.08207475511456833 1.1532806642899625 -0.46664416802979636
Ni 7.200721874555935 6.789404557394338 12.244275264942342 0.256193717851591 -0.1290567802910616 0.9831494825560938
Ni 8.389369364233332 3.635987399647999 11.803024040667577 -0.570647862006972 0.7556567321836212 0.3939408268277989
Ni 6.055019044210636 7.111714245477959 6.241225251672688 -0.6447581108588251 0.14131400039185985 -0.4713366884094592
Ni 0.0058161639579516235 7.259866765166823 13.911040273993613 0.08942990992805888 2.112354336843775 -1.517886746709386
Ni 4.2891282847537955 0.7145341430750869 11.577196562359463 0.08278540802834775 0.5371469020360492 -0.023349473359217852
Ni 6.4802142473578765 9.493522815281526 10.597959068054935 0.08875962333391164 -0.991155640690022 -0.02549505894731093
Ni 6.162474335496249 4.7538782722487865 10.76083694247553 0.8154333380216213 -0.21164421337599035 -0.6193705240236559
Ni 2.10844605449118 2.2320922127600467 0.3010143436032187 1.1296889930129512 -1.7501722904848118 0.2632074301652629
Ni 0.4970605528154168 5.34675055127927 6.871696113713268 -0.26671647175978586 0.8059763063737797 0.5042110705399768
Ni 1.3304322884011865 3.804001590170569 12.477462143112884 -0.6662466197499042 1.548797063134997 0.21059828860997926
Ni 7.674087013944849 8.765879594884371 8.511022800411952 0.7118379352264579 -0.7545197903657006 0.42023292775510857
Ni 0.5666344593657198 9.134879660514839 10.2113934568564 0.8429981350137675 0.43417936263287166 -1.4786414280555178
Ni 2.366067189006084 4.258198016595505 5.591443339375968 -0.45158984479983516 -1.1421030504065879 0.622181768220206
Ni 8.625377704649134 8.741008025938438 11.941422710125234 -0.7218384980825955 0.8352164341858196 1.7086006376906124
Ni 0.6454218962947518 8.355152228341598 6.186334560524202 1.194395432052401 -0.7789853796072326 0.8678725296579439
Ni -0.0744704966865337 5.13915348352234 0.768782443549744 -0.027212555859049907 -1.4039940757532723 -0.46828530317764516
Ni 2.5573516539377823 7.8445359213070045 3.184289367272301 0.8973036904348677 -0.6590048505858264 1.0888580750395183
Ni 3.821700108735258 2.8266032435094823 7.270474639150991 0.48740222651275417 -0.8856337102961069 -0.38167872163099426
Ni 7.3657207619156315 4.8481579997140205 6.647953127591663 1.3961522111113502 0.12138229446493934 0.7359104027946294
Ni 9.29342654824963 5.287231088846907 9.38602913038421 -2.4107853660980223 -1.0606219630119604 -0.8712329614897446
Ni 6.54296439175046 5.29344898108339 4.399413466150652 0.3359061433815699 0.8387031071828395 -1.5766778487056652
P 8.115295162460141 5.529447957203655 2.567673916908077 -0.6292790413866195 5.425027670313238e-05 1.0446507843946848
P 4.826076990838075 4.755498295376666 2.030840391658901 1.2465829126892338 -2.4068230390161647 0.1196974505633487
P 2.605699511794656 8.079795118079858 7.8292927210320835 -0.9119602640057778 1.4095044640485404 1.0491674413181158
P 7.060931670781499 3.703101305760766 -0.10357566364468769 0.6239239477222932 0.3981402096211272 0.31896540176217325
P 1.0164661876409191 6.390326374499435 4.99542840276331 1.3421155930809208 -0.859242879007404 -0.25935000409238557
P -0.2930200445033905 5.750201860189893 12.061716450591899 0.7733631483244487 -0.32616911859946407 0.08294224532118619
P 8.843959091070817 1.5882500731223652 11.225306001104414 -1.1011854862566197 -2.0562376963558653 0.21569575773754462
P 1.6920626534441356 7.260138329737392 1.5416598935377626 -1.6543274781693444 -0.3053897199602676 -3.5756694189548677
Ni 6.957409383621371 2.363201714571801 9.923576214953297 -1.2773921847606067 -1.0629830070449693 0.880515158122619
Ni 3.525338883584312 8.61410309282274 0.3851413018473755 -0.30131529278057784 -0.6149464268140312 -1.005603697794552
Ni 7.476846857051699 3.3118142167525404 3.0169025845507016 0.456362326487814 0.32276523512423766 0.539813907345251
Ni 7.499133880429456 0.6977420883183669 2.960243914404854 0.305776413875725 -0.296189027297606 0.6237005188575774
Ni 2.992370003103203 6.396562995326993 6.720783936129689 0.2782316714882369 -3.6462721688740944 1.1344344781177367
Ni 2.1360332691428066 0.9206235592505809 5.8747245165210105 -4.4640066442250665 2.3282598965992802 1.0561986371332843
Ni 1.754569326152761 4.571471159486043 10.181939938104277 2.314896073697865 -0.28307768672662864 2.101277253094007
Ni 5.066130706925806 4.7355804387697376 6.430855982012575 -1.2961725506919033 -0.5097793086563736 -1.119811328887923
Ni 6.380278485388371 2.557819868714626 7.312961384431337 0.779627898287238 1.49597297735543 -0.6801043515686029
Ni 2.938965425656418 8.066544639895183 5.4105569882084135 0.3236065000786104 0.4050068548339735 -0.7247669845833002
Ni 5.5130978971962765 3.039622238382263 12.34328489808325 -1.6764299664953388 0.9955604546259371 -1.2524727958111075
Ni 0.9148757546500486 5.287895953830025 2.9768955047285206 0.7144398916256792 0.3454199964092761 0.7992814108521072
Ni 2.9717872815131567 7.3090480453264774 9.930935614815725 1.0455241881385735 -0.08348346253663687 -0.76479983213547
Ni 6.329477182100836 9.01291907544261 13.19515579950211 -0.243974807187896 -1.5794960348807507 1.3102421414110919
Ni 3.5605673633940267 4.006879052976916 -0.23964075065455515 1.0793534779831926 0.5862603717332484 1.7101682392880482
Ni 5.233517489647406 8.468366561382389 8.809297151141081 -1.0039571633300646 0.9173886341102008 -1.7554204262576283
Ni 1.5169035054269322 1.668436535804606 11.637309721128863 1.783102722664245 -0.7606562422807416 -0.6603801336667983
Ni 4.740337500902469 2.501624731197853 4.7473710232802135 -0.5076128971326742 -0.29160243636818817 1.5469044740979745
Ni 7.176721185094929 1.858578556680806 1.0301277583996629 -2.8505381090536135 -1.2074581787736303 0.4825873216226141
Ni 3.407938710438539 5.516412857816329 3.96746754235088 0.47561963205552926 0.0966624231207561 -0.23231459724114828
Ni 7.195365497508844 6.845187665907489 1.1358506550109553 0.1399765125273589 0.7332138297990728 -0.39005100485508953
Ni 5.578104836813247 9.342982400230762 4.5395529581486125 0.2504804695168977 -0.6853805123658777 -0.6602639198039081
Ni 2.2562240023585676 5.9721450287093125 13.358677001026088 -0.40779213088859445 -0.2132141289662715 1.9700535470586136
Ni 2.9768908225807524 0.32030572883873015 9.303822789154667 0.5367033867407274 0.31533294721590854 -0.1529240738269624
P 0.42524202462492544 0.22812079428509438 4.24511515930094 0.18329420147838754 0.4338551465242334 -0.2465903904338721
P 2.4846098062073554 8.927703986057068 11.560366113991043 -0.6312863016246354 -0.24942323189697688 -0.17816613622320285
P 5.13792676080701 7.4153140710789085 12.422598608421453 -1.5263983837248227 -0.48773749836498587 0.6077941320399661
P 3.991615251251813 0.4323682535284855 5.866939977641208 5.044077856428468 1.1069627550600292 0.45869688815826165
P 1.8663790148630208 3.868193836075831 1.427423915853899 -1.0399988874449702 1.8519152134522685 1.004424075664154
P 4.860453319753934 6.0417966589125705 8.075869605390801 -1.6397781196002597 0.729621227351808 0.6614970208800608
P 8.113740689401022 7.211893479131424 6.949325187284389 0.8748641304844289 -0.01036257418124667 0.2601012804361133
P 6.6761246742847895 3.3494680491063056 5.24460949771083 0.21325886616127787 -0.8852225909006173 -0.8035885228678934
Ni 9.398943430359113 2.7635721702507925 9.67006319689042 0.6830729472786237 0.8763409721402714 -1.5451152434080357
Ni 7.10446628073242 7.748561256349597 3.2550235100396225 -1.5267786498823772 -1.8228905440851446 0.2194287424174156
Ni 5.182154328627658 2.5133956506877015 2.5183886930679624 -0.48050215695881116 0.1736250538197397 -0.9899400231153662
Ni 4.709669433019211 1.3590027540841851 0.12790223059037556 -0.3190744165362118 0.3274675256959135 1.4220910424642992
Ni 5.716387389006245 5.53324049689609 13.69111979331016 -1.2127340824605888 -1.2060037057152908 -0.007153066105013487
Ni 3.838640119361461 5.558346173230444 11.500267001664946 0.5036086610692875 0.5255864508919593 0.05522832434568553
Ni 8.061796942057988 8.558741377608747 5.117339357069194 -1.6996547413512342 0.6492801670988947 0.3030479592009684
Ni 4.26009896858949 3.728665832576428 9.442481786028248 -0.18524026946116484 0.2351448676010918 0.30485698738524913
Ni 2.9814418702116723 0.6091333782302627 3.7645704145239054 0.2891346915539859 -2.257975192141105 2.8530243658105765
Ni 5.7359962238604565 7.030254238602703 10.374174879032967 -1.0277254693942557 -0.22782853644533665 1.0460954872610113
Ni 9.072382352101751 2.8243464482850964 0.7588188330985115 1.6508022386249055 1.1348275997910973 -1.524641548934716
Ni 2.6099228090817856 2.691616923345463 3.4854554124632173 -0.7053826665194175 3.503346086800108 -1.0207870904032097
Ni 8.163324634268761 7.113043975444196 10.205321647630292 0.9300016948885209 0.9454928485455845 0.7557665182886081
Ni 6.43325230524046 0.3049286191376315 6.808239901437204 -0.988176246346724 -0.615569919330643 -0.378864906331283
Ni 3.49782658329698 6.208659041084105 1.5501851481945315 1.2194978835469836 0.4497185959190513 0.16956811014154669
Ni 7.115122849053381 1.499476551432812 12.441252285130902 1.1199627668641228 1.1375156881462216 -0.7883046001256294
Ni 5.039273907326055 8.463450306225532 2.086484908598106 0.4947812925856446 -0.04241754573426243 1.1754407453267692
Ni 0.5330147655292394 1.4340856756988303 2.292987290206776 0.5723396478870982 -1.4397825462067915 1.1045700864581365
Ni 8.063782172711806 1.6728283904113992 5.314562658230376 0.39837289445722357 -0.05171105522104643 -0.06892664776838452
Ni -0.05173773284122158 8.097240800665052 2.570114252324986 0.13019063678518866 0.6806247428484472 0.05449915948914485
Ni 1.3645557813375504 0.18816240879970494 13.678990221301248 -1.3447314334372131 -1.6850241359222529 -0.40348656153470513
Ni 9.167476773278693 4.0016631403628775 5.018138692299334 -0.37083432271732264 0.00297836590203358 -0.8451509196907122
Ni 6.848146783297141 6.142153814181236 8.568092563131868 1.3615400203541197 -0.4612463940529928 -0.37015349460021413
Ni 1.5331599224789434 6.811485566270284 11.585653457658813 -1.9177454816835164 1.48997459368015 -1.7848924675748163
P 8.5534973721081 9.504853612881142 0.6247417860311222 -0.1017418945261925 -0.08939391448380088 0.2388104893781371
P 7.540149494880958 3.803917311510737 8.647667537315552 1.4448149664243761 2.807462103799746 0.00422509382494111
P 1.9959902293888756 4.447225686302817 8.191833295601217 0.9160159221323902 -0.9758071832584098 -1.7253560027720802
P 5.2937486385405705 1.3825258644728091 8.622297787847057 -1.2363892599856836 -1.2691746819468206 1.5207614971540195
P 5.076721725178008 6.90009989493571 3.9389879103345886 0.09163360244759702 1.8806141240488576 0.20004391013290065
P 3.2809214057763976 3.4271917020623492 11.412661207628842 0.44772213431431285 -1.115852087129859 -0.21787965276274088
P 3.2156054444067106 1.0342208919788298 1.9150143565928766 1.2075779921809462 0.8475387031965985 -4.91284515153201
P 0.5623119005458993 2.5866806275592675 6.40423984480812 -0.2005211068796353 0.2487555164059909 -1.223139594064629
