# total energy = -340857.7856311117 ev
CRYSTAL
PRIMVEC
9.40899808062676 0.00000000000000 0.00000000000000
0.00000000000000 9.40899808062676 0.00000000000000
0.00000000000000 0.00000000000000 13.77101976709751
PRIMCOORD
 96 1
Ni 2.852968080327746 5.871948517513131 10.530602066596712 0.19623636346135237 0.8706410935420167 0.0887951045575374
Ni 0.28792850471227366 6.4738703325921225 5.670864121424771 3.4273777016935947 1.8580172125849483 0.8407322217977262
Ni 7.175772158097849 1.3780418150855713 6.015346348202819 -1.0531755340362443 -0.07707087414207371 0.871157628167119
Ni 2.3006222745597316 7.175414616182149 13.076175366701937 -0.8216482085830816 0.2950626270026467 0.5244942462690451
Ni 7.379759230001817 5.429264580889062 3.2554690101261556 -0.1457183001071426 -0.25309348165971246 0.9230509746023006
Ni 8.433943341446493 4.975976703765189 12.49220121489125 -0.06644013390110494 -1.086962143568386 -2.40484226114071
Ni 4.379897876308538 2.0723035343926792 13.040260281269989 0.21509849047317794 -0.12413388906814748 1.3415088127348576
Ni 8.179044182546567 8.096574316991296 6.79949598691617 -0.9289174606854066 -1.3046733890740627 0.44352969349952004
Ni 0.30983829694638715 8.62874723151567 3.827365772384449 0.3826184598364443 -0.033415085125335996 -0.006912410849117127
Ni 8.249574029917053 5.412808243769135 0.8201127100339862 -2.797614778692021 -0.9286158702845879 3.9751628001697794
Ni 6.921371676080344 1.459025058991358 12.258341515930644 1.336803693949704 -0.4848383224403198 -0.1248442848716108
Ni 3.655122777195869 9.251971017572089 9.666347043470589 -1.0421925526621794 -1.2274662464644408 -1.1894262609725839
Ni 7.297336409435453 2.3372609119210805 0.6528658926674079 -0.27033838478308925 1.2126942303615889 -0.7756725131839157
Ni 6.964756564851063 6.162498369007344 8.401464422004368 -0.6366125989335553 0.3432677259529637 -0.5534533525055565
Ni 6.0241672836230205 3.5951498253362795 12.176844540745982 -0.2710732060665848 0.4241646587093469 -0.36043241065770826
Ni 2.819415594238744 5.624708282807385 1.2164385145883656 0.509146045947749 -0.5577766624712587 -0.3974838069840509
Ni 2.2084799592850284 1.6131068066619938 10.109236096246297 -0.9883441393831558 -0.2570511807558799 0.22884180820119943
Ni 4.309302165953581 7.7172787984215185 4.207707571507534 -0.6028334456005812 -2.8386976647752595 0.7444446655178857
Ni 0.4738813505683481 5.370825295667866 9.93802150451524 -1.7364973641008803 0.058795729981969705 -0.6889741432544071
Ni 2.925868995139182 0.12972467511354155 1.0071052501449218 -0.7919241991560877 0.6147350821341735 -1.012841610303888
Ni 6.794914745896334 1.6861864924312797 9.775261838190682 -0.223518339105757 1.1842822548777991 0.6337936414275214
Ni 5.418086691524583 4.935894373215793 5.52672297991034 -0.5985674712353756 1.3749778910265802 0.15630378893247274
Ni 1.2761988230980919 4.234547678579179 4.628123233082012 -1.6652603230317644 1.1328928446622295 -1.4099922023182363
Ni 0.9650997204489772 1.485247935808533 2.4783290747600573 -0.9723814454063126 -0.9736957933423618 0.4275317754093669
P 9.032205056388463 1.6972138378312542 10.260276855833936 0.22729066166399564 0.3663230651105304 -0.5505482630436195
P 6.721995013089335 3.9993415520360336 1.8610978793907071 -0.8344186208748726 0.11529135107585306 0.1811966955194105
P 5.6116015488976885 6.9466912891104915 6.630401242385296 0.13399252702978215 -2.2522413749811214 0.9844903128547045
P 9.21704481780698 2.892090693103424 5.8745378737026135 0.4837425182729798 -0.9919459978018013 0.8859982927243774
P 0.7214593682944517 5.205669157608347 2.1788924248611714 0.5319195921988388 0.8588541282094176 1.4164459283633797
P 3.407355638614356 4.200383607634377 4.116446879324962 1.1629796367452812 -1.2124214363161765 -0.4387253301323412
P 4.529745574977477 7.145541048225734 9.915781456458994 0.327488608741836 0.0848615738310861 -1.2702823131887024
P 1.9499583362392061 8.500615499726546 11.088438963470038 -0.9121914061799774 -0.2215776704396184 -0.4305854746340262
Ni 8.2723438045484 1.4841470830680918 8.079677638775191 1.0633635303128395 -0.8098015936571409 -0.5076532634523064
Ni 8.280134454711522 7.788175596705485 1.84800149537857 0.6795243106954169 0.1373529588615828 -0.3109494734362322
Ni 2.6514367568447614 3.853379769450874 6.4719386653475715 -0.19506805418486406 -1.0799533163507207 1.5055238542686589
Ni 6.864578965470918 8.91149702384898 8.647181339969281 0.008834310462178335 -0.31544221910026315 -0.8696653598923088
Ni 8.330529046829495 4.869814981795979 5.667958622909828 -2.4629563916746227 -2.480420095677025 0.18210583759724122
Ni 4.412612961594982 2.0233673369308462 3.8428576872317683 -3.0743572672292405 1.6683088800501011 1.9190528876410304
Ni 1.7422170742204 2.027526113950291 4.944649445651524 0.2685075022219376 -1.1008895522827555 0.06807998349737308
Ni 4.364071942039973 2.1983276506787375 9.35713256307712 1.3586801823078214 -2.3877814490036813 -2.7885824932864236
Ni 5.6815762653990625 9.15280018095457 10.614274402068464 -0.07047573742305926 0.24658499111723337 0.6399745734272527
Ni 4.168929328050661 5.201115202682078 7.914287216670912 0.7685433583383022 0.5289885345949727 -0.5473423545118121
Ni 1.3688868602441246 7.094487826263052 8.33714074957059 -0.5157039016709247 0.12421590725899252 0.07069325275050406
Ni 9.249581132135575 6.9448094895541805 13.486593027233742 1.4917242293814053 2.260184283977282 -1.1769350704841086
Ni 3.5103183013378394 9.142986596268415 12.308853720520885 -3.304961823757818 1.2608360801741383 0.1443162775532934
Ni 3.16066112577994 4.429125752701599 12.917312907258497 -0.4032970712317183 -0.15107879308810754 -1.195947349920553
Ni 6.005650375988933 1.7251585612424527 2.5439201391950084 3.708329857436788 0.7636276662042397 -1.2035609006017531
Ni 7.336402568224442 8.955342953510995 4.504514406526477 2.15492383477487 0.44505898565985286 -0.7058585777145714
Ni 8.243994494232595 9.018543191609655 10.836318281615002 -1.3465957403394615 0.5391881008357939 -0.7392332965202751
Ni 6.360256684379927 7.336129707288777 2.989026892747826 -1.4802740785629345 1.0997302418673318 -0.42819409158371424
Ni 0.40040178239334634 -0.030772127244553873 12.518489954692894 1.4872600229624644 -0.2688013793132726 -0.1951107344973414
Ni 1.1895607715255947 3.3791380542674925 11.29127155134621 -1.1014161142101868 0.5902818341878157 0.8632224324804425
Ni 5.297726791903017 4.706239555363761 0.3733443274729477 -0.04216300652129513 0.739674497822752 -0.395318423901616
Ni 4.822675902910422 5.4710969850258255 2.636062454469712 -0.18613295647876332 -0.49487539496134764 1.0519421758497753
Ni 8.105014188001345 3.8789910614122487 8.34891422849464 -1.2631696134033215 1.0670409791644269 0.04910421372581866
Ni 6.210747709631123 9.200795478638247 1.2298990268146488 -0.0250523149829375 -0.4593180666820283 -0.7340219275226649
P 8.027926269177119 1.654384079929646 3.7266857325227694 0.9037507316117919 -0.5517636235079595 -0.2661541714984126
P 9.228683748062757 2.434295906042189 12.989362307770703 -0.6094859179200923 0.026013907565258426 0.3480993430136521
P 7.848214411549546 6.868577789528077 4.8427029546884475 -0.38322086930713356 0.7513946144731576 -0.6123539834965066
P 1.9799071761778744 7.667251157217026 4.9719712934095845 0.7249888707861192 1.7267937636598711 -0.13240821326179775
P 4.159915508175938 1.9671203481927502 1.4747107991929769 -0.2833677071632217 -0.8746090770508291 -0.6872844142568099
P 8.523968632220349 7.3882085100096475 9.376425713028185 0.614785989976767 -0.29743909765462323 -0.2892380499010696
P 5.487581549139099 9.30277960559245 3.5357639949382587 -0.6238694403352739 0.3659458842767698 -0.657232589176752
P 0.838476251004234 8.608724884236537 1.0751238360075128 0.8639410558140217 -0.6223296066519798 0.31166629699759874
Ni 4.157516213741642 7.69510179065041 1.5262561117396334 0.4796418658410449 -0.9563375045695723 0.3498055270714814
Ni 2.6059630705665384 3.0722447736267298 2.2076180950882387 -0.7080339880993355 1.7443153174834025 0.5800580995772785
Ni 4.358191318426506 7.025538690519865 12.050055472940285 1.9423722790932614 -1.2032662521794695 1.0510608016860867
Ni 7.360743645485307 8.38433910514217 12.831257272648678 -0.494629854609445 -0.000660773512450475 1.4536911858680837
Ni 3.261487946007012 0.09900523825656435 3.3396099136874295 -2.02060503475392 0.289016935029199 -3.2577797667553763
Ni 0.653079476917049 9.263713446803461 9.459147739724003 -0.7036358590316397 -0.3198277497624685 0.37329384000140875
Ni 6.564460163232871 6.986039717832925 10.826321221472107 0.4180415765307446 0.13328187411600273 -0.4127373907090117
Ni 7.093424609513737 4.822045500059057 10.5868020103459 1.2167830557189818 -0.5134153627470641 -1.329302757586969
Ni 9.234065694793802 0.45405282864351315 5.968373808577994 2.355929080379775 0.9708336413032184 -0.32647996497166354
Ni 1.8961576869243126 2.036229436898223 13.340730039125289 0.1300127164464277 -0.026567466075883277 0.5394830063683934
Ni 2.6793720712581788 3.9521930641526946 9.37281736237896 -0.2261534627357589 -0.9547241373358654 -0.6700207420803557
Ni 3.4245176505679003 0.20032979446628035 5.429651290697884 -1.070116275655641 -0.11673553972154734 3.0422495880614187
Ni 8.761997458097959 3.67554971137961 2.860626063622148 0.7848698634124677 -1.579521231691731 0.12123137070937187
Ni 5.615318103021399 8.881124779010142 5.969488774815107 -0.42527434683375787 0.8088641694445359 0.4897157051372792
Ni 4.733488012939125 2.5459807097091676 6.115640619155455 0.4115891360371815 0.2710755200594299 1.1205505210467928
Ni 3.0036719977948056 1.4745310873353494 7.435799220788719 0.033374718805703814 0.48174554244760903 0.315064009825238
Ni 0.8359273535052126 4.421090468596157 0.30745970230721176 1.4575537541472834 -1.7003725933538651 -2.105002267354078
Ni 6.617545728716366 3.1501889112490766 4.79051030309442 1.0313219284962625 0.34467643337503223 -2.137167796343029
Ni 0.6764514274064152 2.9437743179174687 8.46545877951579 1.6521366411656127 -1.057002363981502 0.055040890925227785
Ni 2.989953679029308 5.810037312110542 5.418069755328576 0.47442561174742803 1.731388067898773 0.4634511150137954
Ni 3.714173647272866 7.692542543253828 7.4173604078362185 -0.43658874340531256 0.44629440072885074 0.06568371535105462
Ni 8.745343532024618 0.6167729771773884 0.6613753902610402 -0.3705463591632586 0.12022272693919941 0.5463478518090268
Ni 4.9941737054747035 4.185865524057448 9.983547881181039 0.7251824748541639 2.034665112391412 0.3979841436592372
Ni 1.9993555745923348 6.843634536409192 2.975228597501185 0.033103981642820406 0.5548332635722187 0.024490271831880402
P 1.8633014666711456 9.18343587773129 7.8134556919449505 0.9450447052645724 -0.3666274837248266 -1.8650136985074397
P 6.18131636457044 4.009870220553586 7.482083962675711 -1.091652864175836 0.24464406534077868 -0.36660305824479444
P 6.532573069751203 6.364330780419338 12.965951780390434 0.3523069533370965 -1.136924591529442 0.06939921652942888
P 5.382690041870398 0.916574696190198 7.548405165338511 -0.17283958180396686 0.78009995282765 0.9033442402019927
P 1.1353555353060947 5.7832875314176 11.87966605031467 -0.4499232557306897 -0.7536196471489344 1.8793172596143053
P 5.345834997560073 0.0876005920455496 12.661295959422123 4.007847949107627 0.23914576123036876 2.4567368931274722
P 1.3131479573862321 4.96760269573961 7.971809124608408 0.7842088327897011 -0.1506026247826374 -1.1704471487669197
P 3.7959096110011767 2.836963375101332 11.187686012969586 -1.3663626385537435 1.225199047696819 1.5793582237513057
