# total energy = -340870.6501306631 ev
CRYSTAL
PRIMVEC
9.22546045286317 0.00000000000000 0.00000000000000

0.00000000000000 9.22546045286317 0.00000000000000

0.00000000000000 0.00000000000000 13.50239389660031

PRIMCOORD
 96 1
Ni 0.8071881334121923 2.6806236369251732 5.190131585466163 -1.8248394402813992 -0.572249402166137 0.5066345923798048
Ni 8.30880961336641 3.0374275512643916 13.191839453500041 0.321104302482047 -2.2360974182314073 -0.6956854938363115
Ni 2.3414864796435517 1.3389372248325178 6.448729809170549 -0.37821981654811637 0.19710693899176376 0.11938146198482666
Ni 7.927613581188924 0.47999887015944426 9.639116419803429 -1.2237761992073632 0.06093951579784988 -0.15272198511848536
Ni 4.412464003442276 4.842767162417458 6.831441584525353 -0.41959169462668383 0.7808108628517456 0.5892042848529208
Ni 0.9493460235049453 4.269930637102919 0.6675783155383991 0.34618644226165546 0.41475005026366635 0.5090151767968395
Ni 5.85176501419103 4.318244374288629 4.926955948255844 -0.06234333812391199 0.3885466523954212 0.11974732996467764
Ni 5.121385298133632 5.244213080621799 12.793937034713883 0.5167786227923423 0.36062755738764984 0.5319375899209677
Ni 7.402020639629974 2.9614005304227975 9.407765854040415 0.01042633753964656 -0.019417485294663334 1.940404099623297
Ni 6.230239535490193 8.284214535394844 -0.05506492925607422 0.7627419211651767 -0.01779229098641452 0.6216071266636585
Ni 0.2938392231675202 7.86531404572681 9.371863129005925 -0.5092504327360972 0.1298463660718925 -2.5853185335543283
Ni 2.5281729004359916 7.19878374251308 1.0275345697661715 0.30067225987994023 0.2725220226979694 -0.9053939236421696
Ni 5.675328080130177 4.948481715484299 2.5452556858373243 -0.9895998661671279 0.44980344232337377 -0.4424449450757735
Ni 1.2215432386403948 1.5900265861048963 1.3085697761607213 -1.7566661257392713 -0.22204792520781758 0.06989081145386673
Ni 7.781307001462332 8.496732245879853 7.562596239273528 -0.2355320757371815 -0.24404242720103778 -1.7737822165942678
Ni 5.904008797594251 1.4363673142765268 0.2712700563446982 1.0846036706385385 0.15777317438914765 -0.04564505153262462
Ni 8.991180032438049 6.764873428441542 5.731226068478835 1.4765894306224956 0.04646317655854579 0.5829973847112605
Ni 7.19950332844023 4.606060294227478 11.359591018855802 -0.7891049845397378 -1.1568596398904722 -0.2073036770191075
Ni 1.5834580581545 4.309673921387058 6.780416484467985 1.847569534889063 0.46701852065007954 0.46305979311264767
Ni 7.312838111966379 4.456497126907502 1.06635254035168 -0.21075101213775962 -0.06009285152683844 0.23110103654902134
Ni 8.468557689193743 6.5300208778330635 0.8006066898169499 0.41181025090905204 -1.4010311364702066 -0.318037233520949
Ni 1.4530008197464204 8.612751638441907 2.6847750941971937 1.4155696964060136 1.8440928891943724 0.04330509054553832
Ni 1.3524525246180945 6.318905437359938 12.305137075137758 0.6650055482539515 0.855311919384114 0.9083771746402098
Ni 6.758055813054824 6.4879343265553855 5.941755692203579 -1.650875515065002 -0.7387902954455857 1.0680899892542315
P 4.185074850462829 0.7919006226444936 10.48602661894037 -1.7389447972001084 -0.07931236187808277 -1.0707716498514526
P 1.130829284516454 8.316725058565062 13.512521076842383 -2.008337016019844 0.850566948499961 -0.6540187102251446
P 2.0796217803851302 6.422184468827192 5.890851445680129 -0.3700246823318337 0.937068114816999 0.21585850856765404
P 4.914587373223405 7.319452767219797 7.048775907991967 0.5929526961517595 0.024635796270809182 0.07898326067343817
P 3.361231993021353 5.802713240156962 11.212415400740268 0.012328953878998121 0.16852347092711623 0.377441286510879
P 3.937832506262523 4.807405971920451 3.8191248144803205 -0.6334082330636446 0.3439156439496077 -0.3090244884993774
P 8.895585809654332 4.9984560355788155 12.486825141374686 0.0812597154124407 0.7165839345518755 1.3284905460983183
P 7.08285660455707 7.503380775291495 11.707885368333438 -1.4633711321600087 0.9146972033209666 0.3520477861384389
Ni 8.620205810610335 6.494475178123968 10.845676587876074 1.5559437014821074 -1.9827074883771985 0.4608244760242257
Ni 8.967258413090608 7.412528439258487 3.523625008403992 0.4642607553992843 0.13314714831035135 -0.6664957596462329
Ni 2.276446982381904 7.48730079745787 10.326887423512934 1.0155425541748186 0.17056055596180303 0.5134935242831672
Ni 6.547189460018018 0.7644733282673476 2.5187500149745667 0.02208809014829099 -1.0637106292396132 0.5468839268181549
Ni 5.265284032642452 9.04432791098051 8.766321423302413 0.47257775990541195 -1.1318554045366507 0.4260492773265695
Ni 4.113549854396226 8.649081502302385 2.7835594812579414 -0.8116201349231184 1.4852782166457452 -0.15873065320641053
Ni 2.5557478021828097 3.1551813304200897 2.7178022431612647 -0.07822787056465237 0.6169971386954729 -0.9678632458209848
Ni 7.157804246507939 2.971668468075594 3.433173057361219 0.12185254923313854 0.6431892237098085 -0.25616055062081045
Ni 9.022491245729682 1.0190812802142781 3.6024252027032957 0.11616269793721284 -0.47074482046173116 0.0026472078148599572
Ni 4.2491733507428195 6.733783626204414 9.522118205871239 2.222609153936985 0.01428864870853023 -3.037870999377749
Ni 8.63589831909857 8.62868400890586 1.489759667525007 -0.4073756121764662 2.401589044310735 -0.6086181706031584
Ni 2.9906636914602367 9.451761153117163 12.206015958764945 -0.13641682020055862 -0.46178144062085635 0.89016219429408
Ni 4.476977649449467 2.4408262394326896 12.118885173539788 0.7300056072744202 0.47293257214166945 -1.206855769302941
Ni 4.88553639777987 2.647144440391483 2.8817349879187932 -0.20032081794337112 -0.12341063774887778 0.07594730206059178
Ni 7.1462355189099105 8.448603017906233 4.697645131832482 -0.1756780796940265 0.11805502986391928 -0.5547162783783801
Ni 6.377671621410532 3.2734886372120573 7.417472363596432 0.3279490933180223 2.5821439924810887 -2.3097353554325317
Ni 4.727356650255301 7.292071600145674 4.663079176039583 0.8523669778231773 -0.7889044384931574 0.9043590546197522
Ni 5.0043511049050835 2.2544258079189885 8.844378968023056 -1.9411849436533795 -0.24635256339145312 1.8031843239054688
Ni 0.009951504354062335 1.9788797505841096 11.026851718503393 0.7865120270015811 1.0454599105595412 -0.2210778479850644
Ni 2.774345091206178 8.600112757413758 5.223900461462835 -0.6161070227810358 -0.6131489685939763 -1.2606920983971064
Ni 4.444227264303532 0.27456539087262166 6.692110375561817 0.5320170370086514 -1.1319947583279923 -0.7887748548938287
Ni 2.9154854129942556 4.416089609459839 12.707521222685575 -0.6677640848356952 -2.085850891236608 -0.8854305931463654
Ni 4.950336033065801 4.488666308035355 10.395654929404856 1.5937018940674876 -0.6395709102309308 0.2274349005513438
Ni 1.302459753602368 8.441213423962038 7.251190816569001 -1.3168365067991579 -0.4966926506757446 -2.005530399808985
P 4.181449244445266 8.955606656347138 0.638097433630694 0.8069222152268168 -0.2675032293271393 -0.996160550103781
P 6.116757144594373 5.269352460769031 8.506669912043009 -0.6811253366339496 -0.3538660702941003 0.699607454598537
P 6.718487812522171 1.2368759541650556 7.832643922088132 0.4897092773793759 -0.6650214890935515 -0.4261991726408724
P 2.121025647578077 2.0900834527106205 12.839508042461878 -2.881281817994373 1.858963892768934 -1.7077694000385684
P 6.8044414289741955 7.148615687745869 2.615319368944177 -0.05829976418215766 0.9011086660032545 -0.7393903909234298
P 7.076970760691407 2.166544070200626 11.604929227987341 -0.26609760722886433 1.3043183197274892 -0.19721672509675067
P 5.086162489545693 3.4461154560432568 0.6560667857961178 0.34450776900765184 1.30211668409048 0.3410794600523932
P -0.12912600444285185 9.184813225065668 5.6349408586958445 -0.39144479987882264 -0.9286629214724392 -1.0567251990607156
Ni 8.691334111870946 3.5832334770077776 7.417594139676412 -0.11253769959011586 0.3401456353842142 -0.5850329270840505
Ni 4.536537223112049 7.6666806534515555 11.652701430635567 0.8325463435528242 -0.05571297729158792 0.6646340238471456
Ni 1.282800297054202 4.850701058537319 4.470007813962776 0.1784258176424927 1.8215664259570825 0.16084178601214233
Ni 3.327937305699752 5.071014283233122 1.3108503100221511 0.8852107638260756 -0.8552324722964304 1.3629073330152914
Ni 2.4301800578951096 2.2697954252860675 10.714932437643196 1.2417371545611582 -0.5219449974846302 0.48589530294992445
Ni 2.007451002076212 6.382155195264314 8.189458906980077 -0.4405973503440735 0.5029869683248885 -0.6327186631957877
Ni 0.2035330344022978 3.42818116062813 2.972066085427647 -0.11325040938642432 0.034120338722476724 -0.9782654149909151
Ni 0.8337399315779723 8.895272143993779 11.306270624200035 0.26062167171595757 0.3055002773962029 1.0221037523321042
Ni 2.789816188639906 9.385337836764844 8.617254585762959 0.6682649357315136 0.513534919044064 1.751056235751662
Ni 9.154157019476951 1.314812645351779 7.2702155614275785 -0.768043021663116 0.38447453920857655 -0.6386643392562613
Ni 1.6098982282469656 2.636913404581104 8.613379892309073 -0.48895028772616433 0.966538356361974 -0.5602989146724803
Ni 2.7797973384234305 6.775316649845824 3.255022032720052 -0.44481344530795014 -2.174267529408804 1.3557177572453878
Ni 4.982431410508818 2.323321547713313 5.9257956453578124 0.23907325612122055 -0.884242229265219 -0.8091760442579998
Ni 8.191793871059073 0.3114663107445174 12.304744993062066 -1.7204899329290304 -0.5809075920617673 1.8131100676596128
Ni 3.0999300468598054 4.614972089171414 9.145819970728674 -1.1332525419944934 -1.6197448550984686 -0.5203781672181425
Ni 1.0345339267267972 4.256000191590141 10.913566752464508 0.13783272671147875 0.058936369324892046 -0.26882734745520154
Ni 3.4671126043790736 1.8478413081579472 0.7612065926672981 2.1735427354276378 -0.3367417519089878 2.5710445401338173
Ni 8.10438263183154 5.955237780330979 8.03204764032386 0.8460955429921686 -0.001837567429371029 -0.00891118644670078
Ni 7.741333080663081 5.490228438561709 3.5964572522382516 0.4883458213729461 -1.4127975329775153 0.42713968217727083
Ni 7.04179407940649 7.442160618720106 9.53502647034904 -2.108492025674891 -0.38371015023872623 -0.007583725884528875
Ni 7.241193184911916 1.6662012143161622 5.341992815022718 0.46168168181819846 -0.479702029655019 1.3318481497166417
Ni 4.9034799186556 6.971182403939731 1.3697364250606046 0.7823676658159042 -0.8715918874910602 0.04684858492242254
Ni 6.1090077576866015 0.3687241319862787 11.014645511577593 0.02540789855014334 -0.9072800849212891 1.3862694047799997
Ni 3.1826916539426766 3.1403836916104897 4.956620416829578 -0.36700106501416146 1.0596647413050135 0.6433548027533953
P 0.6329173375012733 0.8658906617846166 9.189365067327923 2.8190330964667965 -1.1036028374488607 1.1666820252975327
P 0.6466374425122694 4.750973829402792 8.85207484725932 0.0920776319635511 0.5549841873277861 -0.11671060002088288
P 0.6526376820894292 5.546512973709696 2.4789993503219443 0.18094318474770774 0.8260208837294806 -0.34527318641876664
P 8.129817226718115 2.090849165940793 1.7064731174929384 0.026744357973379748 -0.6677016070288758 -0.6455039878859141
P 2.1574385405839953 1.4329169920104476 3.894252352912977 -0.8968401205348877 -1.5706856356779721 0.2875704323906596
P 3.4507189608848967 2.887578394665676 7.421104427436419 0.20942792245096192 1.1003177389396857 -0.1914818794955025
P 8.060478664814774 4.341603240539195 5.453198362241349 0.08362641587240435 -0.41243502897724454 0.2102041384953541
P 5.230956093733148 0.2939526963329554 4.3772061381040395 0.5553503124179533 1.139106172561793 1.2845143976276847
