# total energy = -340861.7583760111 ev
CRYSTAL
PRIMVEC
9.39558174359071 0.00000000000000 0.00000000000000
0.00000000000000 9.39558174359071 0.00000000000000
0.00000000000000 0.00000000000000 13.75138360170414
PRIMCOORD
 96 1
Ni 8.809992535988412 5.03466935243173 12.910389687422681 -0.20354935218299783 -0.6665435821650327 -0.6454106568411595
Ni 4.974133620493579 0.3377251184370656 9.688990530716723 0.7339905600640972 2.498131396913859 -0.7491135317484646
Ni 4.3140470385729275 3.486709709448951 5.861637435200722 0.843208965472993 -1.846005532836053 0.5662001106482636
Ni 2.210225999823446 7.657126492839741 4.154898101341708 -0.16783647216242065 0.23131700921456935 0.07296019440780982
Ni 8.922438856000174 0.699420244529045 7.5565777977470034 -0.9881577344039627 0.08850225590746694 1.2071825565147403
Ni 7.662256480367017 3.777004992654451 2.9017069779412323 -0.2706343187569533 -0.5821692323830103 0.16760738687075005
Ni 4.770334061053812 0.45371733092647165 0.9180479107738395 -1.6523243316963865 -0.43824221984833556 0.8289971927489852
Ni 1.8125486150625958 6.132693386062631 5.964621465031681 -0.2989773886760206 -0.4304800594044135 -0.41375709022277773
Ni 3.0143186601883065 6.676706953492532 12.172724728187093 -0.5562589402751517 0.7135214935764679 0.2976985219635969
Ni 6.8438637448803386 8.640562013865074 7.352383623882061 0.0381410298460956 -0.2270258380383832 0.2868847191775446
Ni 2.0542217637376083 2.581163559487916 10.774305161182523 0.6852167330945038 -1.5730173691349427 0.5366362809482177
Ni 9.30414375212299 6.86208177750925 4.894199770883614 -0.5816213302993403 -2.342517177849243 -0.31265051528773896
Ni 9.086776972922445 1.1530257680350504 11.46733359158189 -1.2604848674823066 0.7558058561669757 -0.9176871391872259
Ni 4.70347510273131 5.966992909815352 0.20836205384131437 -0.42590709532175036 -1.7146190759705504 -0.6848529219971818
Ni 5.196959232575711 4.049824494173631 3.4331699275342595 1.6803066758419256 -0.8418496232316212 -1.2910550269596799
Ni 2.148647358333047 7.207764013962523 7.992276282373463 1.3392099893983516 1.5612802832036725 0.41707175641830757
Ni 2.202784699234432 2.7912393674042764 0.9058101658026396 -0.680256560875751 -0.8592657618255395 0.8809090511269281
Ni 7.028693625167052 6.239408401327805 13.593558394541603 0.5578013450616071 2.344062410849176 -1.2711523744984816
Ni 4.817236804160323 3.4089894588525858 9.946114713253644 -0.05749372334109453 -0.5369671819250752 -0.7890720744192732
Ni 4.2826376094453105 8.66060278931503 7.485317949025647 -0.6779986180795098 0.31507223735535417 0.3024198386986663
Ni 3.466199154921404 4.946914620738058 4.432016081420829 -2.17978203146913 2.204331695784036 0.43242921271098433
Ni 5.245271312914991 6.952899468788803 8.698451010480085 1.4867185486366974 0.053384329158411285 -1.3856579964482458
Ni 1.360884218705189 1.4804054116254457 6.327039111344994 0.8630362846115653 -1.0187597755605358 -1.5867128643441641
Ni 6.4330889194363 5.650596701058993 10.36407340035218 1.1329923463545712 -1.636369608139343 -0.1355315893821279
P 4.636907407436914 1.9584244142356089 11.581250320106507 -1.9408638128685345 -1.0722754880904888 1.7712985309404656
P 5.989655052518257 1.9140678737296324 2.1337196583635714 -0.4499785344486573 -0.1564768241752273 -0.44449488562626677
P 8.860024007751667 2.507023025462781 1.4708895666297979 -0.5916103231912521 -2.1846884676318115 0.3375938154966379
P 1.2947675113252783 2.612168978608807 12.859331278595814 -0.19200329921661125 0.14780166499873254 -2.212807594465531
P 5.623415283629679 5.874249124317683 6.305421757310645 -2.6090223049291708 -0.37770071081985274 -0.5057434480241032
P 7.742024967741671 3.8716372900440286 11.184825366366509 0.4932373451372925 1.5576378013550787 1.149091308798963
P 5.047625859391641 9.22798316806422 5.572844505485351 2.993557007951722 -0.9599828146316434 1.1134794731326243
P 7.815968194554218 6.784305153423574 9.090791704919523 -0.05938631237811709 -0.5226795616578095 -0.9966266911069223
Ni 4.401905121663669 8.468378586347061 3.241819513650607 0.06487638895841086 -0.48069113304116573 -0.4829112806209361
Ni 3.8285491530475433 5.5408844952787994 9.779378843919359 -1.1885795967015722 -0.19413371529605275 0.5876102008929236
Ni 6.614611555016785 2.1375793632650444 10.954090553734083 0.9584632926633234 -0.8456641118817049 0.535964965912806
Ni 8.627145123409123 8.649328091452889 9.674716763223252 1.9661408422677686 1.8201777731396718 -0.4315450103338181
Ni 0.04511194526274031 4.908730977311604 10.17039945915077 -2.7090284477111797 0.07062100475167192 -0.5709129427429006
Ni 0.048497173295848434 5.017466042610413 7.604157022725244 0.7339645919221682 -0.5068019711956047 0.3523522047527351
Ni 4.665892776524171 2.6468198833717893 0.41062637525552026 -1.227336919975428 1.1352909125807609 0.18552797590491274
Ni 3.6968230996915175 5.426117466623746 7.298752704826318 0.31408210552794297 -0.3317872361171899 0.19310116026648036
Ni 7.439487241774195 5.801734025901006 6.99849152826884 1.5183562301466367 0.936983782633309 1.4745749712956282
Ni 5.723233942035844 3.9379700957996304 7.852356342346126 -0.6088233446354289 0.7610177393852184 -1.1118542788243755
Ni 3.5312259748413077 8.03126794581337 9.871595537291974 -1.2880026132866012 -0.9029176941875353 -0.2730236449247363
Ni 6.508573021623341 8.240282053014377 10.440339214924327 -1.0662609064652926 -0.6353409313099831 1.3175139924821566
Ni 6.976529356391542 5.582290823177517 4.523159799380229 0.10107057949078078 -0.12597377049036368 0.4421217574083999
Ni 0.7906823468159978 8.847443324053827 12.297875753573178 1.281231870221671 -1.9686754357641643 0.4493612125796325
Ni 8.313689731678474 6.433474138279923 2.5844764415430754 1.097406993050794 -1.626157443493032 -1.471483219744182
Ni 5.605563678681287 1.3916547482872847 7.486280996134704 -0.1381805969692007 0.4465846782757599 -0.09919495973462271
Ni 1.8495202284688694 4.780932277044226 11.35637365257162 0.11202759272291676 -0.034556397818630805 0.9444872900992055
Ni 8.545074718554282 1.9105539262292646 5.367027714686417 -1.2260228291496948 0.8030190235176686 -0.27355149240374826
Ni 6.273908976785959 3.909736373236517 13.088401194177262 0.9406373202254962 0.21297373082069126 -2.0197429438639407
Ni -0.059990788208146975 7.5150746953583045 7.359671776491782 -0.9426330104992863 0.3067665457031362 -0.19059022091916855
Ni 6.045013819021374 7.078396251575995 1.8747398484701707 0.5038179488666161 -0.7171426352688229 1.2220491892139276
Ni 1.9641463234006462 3.824452679490965 6.586252871219033 1.133107531776197 -0.15984728330935696 0.2373578160920106
Ni 3.3261392207289457 0.476464033863343 4.799328825722621 -3.8944237331474993 -0.35376322616764877 0.04387818944018895
Ni 2.654195414889941 0.8776112068912675 13.25853356624252 1.158988770418333 -0.5608455312045696 -0.5313837743000268
P 6.549246494161018 4.802861564386092 1.2118242569442759 -0.2367016705652504 -0.3955274545886285 2.1422087012010462
P 9.20060444342232 2.916040877156636 7.240901290537513 -0.9434182254047428 -0.15869182954867508 -0.9781923956611346
P 6.661645836265021 3.357539254275011 5.0703547107235645 -0.07625737710184285 -0.2554167304762504 -0.006354995683750346
P 2.5712888032769903 2.4801140798984687 4.690981797941902 0.7049664049176053 1.7329083611980416 0.9907550628174936
P 1.8328994447037619 8.712785849253644 6.360922397095195 -0.13476257242658726 -0.3928133980915751 -0.3563906364881668
P 1.6987681224704798 5.429020701323249 8.953828554406531 1.4825896140699886 -0.6303172528431467 0.635526564958228
P 0.8614141638541454 6.418290878492239 13.000653978948833 1.0238065939558239 2.9022386227516983 -0.15869054399709442
P 4.208412515186208 6.274688810054758 2.4192673542109544 -1.2071807567425274 -0.14231338819065167 0.9593145849200253
Ni 7.577931135939746 3.4965468833336693 9.11502197018342 1.0016598826554557 -0.7079460563712194 -1.0943507227229734
Ni 1.4080876204213568 2.438914454793892 8.52456510358489 -0.18779337490032175 1.4187763762687695 1.0550287851948992
Ni 0.2580966252275329 4.325124429222482 1.6230622845588174 1.6384123496009848 2.3591889820779692 0.09274277635137576
Ni 8.810847533909623 7.893603884916617 0.4588463788955911 0.5837548317025754 -0.4768090243779401 -0.8402195438273659
Ni 0.26078000331872264 8.850374745497984 3.410480537644854 0.45026881199556645 0.689104241074368 -2.238073053900539
Ni 0.5863575743674855 0.8120103169385496 0.6161255953980057 -0.4918610336150562 -0.21484523681179127 1.033945996382671
Ni 4.090704669505447 7.147153117371957 5.593086346380517 0.07756452594904062 0.5404751950783337 -0.5447540249593457
Ni 6.513261416817682 1.4545957491026924 13.319369956790327 0.4298061732658404 -0.9051455550767896 -0.3293143490966651
Ni 1.371980400517847 7.049955826218742 10.607775994642378 -0.6602839744085661 0.8383570366973304 -1.097576942969755
Ni 5.2742942643284545 1.5144456035875624 4.208198295926828 1.519996593963537 0.9991882811865114 0.2711799068477781
Ni 3.132975459605799 4.3647925745341185 2.1981169743195057 -0.394880565033249 2.0072262994541687 0.10564431490439226
Ni 2.1855813894131138 4.961064366555046 0.128351160462624 0.30560594973613175 0.5493866386353506 -0.8659323752124376
Ni 3.560389859978048 7.937857074025524 0.27702966161253473 -0.9581455043125887 1.0380281368718445 1.387615634395249
Ni 8.566139612393384 2.817058425508581 12.974361383534317 -0.496133692848481 -1.06914671265352 1.0853850288892533
Ni 4.195305678921469 8.96421161157941 11.781194872435577 0.7026799228762737 0.614718112853309 1.7317354239358627
Ni 3.961543609913059 4.186323502957962 11.92335659822117 0.42875202096971327 -0.27242560632942114 1.6780842142693098
Ni 6.818007104449826 8.97452796012327 1.0935827422313724 1.2652398656687887 1.0043168606623283 -0.049677569730785416
Ni 8.6764907177191 8.876287759417806 5.427863165676069 -0.8666039473581655 1.8423278268741499 1.510687143637153
Ni 0.8564373243061649 2.2172351036610776 3.5183192644636208 -0.8865006862820926 -0.11555617470146551 -1.2423881578815958
Ni 1.329286877946536 7.005317418266211 1.9533564375465762 0.39622036689059503 -0.30731958999312875 -0.6584993717043175
Ni 2.602463342865813 0.5802419903354287 8.675183792325246 1.1933343377777386 -0.8027336310667659 -0.5629358380746949
Ni 8.416796843627763 6.9817626953158864 11.393447677816807 -0.004901808176991557 -0.031005447242578865 0.8934480641342032
Ni 9.588566796858624 4.13741010539937 5.054031766893649 -1.0187155525861618 0.3831594199415788 0.10410165300762073
Ni 3.468482281238488 2.2060731527775572 2.7110161338825156 0.5827220195626868 -1.8995839802831416 0.5818730412988301
P 7.1481960269242055 8.675992751896855 12.645002090910962 0.6389785280625705 -0.056686139838134635 0.34486026725106417
P 3.768943583683019 2.670487353300736 8.1868719301251 -0.24262112137347894 0.03805464077987639 -0.7917264813229848
P 7.228932259198693 1.0530379891609547 9.279901272603073 0.17993068432279336 -1.2470200002266523 -2.0483906895076207
P 4.9242806647798085 6.305045934048575 11.604820075987314 0.48740608316749606 0.47848384097720176 0.7648491973161666
P 0.9482772548585525 5.406809546534828 3.5136430835252974 0.4451836841631752 0.6821555776706768 -0.5240795273291297
P 1.2642318712819773 0.2775811822496245 10.247530606783837 -0.26275183068508295 -0.611880643404514 0.31515862642157333
P 2.5400015167095464 -0.12177425337637451 1.9530679931929364 -0.07887321745813514 0.012857058468326243 -0.34734343868423406
P 7.650107993420558 7.977215165145951 3.6971002693472954 -0.9886405875776523 1.0298844247187877 0.49490470553738636
