# total energy = -340865.00969025237 ev
CRYSTAL
PRIMVEC
9.28122682086967 0.00000000000000 0.00000000000000
0.00000000000000 9.28122682086967 0.00000000000000
0.00000000000000 0.00000000000000 13.58401361312735
PRIMCOORD
 96 1
Ni 7.944860151795253 8.991773263335897 11.22652192296705 1.3644055148273728 -0.17193866725625226 -1.5111710252521071
Ni 7.655619997112563 8.972988060118153 8.853353973677246 -0.5731395180805742 -0.2990164694440721 -0.057434073747752695
Ni 4.704152722381663 2.769313915861614 8.683390578200344 -0.6748076219460378 -1.987003544649391 0.21231758529393113
Ni 7.91415785325558 8.102928726894755 13.296385874473453 -0.48908038554612543 -0.038455989983353124 0.7566188389865743
Ni 7.1748617256323755 7.299926257924417 7.170212759085059 -0.5157468390937182 -2.0634573540327557 0.7147083147957175
Ni 8.994149257418773 8.898478370675441 1.7566030535194421 3.0508609838795135 2.315017429767078 1.175568529153885
Ni 0.16868537053466828 4.865785288605479 11.5550235236239 2.0059898559439064 -0.8479451946063977 -1.0510721145399964
Ni 1.7226513974468987 8.265517259487853 0.7931625122255479 2.1688345313186908 0.4090771682486051 0.07196543459470832
Ni 5.144287063780792 3.563842624684816 6.365251023119038 1.0466739854723004 0.061887995754048256 -0.11725618811170774
Ni 2.3378389591473434 5.131451126997126 6.076727379151967 0.26883094699962734 1.251464152040935 0.8751960599025508
Ni 0.8138123139247365 8.861566931348877 9.33274697668247 0.6652012092045253 0.9159459881264032 -0.6559146416962768
Ni 0.49380489211417206 3.9163157781434372 4.832961301599614 0.9644269664459262 -1.7683114232876835 -0.3131570226105123
Ni 0.03536147443656285 2.120806749639579 10.80465674857079 -0.3160690540509847 0.08813355971413854 0.15527329078542937
Ni 0.6523161817361474 6.898234758288082 13.053272489292674 -0.48833990783567516 -1.3583703643768865 -1.1999346167030753
Ni 6.245569602421012 3.363980684916589 3.7055697436057207 0.5391654751279747 -1.3619873923041834 1.7111403733933304
Ni 5.552336203834201 8.401255202699069 5.742057475106525 -1.5445876530393399 0.14772016102851981 0.22103105390752903
Ni 7.8162409096057806 9.064751550342377 5.909656942095504 1.0540183416525137 1.2356261565674138 -0.010321693640982222
Ni 7.458755893628591 3.398265537034349 5.953900550662195 1.880326160494794 -0.5024616919490379 -0.22437348801720067
Ni 1.3991263906464504 0.9231943571471051 7.180251334085213 -0.8212864543682887 -1.0273953397483468 0.41195269002418733
Ni 7.4301325899114365 6.715877212427298 4.813223844503342 0.09288881501093679 -0.7864873444112326 0.40658654061626753
Ni 1.7837033079045654 7.5563294318836 2.9851275002792166 1.2216249571923152 1.6110889791956833 -1.7867071521860518
Ni 9.142788106001857 5.440599513350794 6.490835304116709 -1.0339385401835033 0.6929940630470776 0.5254622666092693
Ni 1.196619301215646 6.115994393862257 4.434433772208796 -0.8232888295102984 -1.0631179899609369 0.4047374032226707
Ni 5.948329030162387 8.083410306752997 11.916276717716903 -0.49778819773276856 0.011078112191032535 -0.14711492334435308
P 6.336247189099548 1.6265721367205737 5.338232221409043 -0.2854829537340116 -0.8708046157030745 0.01572203872094712
P 9.102173457147686 7.7744846698446 3.812380886980601 -0.5999185859466313 1.0596122908005234 0.5688231500934074
P 0.15250912019464585 2.9585302883913274 6.982712485406611 0.37042140354962017 0.9448552149615858 -0.8665278427045916
P 4.312893321765457 7.011307945443107 11.174413402736961 1.2017588143960078 -1.8456674327703437 -1.0633828135865493
P 2.2262043621596854 1.2779042862853096 4.585637023780548 -1.0092191830599522 -0.4617832403930692 -0.5347408636977178
P 6.2296151734035705 3.1395234938998344 1.616932654476528 -0.0733934252904865 -0.44865930141660154 -1.0450588184663807
P -0.052101095248579844 1.8923586310617417 1.2810645440400732 0.1989694461217993 -1.1945520122349231 0.9502221357004539
P 2.712317901553233 0.75540369688427 9.039712656448687 0.42022341467341173 0.2168959486932329 -0.6316627111274477
Ni 6.246293538118139 5.488620581260184 3.0531291934292977 -0.20224888820401943 1.3102701664355498 3.175981405230646
Ni 7.323751167341388 3.9498395696565254 12.046588855690421 -0.5290646392485469 -2.3722645843150048 0.04959426598835975
Ni 2.4035129205943564 2.9514208685964696 0.7984453865691938 -1.0252536108149957 0.1807585795407274 -0.6823144718460442
Ni 4.122238359068377 3.4238167546521585 2.2630155642358787 0.2260753011996558 1.1410679242738542 0.12419996641939254
Ni 3.694661517646326 3.2259688411182457 10.811013460865174 -1.3814632416406079 -0.9377435436174688 0.797081317876995
Ni 6.304032050577419 5.396225967607694 1.0131201644478551 -0.04895611818372859 -1.085820059544143 -3.976416984291855
Ni 2.0545851958062777 5.7999036497976855 1.2000635645131286 -0.7545922954748487 -0.6925178947416073 0.07457150475898772
Ni 4.181369055560593 4.815211883302375 4.488266744394347 -0.7968689447558728 -1.6777954793842975 0.1161130756462
Ni 3.1353005356665964 8.65746347089364 11.61535057026175 -1.0779658536070467 1.9569306365234107 -0.18448050847700487
Ni 2.2557279448848053 2.907251509844868 6.108472887593651 0.3022866555549117 -1.2375002336616754 0.17386210953121023
Ni 2.622587000017094 4.876876354734533 12.44511638508124 -1.165065315629716 -1.6130167923460155 -1.088927494824873
Ni 8.166542255973022 6.727478746035095 1.9994714143104253 0.2422231146041119 -1.1773808997722757 0.5744662073117978
Ni 8.775659895289868 1.6544529422868295 8.499599082785636 -0.47292537305281773 0.6093043980369055 0.26677303602933405
Ni 4.463100697692316 6.126296555705981 7.678404480995587 0.688246521059763 -0.12671759063492372 -1.384894378809344
Ni 1.6653026965168405 2.9703545714443935 8.782934520923302 2.04136360745751 -1.511558747608829 0.3867052283113082
Ni 1.3926573755067433 6.920899514344272 10.634625600137618 0.32331673675233347 -2.7361132197431135 0.16813986233545233
Ni 9.262218933573955 3.479262804070539 13.481617816300902 0.7685243321749087 -1.06247624261188 -2.004579091639309
Ni 6.7854028830320985 8.832693034505795 3.8015543358178063 -0.06069243278405031 -0.3171283485534344 -0.11860987392612476
Ni 5.021997618327734 1.3276052562611085 2.6146237073487026 -0.7207622342992812 -0.25388358166117564 -1.1001827560237183
Ni 8.720529407585621 6.753438337635899 9.138264436017506 -0.7289296006014221 -0.1305521338896655 0.336386168341782
Ni 3.779241338260604 9.050040805727692 3.7122531550864997 -0.2637442765053393 -1.4830213022907683 0.9364911592676065
Ni 6.202616084391508 7.125355661421186 9.451444587330554 0.4132683235118173 -1.0205142963577973 2.2640311685271977
Ni 3.920251018343202 6.136051125163416 2.560355445622186 0.41606439819971575 0.6544779092497504 -0.30612171303028574
Ni 7.24292096238915 1.2700245246588941 2.484869371111044 2.162281817801837 2.3354746691801647 -1.5437430456508574
P 5.235168837450824 1.8846644939730512 11.63628344938097 2.013718592046732 -1.2958858726894198 -0.9994628750041368
P 7.032469142743727 8.576800328025355 1.6305574955455238 -3.5708784253241275 -0.2794431752978349 -0.8107287334571005
P 2.320501627323853 4.411729106876995 3.131631666678467 -0.05975449435081322 0.9596727395903922 0.2226580479879907
P -0.13495089517126277 8.2242157998441 7.405175370814344 1.549760455489531 -0.45789573241320486 0.014954307316987148
P 3.528471869021367 4.107072834336266 7.519783672896354 -1.0241174403280233 0.18264756903332413 1.450413029337444
P 8.449731050725884 5.393181725189009 0.28875289027116147 0.11727958515047543 0.30263992512927235 -0.793190467463021
P 3.9073965191057636 8.993184009822604 1.3915603344887901 -1.3750521959079416 0.7796199278674381 0.4333509531943052
P 7.167381056762068 5.192929973891561 10.15093910157482 -0.2945679467544152 -1.6012275130205713 -2.376211998998527
Ni 5.916345922312415 0.7198259698612579 7.625589659399455 0.40656468623939657 2.845393074517564 -0.8628635064791269
Ni 3.5612810060642146 1.308588022371209 12.909458950567743 0.5058174957951482 0.22123545660885124 -0.013862616914705157
Ni 5.232310219569864 4.963126796188333 11.777488963350867 0.09627650053624709 2.420887744639347 0.24727044722003222
Ni 1.3828099937804461 8.538283236447471 5.189242542449658 -0.4870798101763289 0.8789560411656153 0.6240442753502414
Ni 3.528462587794481 0.7745870647354332 6.21931858029598 0.8900876323024026 -1.3040090160171864 0.9165355420812861
Ni 0.04723773236019167 4.526073822115434 8.705763903732306 -1.0919338857513645 0.025087281985930986 0.8124014931738331
Ni 4.812167640883688 -0.01426246135608035 9.906291529589746 0.5272815792061951 1.6852748184804782 0.013437099341512342
Ni 7.662135418386701 6.1590500053875115 11.818023793653818 -0.4691875032769403 3.8863764373629905 1.7447935426714016
Ni 1.454563158837944 0.8187072329845378 12.967299556522772 -3.606301027797796 -2.2297881881839277 2.3185663234606
Ni 4.745751181285777 3.305035612962098 13.169999695472809 0.7036451150030204 -1.1977779753713886 2.3690692173061585
Ni 3.227054744663935 7.314664846219762 6.137732883475201 0.17710401350727564 1.049534337739231 -1.1220718427873255
Ni 5.574536898546079 0.5539435298462331 13.607649452434494 1.5032527988462951 0.16299199958592575 0.6468540741559053
Ni 3.3410838981882427 6.9635281894327585 13.107078545920254 -0.7522006553142206 0.27026999343899905 0.2919299949109359
Ni 0.47520345718877594 3.9771078142482894 2.044923438617705 -0.36812669397817244 0.48240323063626595 1.811732470585796
Ni 2.056125879469393 0.8559806401596656 2.3379308432935173 -0.2143410434818631 0.6696541027695564 -0.16220858445268194
Ni 6.926700281148171 1.5753490455354318 10.040393192500918 -1.2232087567396677 0.7223722590988785 1.130682210164156
Ni 5.241823477128256 7.552867534255034 0.5881597008850342 1.6711679467654508 -0.599630108171935 1.1145979030077837
Ni 8.812385710078708 1.5147426339683043 4.717809119622072 0.4635035655182856 0.46669070499701565 -0.18722978908736787
Ni 6.810072384095717 3.652775340708739 8.642543898674015 1.0083084983202248 0.4958891809378427 -0.5247708969691994
Ni 4.211031856689006 2.3382287706765656 4.621105232326303 0.3116673254388633 -0.7158897366983284 -0.8971255129857904
Ni 7.740478254533428 1.4627306384978325 12.66574785437549 -0.09106436020768834 0.615937587082707 0.584109901049149
Ni 3.251900589038392 7.591560969143756 9.422197585166645 0.6925975989396073 0.1705009063684612 -1.631078534943733
Ni 1.6757069518563121 6.520665167329076 8.115687629495264 -0.6144769433767804 -0.45143686416173867 -0.5601076245972806
Ni 4.649894670004721 4.944434405239451 9.588330618307598 -0.23945840737478113 0.9007417695821391 -0.09264096066618885
P 1.7394782617916464 2.4780875786252707 12.008146013927629 1.434334892828659 4.285118542234175 -1.2031978608353793
P 5.187416925121136 8.163915668764217 7.989831408549826 -1.6672547277539738 -0.33294731786356213 -0.9538481624888153
P 2.180754194097783 4.762271765143279 10.061148800186611 -0.7659108058114615 0.7292718144321892 -0.07668006646155827
P 8.270621934275285 4.808269525591468 3.801431823622908 -1.778055904268957 0.2951418169800143 -1.0023669360248093
P 4.181053493846461 5.1826927806360406 0.3678345120780322 -0.34226396727879765 0.8008672672819885 1.5385296197707181
P 0.8948151496970583 8.715489701386394 11.453388520483474 -1.5679844346967253 0.6206589038177763 1.3663567250164728
P 4.925352202761348 6.701871841055966 4.60063363018333 0.38686515092794016 1.8567434880788474 -0.8451987422095121
P 6.6781119002272 5.23202250153639 6.735578472738713 0.02033459779229401 0.0670911372215425 0.44693691940885605
