# total energy = -340896.4200332379 ev
CRYSTAL
PRIMVEC
9.01486701277874 0.00000000000000 0.00000000000000

0.00000000000000 9.01486701277874 0.00000000000000

0.00000000000000 0.00000000000000 13.19416910993038

PRIMCOORD
 96 1
Ni 6.340390436221576 1.8298377292240804 11.428907910344435 0.9931911830628122 1.609517006722873 -0.21615881341689225
Ni 4.689696146524252 0.3495487683483346 5.9114233929538145 -0.08477544187518302 -0.8707483085438423 0.3582109775263573
Ni 2.829820880036527 1.6615752343183388 5.008005695821054 -0.10010821557751147 -0.2160644539308731 -0.8112725217757125
Ni 3.3717676470468927 4.443067411692681 4.91656970153603 0.318908837492625 -0.6830485217985914 -0.11299766994566991
Ni 4.952777013860671 4.623788452966477 2.529506808496534 0.24064188615992102 0.15967836183166048 0.4143458728467122
Ni 7.348946725670795 6.278422239597838 2.7206111737259926 -0.18373900232529 -1.4776795783628809 -0.36031722523608267
Ni 4.95993481835867 4.545990149669581 11.452248302820216 0.37970180041028156 0.0791138727140315 -0.12392614393271559
Ni 5.528078789237029 7.809182737051606 12.313537722900016 -0.3008141847744432 -0.014247768168265784 1.1550873784813978
Ni 1.871008627388266 6.703662536795735 0.1069046047864302 -0.12377881972157394 -1.1009355750293428 0.35323280758547554
Ni 2.7494082652731073 1.5499441346977763 0.29654315262120995 0.10503316368295461 -0.16172213173456662 1.3051068770670555
Ni 0.5236510941782627 -0.07401386207742411 4.596413005965123 0.3141039599048139 0.23290080876192146 0.34188730066566925
Ni 8.808967560787282 2.211094489714497 1.3859024005804013 -0.41850026133471796 0.583680269710898 0.19967804215304966
Ni 6.808117802184047 0.8206666258368722 4.678850359885028 0.058197434276338486 -0.8719243311298145 -0.12231740468469904
Ni 0.6646805769832407 7.286500741089382 2.3459235469102513 1.2217116033688509 0.1765813082345862 0.7065861999092153
Ni 7.478120756718445 3.829335257758424 3.752276173565856 0.46105099021273505 -0.3620565765246926 -0.2973732774136943
Ni 7.724776536151395 3.923234113742255 12.611818040416395 -0.10828380940976835 -0.5565741575227253 -0.34288386025098366
Ni 7.969142539334354 8.980069738837695 6.659057875743279 -0.06906651578035847 -0.2851271130564896 0.8691321130966579
Ni 6.792954795678209 0.5827174050741595 0.3507288144551206 -0.007717937469547997 -0.20986423865743212 0.642002916711191
Ni 1.849661422034031 6.555935909202894 9.414396120611832 0.08632170331638037 -0.1415885942094852 -0.993292998747999
Ni 9.530337228205308 5.05243636993798 1.2672523254155788 -1.4111887937294987 -0.9952712055202924 -0.6134718991510338
Ni 6.413762439759633 1.9150462532985018 6.957404001789676 -0.429437477072512 0.0719129840902181 0.7163653907831663
Ni 3.4093145686264488 4.315389848587937 0.5181150642762207 0.05733302939351416 -0.2586961725584706 -0.10706973449700916
Ni 5.86080851998849 5.585602656367677 4.817943449231355 0.855969864683087 0.013235524853667528 -0.43631980601464215
Ni 5.06508422851568 2.7376258339394988 9.405318149416006 1.0334608292161362 0.07699502659881578 -0.44173994858894894
P 0.1941775334326925 5.578850520890345 12.264085767793938 0.19017344509672407 -0.23146227654318202 0.06276062816698869
P 3.8457062564591378 6.104164858053344 12.526596895527998 1.211231015552501 1.0400796200842346 0.5330843019309013
P 2.430426206888711 8.383177356694702 1.3270560524423776 -0.1624700656441847 1.2230658034039001 0.6306802926095202
P 6.425148216939701 7.677773018956723 5.707572907094984 -0.46111423935050266 0.3143204467909942 0.1332592484081834
P 4.699639544964168 1.0405770974805715 12.606566880315533 0.0056399718945967375 -0.3242896421885641 0.7687395335095083
P 4.206868878125826 6.011609217271278 8.102882600581294 -1.05164367077275 0.6144239786516581 0.27591999263592476
P 4.663219481775355 0.9838916129926366 3.6799724317822236 0.34478570525938684 -0.10952230980255975 0.8209542678398507
P 0.1607918745184721 5.382380506747525 3.493196104259931 1.061730365584791 0.46455103294619343 0.5169187479146323
Ni 1.6214771053421404 1.0547845280710588 2.6752889292503097 -0.7637544215900911 1.2226225452188944 -1.003084530917124
Ni 1.7462338514980773 6.533434800856538 4.7667362994958555 0.3551662771627625 0.09330327684053608 0.027389704866862506
Ni 6.013853919185639 5.4983116979871625 9.258836474973258 -0.2376699480157907 0.7033059864960468 -0.8580213478954771
Ni 8.466718130350824 2.3367076482473985 10.182732344269313 0.3683321251207592 0.38971624722349013 0.3630130269006909
Ni 2.3281525393448783 5.497978147903503 6.9403704103552055 -0.6579504411793831 -1.0795697077590567 1.1589545747462877
Ni 0.623263572946517 -0.04310729162283825 9.062890224610454 -0.8177367893438174 0.18326463379203276 -0.06696463894600725
Ni 1.3426472651366976 1.053161851988389 11.496699711131532 0.16743666562084067 0.6103276970950973 -1.2020979429029812
Ni 4.159306439169346 6.813679975200754 1.5533887154265993 -0.06336252341704572 0.11301823877096019 -0.5707825878126235
Ni 5.603605346018187 7.8546897863033704 7.988594819618715 0.0025893579937310246 -0.2596989027913721 -0.33528984995380967
Ni 5.193302683647978 2.6747831952045447 5.0123066889268415 -0.10146215850224462 1.0231483915465347 -0.5274695268472852
Ni 0.8236415319884336 7.5502577234602475 7.006367351097529 -0.36454848970861087 -1.0789094484672386 0.25135670147426387
Ni 5.187118484799582 4.456391385304825 6.897185590875084 -0.4473009876164942 0.05136215652205993 0.6649351000273322
Ni 7.977328038684711 7.154432937694306 9.001866786061516 0.5316033465100005 0.5070359415832817 0.6609565749955585
Ni 4.687153953994735 0.47327962262533896 10.503165796260985 -1.273166576715033 -1.344635017068665 -1.0914993693171073
Ni 8.330052744721517 6.902494446125552 4.866312718795606 -0.6023495639856272 0.54220349062335 0.3873320632620297
Ni 7.21516609752179 6.082961890573124 7.0528371881583425 0.3282072320754154 -0.526557556555977 -0.8793242231383114
Ni 2.3613182355012254 5.371166012042851 2.639388122407951 0.27679082527665233 -0.6291224612040972 0.33151804161620324
Ni 2.422880763104296 5.028096228697932 11.346444413309863 -1.5873456128321566 0.5656334395115162 0.6234146121860424
Ni 1.147556525664147 3.2695300389715634 3.880471190043628 -0.1268793130237686 0.48303109402825195 -0.47628606199493456
Ni 3.669537723083944 2.6455750257164867 2.7345310300551624 -0.37606317521642973 0.3378753512927987 -0.2547616133907548
Ni 1.1187450103296304 3.3605170928737147 8.301942586049398 -0.3800818094575196 0.24127180643443608 -1.1111261424090992
Ni 3.5408775394624734 2.8492659484271874 7.302590475935768 -0.39145508429146775 -0.5989320536636459 -0.5432627851257998
Ni 4.08268908346595 6.833972441101254 5.934314845046723 0.4793271628141036 0.6395853084086339 0.24144869833193253
Ni 0.4864521464697681 7.483448543189878 11.233436743479169 1.2758024716759835 -0.7213170783614868 -0.08922165057199473
P 0.2860913156753907 5.505172011870006 8.065081459748786 -0.0929554065828141 1.114680949639893 -0.7698250532642033
P 8.584866978903444 1.719306443392883 8.06876222999631 -0.8812533218402242 -1.0697372950496675 -0.36945775408477016
P 1.803433183412191 3.236526610423483 10.338000809699718 -1.1163164283607871 -0.9791213352333072 1.5581347955961553
P 3.9852113252331187 6.267478190906943 3.8060300232644337 -0.5656694349557742 -0.5503315190471233 -0.6654732319189893
P 6.724441805521036 3.8979383965868566 10.411769467391316 1.3422724303737592 -0.8706999718044102 0.32930406468401996
P 6.209728952098146 7.825391468144053 10.194632870362272 0.11394512146060376 -0.3873318061517136 -0.525665640869327
P 2.470037533040108 8.441972320090109 5.846138626714442 -0.4584428631659266 0.30344159509496127 -0.7236071599472441
P 6.81368899006788 3.9365761170886517 1.637198132123074 0.5980558217062797 -0.05505554621324712 -0.39464350932177844
Ni 5.437010601530744 2.909061562073573 0.32219225256794537 -0.5336013507766358 0.12466482187095304 0.10570602138026311
Ni 1.4599036418438491 1.026676172372366 6.912953494965073 -0.33452263277048194 0.9253968491266578 0.7212602569816223
Ni 6.758058245033681 0.6821000047307021 9.104834598374046 0.6441886115086002 0.39380995767688953 0.09797137174016676
Ni 2.6490998387627305 1.5434804749684745 9.295859632772796 0.34783889026341386 -0.7125796984884889 -0.7084795602771863
Ni 6.391207242210522 1.8020989830775513 2.490174943226042 0.13600878612886252 1.1835044961715102 -0.04620580913210107
Ni 4.180166841698781 6.771030638827914 10.390790970102532 -0.20082552549393157 0.7288010454433578 -0.4876289978115796
Ni 8.285077572630183 7.105031465844133 0.39305541858485216 -1.550926450773174 -0.40730182151573724 -0.2968055778356824
Ni 7.5311101456847425 3.840405514589083 8.107672199485307 0.75248296244133 -0.3523516905321029 0.6110764023356637
Ni 3.1404551714622997 8.38913618386495 12.276211665565047 0.24253421808662748 0.26642208044781857 0.005167403133552391
Ni -0.054931191345226185 4.846203254697763 10.137594904569712 -0.14918620405108501 -0.14776721221637132 0.6196255774572554
Ni 8.555063828185073 2.2796705839415523 5.80399592587408 0.6983306447686425 0.30770165592289583 0.02366854726153343
Ni 3.6636239702493243 2.6389761429802956 11.4283543975029 -0.752195255997582 -0.2803960261294074 0.33470955197030744
Ni 1.1715360722191575 3.2023422342819043 12.692249586400779 -0.592841624495192 0.7172632200070873 -0.5896951084464102
Ni 3.1829422402268728 8.255058065100789 7.9115005774443565 -0.238930302785453 -0.09772865960174136 0.9135461204356589
Ni 5.591354141594029 7.790630140506414 3.526273454718444 -0.3916530592348868 0.9777445094904388 0.7517406849586666
Ni 2.870261573963511 8.44016934666492 3.602258868236312 1.7507402471731395 -1.097205418562949 0.2452374759504035
Ni 3.3440469306346152 4.274777872185561 9.300556378545414 0.7012118229711795 1.3099701186966277 -1.143476790825663
Ni 7.106473844584284 6.238351155223018 11.389246100937132 0.9556551337905671 -1.0365536092088472 -0.2086704754596471
Ni 0.5667277352528728 -0.0559084029416785 0.24935933808401992 0.26264564412452185 0.6245415267016341 0.6214076090583426
Ni 4.614656392567896 0.2768781214726761 1.6090681407432788 -0.4746433841851889 -0.45426302075662406 -0.5325266296552184
Ni 6.045442013594946 5.524914570875823 0.26284377633100675 -0.4520678128775182 0.678623139037386 1.1215182842767009
Ni 7.757329221343178 8.820155010890577 11.39531581097303 -0.28220685408590107 0.18047370131045692 -0.37402429040953
Ni 0.07993302383231883 4.719228851228844 5.736903678775954 -0.04274638982859089 0.38342964288383 0.6802614459717574
Ni 8.048013611819236 8.91760572452203 2.4783798910784562 -0.5082363896492861 -0.11433901446491276 0.07042765779394322
P 8.575527576560967 1.7191441757846162 3.646987032968395 -0.32817715016842836 -0.8145982437148359 -0.7428865770021463
P 1.8160630122556383 3.306545083390689 1.6683499069634855 0.44538217332722646 -0.9494258650514036 -0.26548439912489763
P 4.617766521726346 1.0077719960092617 8.166953064218802 0.5554773249141208 0.003132889202026862 -0.6834480712298552
P 8.407238037053846 1.6176097273451104 12.403113048610246 0.2233170217282283 0.8203552008032712 0.47414690416474464
P 6.329599640271822 7.59021161456243 1.4226082350571068 -0.2607905931936541 0.8845548754096314 -1.207139619091947
P 1.7470091300709083 3.2926802177509873 6.0607285237804085 0.7476261485696609 -0.2960296189016063 0.015930040966695144
P 6.983051298762987 3.8761584776105766 5.9216489567347725 -0.43721454991476955 0.36601144740738256 -0.11032063733413904
P 2.366014981273842 8.571137336270631 10.228753240947254 0.5070133158754623 -0.8789030764404928 0.018686777776225884
