# total energy = -381170.5550725911 ev
CRYSTAL
PRIMVEC
9.21314122137957 0.00000000000000 0.00000000000000

0.00000000000000 9.21314122137957 0.00000000000000

0.00000000000000 0.00000000000000 13.48436345607435

PRIMCOORD
 96 1
Ni 8.48009776684349 4.768159965836167 6.38816373247938 0.4261454365848016 -1.6723385700347844 1.1520151673139774
Ni 3.0140976219052744 6.677178134285403 12.990377299468369 -0.4217321380084544 0.27970722759249894 -0.8624932676239019
Ni 0.10868834992718587 7.4816788509015035 7.037408276168832 1.5900650686458486 -0.08201793373470391 0.824234224142703
Ni 1.878439752278454 0.2623653904248884 10.265524407903094 -0.6211209310558593 0.023520194609127236 0.5667570115929982
Ni 5.107415470101518 2.685492509051019 1.3159507541967652 -0.5160692554301435 0.22902718473912817 2.622718057248709
Ni 2.2696665869503665 5.784572146852434 7.172427784100265 0.5368339987813205 -0.617155518650208 -2.8103659077101018
Ni 2.9903000777747746 1.5621802488453633 5.880180599992136 -1.3586449581945117 -0.9819469776075606 0.832267893080457
Ni 0.3291864620740135 7.375856709251127 2.2441618477260294 0.8435051565571731 -0.9297044753630762 -0.3527227007182764
Ni 0.44529507605180124 2.574308319129659 5.741413186155831 1.1807698708491665 0.6004523469629144 -0.17693509202957916
Ni 6.32636013761441 1.4488033312805426 3.837906318867596 -1.3479633101109494 -0.02112778311755071 -0.44213564136547084
Ni 4.319636605052145 5.18298165552868 8.444987406438178 0.33727654136653523 1.2406840307062956 1.3051379874153073
Ni 6.814877745038191 1.0003352493446747 1.3101584522243128 -0.448712266141724 0.27201422982361534 -0.3379000338831471
Ni 3.0790502684867787 3.3930341260041765 7.597912763601775 -1.7024811550564354 -0.2651324151021176 -0.7613180442344566
Ni 7.864383529816268 8.807772352420479 2.79862619968396 -0.5823196419179455 -0.03354826826909061 -0.19128930386872217
Ni 3.0276593659858384 3.689393244101657 9.959011486713774 -0.6877919500208477 1.2772353474677682 -1.291007718661512
Ni 6.891033571512335 7.602886938621541 11.056895476768371 0.2657664491416907 0.6741350213590455 -0.2282082883822586
Ni 3.619041696683733 4.426960488744052 2.8173012372188126 0.6469175804039891 -1.1311707197648004 0.048357565367781234
Ni 4.432820046648425 4.8525154881198915 0.4853952738171907 -0.1504257328851409 -0.8782168490067456 0.9014992165734539
Ni 1.3586343167992403 0.4771964993217467 2.1763356223546286 1.1334386898633704 2.0504920521213394 2.48864428335903
Ni 3.7678707821982886 0.4120402423162071 1.8675977275270903 0.36031002614723107 -0.07657825077637134 -0.1804809003993085
Ni 8.884794214182376 0.6060091139195679 6.5538049583459825 -0.6162399488144742 0.6140334280814586 0.4357325660526044
Ni 8.402679740003153 4.009061609837606 4.091439070671536 0.11446011342380932 -0.12961188146358324 -0.1756341138299685
Ni 3.1438186522411007 1.1571152758521148 8.517344654729973 -0.08054983382960966 0.27002599574899305 -1.3300818018448382
Ni 0.4841395226499483 2.0038858850236676 9.519610057189373 1.0676667856738837 -0.2669257595571145 -1.4369677024658156
P 7.884809064209346 5.266443503100573 0.3899600277350394 -0.8166062752838001 1.6619099185022925 -0.9740539480127289
Ni 4.013299654862783 6.493302259040913 3.995538560950751 0.679050713493108 -0.7894780516084403 0.261382204031066
P 1.9936500849737315 8.04463864050664 0.7811905476634957 -0.2586820314910835 -0.02556165051918824 1.5360796155683285
Ni 7.419324310183259 2.205349647122639 7.85731152250904 0.42643494280076233 -0.001991062288099797 0.1704314865831065
P 0.726744567487885 5.922244118181146 5.500366083521714 1.1330944191500745 1.0242094858211974 -0.1967906933029256
P 4.29719339270143 4.815644496400858 6.313959249345089 -0.0038669391545739853 0.5130775197916713 -0.6741849007603744
P 5.550420159211453 3.592747391244923 3.5087530241024756 0.09603558817003462 -0.6377533974062177 -0.5472066002648962
Ni 4.829049617078318 0.3271236397237158 7.04734649175287 -0.5914704551792782 0.0666674194205626 -1.4404770011706547
Ni 0.18066785942325908 7.649367236778093 11.179292981037868 0.035315130361526274 0.7886789527459127 -0.37834245816890966
Ni 8.097733974159011 6.128627697765865 8.695742396122355 -0.8782435884796229 -0.08063802266804176 1.1886184203593078
Ni 1.2435161155175538 5.972170131205992 9.042236665553533 -0.7018455999004364 -0.11128325835772447 0.796349324806977
Ni 4.179154625608915 8.360990275353322 10.955667928713767 -0.29509630845405954 0.26463387819914425 -0.7555312623493504
Ni 2.691020393866466 0.13316858783239358 12.695676546815523 -0.5817396010447594 0.7585713347272548 -0.125646469057932
Ni 6.261822082394064 5.205452507303473 4.859886001207155 -0.92492119504182 -1.4869700025258712 0.5028805246540115
Ni 8.215708249262013 5.596108127211123 11.617857857326861 -0.5413506557047516 -0.6545632698747049 -0.2526983031038228
Ni 0.5113579061670741 6.543403321751582 13.337761558354835 -0.6672825172135863 1.6325556337098914 0.7043408555184644
Ni 0.05958507042570479 2.15574609404536 0.6891263900046312 -0.07480521803634858 1.3528260375198895 0.16630049513386844
Ni 7.381697840872783 3.434474835837312 1.4667210485956785 -0.8070224882501069 -1.1326131086382818 1.1775783604950625
Ni 1.5523866795806631 5.771231518164488 11.376002762195553 1.0454280288803415 0.6805987747065182 0.22425058928609123
Ni 3.639762051600301 1.7322179857685176 10.721862355187888 0.5488785886506805 -1.1208600818674115 0.6139773780325426
Ni 3.674882546461108 1.9063002917483076 3.7848183557283135 0.432760627908474 1.1936793798219831 -1.3962679107536082
Ni 4.678138361616611 7.165843151970931 6.1749753266868455 1.1731172393999152 -1.199770323211069 -0.14798909841919028
Ni 2.386737974200178 8.331360812742526 5.889565105780494 -0.7405389027055762 -0.15758522674805764 -1.201713305870053
Ni 4.568419061171344 2.194330730057181 12.764608349150013 0.3130822035085189 -0.4683701495819675 -0.2613639491986208
Ni 8.29022413657424 6.355492090591816 4.0570270663812416 1.9121566747418293 -2.672225419950217 -0.9593978886624511
Ni 3.2385113191297106 4.247709610461818 12.177957887854141 -1.2302533222912748 -1.177160299121037 0.8276828448129359
Ni 6.500700411552254 7.476970935667015 4.344028396800306 -2.6278353238706162 1.2198334125095314 -0.8003473902227765
Ni 7.633520633640478 1.601492723024552 10.136371828389123 -2.1937469782896537 -1.1809927854932498 0.5990734643375166
Ni 6.40914021272573 4.1149758829015735 12.940700962574354 -0.8883256553059732 -0.5267272493646219 -1.1696261955275211
Ni 5.966319786442978 0.6069930774167175 11.35179799721698 -2.5022436193100197 -1.2658217063141877 -2.3922083744267835
Ni 3.331066537223014 7.825476433856879 7.825731637872527 -0.8582782011012896 0.10656682671866163 3.6148710288549935
Ni 2.3420173860432105 3.7348324572846323 4.953359769493957 1.0378944395074579 1.0961080717337122 0.334386878523566
P 1.2191105040573544 0.5943176375348972 4.679303823998534 0.17774550374601647 0.4270373522714517 -0.8355360223087674
Ni 0.7667047255046165 4.006693832508324 10.417385538238921 -0.7556636741621566 -0.18924142020075796 -0.47867693082461427
P 0.636965268886072 3.510593809746019 7.9359797726318035 0.2798581513480664 0.6697908854577368 -0.1241284897515088
Ni 5.7511929357084925 7.358360953810236 8.703401280534157 -1.4666451749255902 -1.618748038402838 1.1836592765818197
P 6.322619602222623 0.012781391007449709 5.57791493696935 0.9849934777433682 0.3070172282613616 -0.1287544185592944
P 7.005110687820446 1.4464724065166956 12.71423089219857 2.416439736170322 2.0339385186380325 2.4528434716103367
P 1.9238605391787111 2.201351143772799 12.14390980264753 0.37070756733147125 0.7621834775585453 -0.10130146455466424
Ni 8.689936274437864 8.34081349577694 4.825878453822524 1.194919165766355 1.274791771023282 0.7960793589750419
Ni 1.3721223557489317 2.9466666402981785 2.8383505012818997 0.19780833593416255 0.6619230526738858 0.5550713477249538
Ni 7.044238899172453 8.771223820649015 7.7337006475225545 0.6903478836734821 1.5301923035496163 -1.0726655244400558
Ni 2.3853836424203934 7.977133953768672 3.355624165515638 0.17180574122281378 0.3399201496369694 0.09537892842264219
Ni 7.380288230244844 2.5797072199660787 5.593516470546815 -0.6996866445759047 -0.09781376311637993 -0.13232825195348177
Ni 9.035364583413797 4.883877021306194 2.0281155254839085 1.631738537125235 0.89141406442331 1.41574658830351
Ni 1.709277263784412 5.687262947817847 3.6070535571473004 -0.8483653128629518 -0.18983200259690533 0.4478044096154739
Ni 8.685348130041042 9.020595917815193 9.335683509667408 1.0936392984782455 -1.2573733184365183 -0.49256860120504203
Ni 8.36991780933027 3.0102096762517436 11.77218626691865 -0.7368177451002471 -0.4989819609305536 1.1835435769395617
Ni 2.087504355998665 5.335394653031917 1.3444663480172496 0.2804903856154266 -0.12209011916524135 -0.7994089375689072
Ni 6.349079744205897 4.450500064916497 7.410803997054384 0.2991344830791752 0.31478735912508365 -0.09761424551106414
Ni 4.164238549748567 6.896754932296322 1.475216486242885 0.2020912795802326 1.1304724081461952 1.913527586947427
Ni 0.46650096351799236 4.248621711456368 13.24227932525175 1.7497717126122834 -0.4586585787211585 -0.7080396445262903
Ni 7.471056098914486 3.775093885023806 9.750206693579887 -0.1745917886083832 2.336070393782635 -0.6670855707114318
Ni 5.182438080188495 2.74607812662832 8.709253467925443 -0.22013013935981443 -0.545180570973803 0.03333872336144581
Ni 5.211708230286288 3.6469206624363046 10.820149989834809 0.8572960396936783 1.2226971072105717 0.4968929396120087
Ni 7.205404380966814 6.670959263868025 6.609684503317066 -1.3924017429299826 0.6077465666314823 -0.6687395613750869
Ni 6.429326205443472 5.636498538929324 2.278898154592163 -0.17488129482434397 -0.19776642695263358 -0.009166239880300341
Ni 0.2532480657359442 0.8383249224876855 11.968828792144416 -0.7141305879153765 0.04537842813479927 -0.45177727822029295
Ni 4.399800148017488 8.872632867588392 4.357917207399117 0.1419277227164588 0.6273514853466035 0.25532314232117964
Ni 9.162782328409854 9.26160248262733 0.700976332420678 -1.8047755796519884 -3.148511739055468 -2.225522470929038
Ni 8.442379166119421 1.9081981988682775 3.0063521339646977 0.8744105878867778 -0.33284421662679453 0.262040149330039
Ni 5.0606127119974 2.693572434022931 6.241264800079552 0.16766472247124672 0.3488665601969798 -1.0011412911478244
Ni 5.365033328784072 6.6373497241901065 12.783958709946484 1.2301047125285525 -1.4728600454870504 -0.7410718923909108
Ni 7.106796129000596 8.084439411177861 0.12173415809164115 1.9399988937650783 -0.20756952908598442 -2.2099333582415297
P 1.2267850508094669 0.3283443809537937 7.934078180255291 0.41872086198595626 -0.8663486368142499 0.5969335351763784
Ni 2.4171321275437783 2.714495478049398 0.7550344393450715 1.0352063511523333 0.12205746615509304 -0.4365031256700418
P 5.328595354708917 0.5850261844742665 9.041791670825889 0.6665474388197746 -0.6767022678655894 1.9782000874251482
Ni 4.809959988182307 8.696680293912708 13.325531113200658 0.4049145522304833 1.4815303195675387 0.4520516149276021
P 2.3051924600309737 7.508645715659527 10.099747748858514 0.3963100983909239 -2.0377836034157357 0.10296625385159686
P 6.164319407390935 7.8189166772092165 1.8591833655238437 -1.7584242460809587 0.13048425676620756 1.6292499663754265
P 6.249789719779106 5.712414823728132 10.339594379173542 0.000895515231075877 -0.8916207811174773 -0.7538207074161469
Ni 4.041455014856127 6.026500025800479 10.874060686497456 0.252826601151571 -0.5711273727465519 -1.359049906942414
