# total energy = -381166.3696315425 ev
CRYSTAL
PRIMVEC
9.23882831851524 0.00000000000000 0.00000000000000

0.00000000000000 9.23882831851524 0.00000000000000

0.00000000000000 0.00000000000000 13.52195911922028

PRIMCOORD
 96 1
Ni 8.262801388876028 7.343861346941323 7.299343129617977 -0.21674451071703318 0.03970940277448 -1.1001333908430213
Ni 2.9671790039503065 1.9691915483646367 6.739208684894408 0.1462705730661868 0.046917233376828876 -0.5426120389156784
Ni 6.171832846666908 4.383010940273731 4.293965266798891 1.520316439196801 -0.2620810298703035 -1.4125900449523994
Ni 8.345950842225571 3.129237288528566 2.695913151225571 2.981272534157414 1.681501210370659 1.7403805012053704
Ni 8.9869130227846 5.255174795285242 8.79919851243393 0.5617500452967099 -1.745012600660743 -0.41393063968616456
Ni 7.3165606097582225 5.131854917139719 6.829130199277865 0.8990353284139936 1.5782642193561789 -0.7593745473548406
Ni 7.583285578447258 5.210209418679439 2.22533621105635 -0.4583461896870622 0.614827898958296 1.0051673815880817
Ni 7.083003034127505 6.321936087619134 9.225139902162303 -1.577785222837231 0.6740537744991488 0.08843206479116382
Ni 3.5038810088371592 2.8575233526385584 2.9363749031327453 0.4823962886577305 -1.2269471407361774 -0.9109662755236247
Ni 3.719921766295573 6.664539551903703 13.165520433537596 1.5511043711119352 -0.2476311729935606 0.47831594794076976
Ni 8.490196666130728 7.769799041138434 3.165531101032827 0.9850076188107554 0.20919420917360101 -0.27343322165832906
Ni 6.281183616649709 3.01200579813386 6.176735892766087 -0.2910524774019891 -0.951104281195091 1.2207353554985105
Ni 7.636944692342163 0.6104768193126427 6.535812187642016 -2.3076309074950188 -0.9240187378322088 0.9142665435414512
Ni 3.830907808860913 3.2392624929663123 8.580656804195327 1.4244232901419016 -0.8427950178640259 -0.1330612734647644
Ni 5.76003979836737 7.512959618569844 6.890425204638703 1.2019128234753689 -0.8817171488505202 1.4712345940684854
Ni 0.8595713322431299 9.001898402043818 4.68661638705455 -3.401547370894052 -1.5718462316449768 -1.362744582185182
Ni 2.9159681795151373 4.580721862682646 1.5419086807888929 0.3891331210265105 0.18952629843102844 -1.4653328838720698
Ni 0.6649785143348234 1.238852944282997 6.500911590422766 0.4868188432054584 0.4448370994570339 1.0085260136476695
Ni 6.370301352984119 7.221188186766296 2.869183677646609 -2.112918436877361 0.24974384846118927 -0.8830230121461373
Ni 1.3351492500899185 5.643491981255759 10.778271911387753 1.2772623440509616 0.037562017414174025 -0.6211628400373882
Ni 2.4848105474133053 8.980482798392236 2.6484920940975116 -1.5162355842592081 0.26822570931546064 -0.4749488312407498
Ni 1.4864720163579375 5.875294179537987 13.229492851296287 -0.1157754898011232 0.706707555978428 1.265728375269433
Ni 1.9654960171046567 0.620810448598361 11.73220586270602 0.9273771127814803 1.473596666542759 -0.861088159746259
Ni 4.535553231857544 0.5221674804413526 10.795066253198732 -0.14339325151839175 0.46757799269797534 0.330369786944373
P 5.367786871604975 5.306043783078864 2.0881423846780485 -0.385903044124987 -0.5481987889748365 -0.20691929709649526
Ni 0.2532566050120393 0.33362609497126294 0.1414778709914331 3.265687708748543 0.056000683735335816 0.024214392462674428
P 7.3902033089414685 3.4714065278900876 11.388747806817582 0.030997476822778872 0.9230064945176103 0.327346683847333
Ni 0.3790136860235187 3.949386541055863 12.516344010870444 -1.3811680789976923 0.8191979472703762 -0.9239423760683183
P 9.064251253227825 6.961946668878721 5.113774530450269 0.22011214163768542 -0.11551040906519462 0.8712597009626221
P 4.537336325690484 7.477427085505139 4.62553757027242 -0.1410538047519377 0.4698125384554489 0.5481355398370689
P 0.9062643697129734 1.1355351290821145 9.508709102334326 -2.1328969368818167 0.573179113069258 1.047570272034325
Ni 0.6765242778738151 7.778030837020038 11.971341842773677 -1.897457163748126 0.22087318817342605 0.5948254876944401
Ni 1.6513111882093323 8.575914513705957 7.462890713294009 -0.3881815557465186 0.24190712602558986 0.5252542643635212
Ni 2.5851904152625043 4.380987636908893 5.989362295174151 -0.2508645923291937 -0.6098047347120917 -0.2755680086131448
Ni 5.267407003755776 2.9453106977193766 10.602514292428749 -0.4689419629250375 0.9333587842862119 0.5495329344052278
Ni 1.1912637404826085 3.1574619085266615 8.108402092834075 0.7087145591061278 -0.9769497815032852 -0.30880285940687463
Ni 4.095757295435509 5.242619227829461 10.245926013973602 -0.04322872878164813 -0.027003010951405105 0.18503483831857812
Ni 6.879416217015223 9.158912286452205 4.323565548308513 -1.2316448033221628 -0.11671111424151513 1.1878684295671607
Ni 5.665794512409738 5.2714998046262025 12.211180897663544 -0.13584320708527572 1.0379425191365736 -1.737444558505498
Ni 2.5014404380832143 8.58060783840613 0.1540971863614488 -0.105473850764799 -0.22391634587512405 0.6855268081357548
Ni 2.1001149820775677 6.498591720674314 4.62914810431342 -0.6501070338755642 0.7766991546762172 1.0248054675339833
Ni 4.289135207442097 2.8163920897149843 4.990089718592824 -0.4790913926542137 -0.11032449398888096 0.45774995086396
Ni 8.216413232735132 3.1866011725116015 7.402312640997607 0.7693457996349395 -1.1462641237628128 0.745449195523
Ni 2.8252151705981863 1.235951952243913 8.935959037772001 1.0403089624862212 -0.7904293597781161 0.15832210491408216
Ni 1.6285189991634075 1.9749380994739052 4.252385920710044 0.6944451936713073 0.050233185123939296 0.9712982396444625
Ni 8.30937432157992 5.957741481948134 0.1938546355391255 2.9716036436090825 2.01570579768009 0.13863568222874834
Ni 6.790095226461514 9.025697623358088 9.996432383667036 0.9594387692027153 0.8807198179342575 -0.7260337671108658
Ni 3.832727858006453 1.8841296575880537 0.8323574400446393 0.7622451840344163 -1.506979869988895 -0.22663194503407422
Ni 2.7879826931538902 0.018850904957156484 5.353384462402018 0.7989111719968822 -0.31823726534689706 -0.6567651626220302
Ni 6.292122389179248 2.866614359538109 1.9730700084219852 -1.7816672757692993 -0.6157910342025137 0.5007948457695762
Ni 1.8350345247992232 4.209976927853332 3.587753862430844 -0.7103855190506475 -0.006023066265628337 1.3033469569531555
Ni 6.293822333558839 6.896914557531227 0.5948188533641087 -1.5744394462934497 -2.543440148152987 -0.32465602438904734
Ni 3.2030185701340614 6.874334861532751 6.956696242841104 1.0008031910821151 -0.19199712856902418 0.05245513247592257
Ni 7.102681738086897 4.216037599119699 0.06558182162241487 0.866270989498779 -2.002065581188836 -0.9027816828303032
Ni 8.322003799660902 5.6980749779656605 11.420957133396751 -1.3740132131204659 0.3099855668610661 -1.0235800797673147
Ni 6.777197822364184 1.5625168108601697 12.297139878653487 0.055183587150679156 -0.19401518744031748 -2.351872393811898
P 6.19526251485518 2.1029143470070024 4.151389823023243 -0.054361605470016054 -0.8085525517413881 -0.5936281249522293
Ni 0.8496497546928993 5.992830551261642 2.5958917499085903 -1.8003522537733123 0.12438817117079867 -0.8047825431759946
P 0.42807648291382433 3.32164512357941 5.663415514161126 2.8487964437721582 -0.4484189032710213 2.116097091715659
Ni 4.776169272194823 8.345396512536572 1.583610903292134 -0.8973543411671449 1.171249332953241 -0.8211915806616373
P 4.907268243642603 6.3034584313192354 8.609999322399565 0.7769750340454231 -0.18102391738697213 -0.8229278466264537
P 5.996313589474172 1.204650802471885 0.5549089635219578 -1.029613430445588 -1.369074638168268 2.787690834710089
P 3.777341083247508 2.135416544438524 11.975005962017946 -1.3953646822130485 0.653971659037293 1.0417166414670254
Ni 4.464257195024386 -0.04917551059373496 6.653506543327034 0.5522122810096037 1.9909021083728484 0.4495854127752966
Ni 8.536640255240524 2.391572293724017 0.5731103788601729 -0.4888708406384807 -0.2143346157239599 -0.5949447868811238
Ni 1.7669536001622472 2.6723310423728255 0.0849907517998283 0.7847251103044873 -1.252536044948875 0.41925796543634897
Ni 8.333469185394987 1.8660862262112028 4.919275024706276 -0.5038542014211903 0.9411947353908628 -2.181305667202508
Ni 0.8963871385378627 5.940326290885481 6.876267624381721 -0.22148176829170244 -0.02070509375783531 -1.1671854472965124
Ni 6.0431267317099655 4.115860985489799 8.435106457755396 -0.21897108605470678 0.2695490561125745 0.6487664606872697
Ni 5.458909433647924 7.52289135883104 10.719032545290277 -1.2307469740982417 -3.190068993671964 0.5165855329449297
Ni 2.148988382990799 3.3966089751880983 10.67327447722921 1.0598863703975165 -1.517193063076471 -1.2108345514450307
Ni 3.1541359303926795 4.520724912676875 12.305009512471614 0.5766984390764262 -0.4727667359877664 0.9868616413003586
Ni 9.061479604782841 1.548603135666346 11.829685662398951 0.1538738393347414 0.23987415475596108 -1.1022668922462564
Ni 7.897331824920333 0.9973037823025735 2.6847175392734624 -0.9101586920206648 -1.4999764420878683 -1.6073943039529155
Ni 2.8115601825925607 7.760837377832983 11.161565946493143 1.4092627803513795 -0.7861155628941107 -0.7061557972400161
Ni -0.04639000390652526 3.1652964347978187 10.131043957577427 -0.6056596021954667 0.8925702895149402 -0.4906032499485551
Ni 4.927972457526639 3.903275549759466 0.32630894307650316 -1.7948899451071603 0.30971174437438914 0.6234233539367909
Ni 4.307428087178997 0.27747434524150133 3.595070090442788 2.522477172748075 0.9101669195507808 1.3218627563691556
Ni 2.5193175705533655 4.94252361186281 8.35258154918879 -0.45184644089533155 2.81249786645144 1.0580865981846166
Ni 0.05137897110749786 7.365184562311406 9.589557163591715 -0.07925014118157964 0.8841324431602321 0.5037585563835905
Ni 0.8235389785755126 1.3469657112937035 2.1720863772484877 1.0827900144685674 0.354637401242486 -0.15424099286617307
Ni 7.167556789355841 2.0160416459130293 9.644239939645637 -0.29886605990913695 0.09573014111447385 -1.2754222055184292
Ni 5.410165376328791 8.538451065557913 12.745230434988548 -0.0341722750063347 1.1118748476496658 0.37111945805790925
Ni 4.2197516080359785 8.432657244412844 8.90241192887672 -0.38918068643499426 -0.4585709041033586 -0.4421184149742902
Ni 8.754085314577729 4.692077458373984 4.556467167140584 -1.2729557462558077 2.3628016391298923 -0.7608503605694187
Ni 4.099378916070289 5.337289499881992 4.011153650535164 -0.586577645863351 -0.2827971793717323 -0.7032545644328212
Ni 3.0120150369620102 6.718198665798608 2.4560205111324334 1.1895098218253255 1.1193225621769625 -1.2237278624679313
Ni 7.688598980528529 8.631227377839704 0.49194265414879357 -2.2368096138070834 0.05351956918469493 0.2731102911012716
P 7.565168236445208 8.013417700624446 11.71061102578833 0.1686538258573934 -0.8721094505574271 0.43876389667976046
Ni 6.727705419964907 6.751125849325027 4.983599441817484 1.7914878614041472 -0.3021069354439378 0.7585587363217646
P 2.175845656422702 7.26625519048175 9.086959368937586 0.07873052123268377 -1.0673798505610843 0.2944458193542542
Ni 5.1394030397382275 5.432735833499118 6.092074967131212 -1.6076971799053152 -1.3302782341263606 1.2929895249782313
P 0.7644520531425122 4.140667239072412 1.4550036437963951 -0.6705377909260902 -0.5400586763662054 -0.6253601659481876
P 0.8037919072878111 7.911993845194303 1.6166849841861375 0.44319750697108184 0.8780201596149072 -1.0005386245668189
P 5.389137803459507 1.3293934601525 8.031908291283754 0.16933876773955997 0.9798769824524093 0.7455358416995354
Ni 8.519252780662319 0.059247681042809655 8.465164985141255 1.466598895068687 1.1640240188493953 1.0973334595003812
