# total energy = -381164.51442646654 ev
CRYSTAL
PRIMVEC
9.37230120047571 0.00000000000000 0.00000000000000

0.00000000000000 9.37230120047571 0.00000000000000

0.00000000000000 0.00000000000000 13.71731017362968

PRIMCOORD
 96 1
Ni 4.941808089600157 7.67904480991897 3.023075965762493 0.2563850079267907 -0.07741463063473765 1.0328756461366277
Ni 1.3333972532656668 2.273307824299621 9.6724591764847 0.11972213315369705 0.5065037232288955 -0.15135955755331998
Ni 0.4527805440633373 1.1708346936403558 4.761155114720376 -1.2165763390248143 -0.2992895205998007 0.3007933588388368
Ni 5.215601116658917 2.025663516834669 1.1631034826034623 2.4110956982495897 0.5674951753106033 0.8423682147392525
Ni 2.230101517013793 1.9182382035786694 1.517285546426373 -0.044472885601394375 -0.5651899242161944 0.13667675873016463
Ni 8.274598300194597 4.821533351769565 5.20292039350106 0.357998604405235 1.8059508309070125 0.22803679580140082
Ni 2.6588093061392457 4.758701446336985 9.74040086038414 1.0035987515493812 -1.040412577943621 1.0127750187320106
Ni 1.2547730207665757 5.540023313339813 0.3236874082880089 -0.6874119409736097 0.03519788805737163 -1.1828514359685434
Ni 8.85530606579761 2.2500270287902944 2.9655722134084375 -0.5155357515241766 -1.6309535793300944 -0.6627062106968136
Ni 1.2647264043538968 6.5439935612281355 9.94819039537572 -0.3431054893434865 0.6140478262591619 1.1167121211373092
Ni 9.377924310238463 6.584856793281542 11.925595934723463 -0.584226114912039 0.03469318050681122 0.747072590059036
Ni 4.406865269436773 1.964527997870362 12.976341462091634 0.23459028064920243 0.07110874302136785 -2.954831052136434
Ni 2.4405659066907024 2.8520848959111205 4.59133464525512 -0.020253608042713506 1.581448530621431 -0.26181903445816845
Ni 7.324481293448221 0.029683014274391604 11.414420332487659 0.6772067183058337 -0.09786698495181854 1.6820226300917678
Ni 8.704252691713949 4.431776845307865 3.0344604997017757 0.5694379008592709 1.7297363912279629 -0.8881554482766961
Ni 8.203106388702993 0.5250850340455446 9.095536883227187 1.1503244098751157 -1.2557627794162889 -0.37434876362848435
Ni 2.7820269464617575 7.293965081621181 12.8463429620465 -1.1574684771190646 0.5773558701547671 1.4907078723017486
Ni 1.8865879433391377 4.579681126279156 2.4374421187908393 -0.10383837204390504 -0.4390099512522955 0.5539524036291621
Ni 1.8846947385513422 7.000246542785919 5.896906474290659 -0.9190999603743527 0.9952274967665505 -0.042553042870862194
Ni 0.42917921586221547 3.3768400249639403 0.8818229243319794 -0.05043990181810668 0.4274345877098703 -0.1049017803114129
Ni 4.108657398456195 1.4650687090267505 8.93468758021182 -1.8619209185147287 -1.4776101585775263 1.1411561131122863
Ni 7.36384495735288 6.581370297335702 2.7688663614962996 0.1821109798035638 -0.4437289539945196 -0.4656802614546302
Ni 0.46861036033356795 1.0048793610785005 7.0746204368134 -0.2293974235943533 -0.4994735558549914 1.318500267654826
Ni 0.7906726116403702 6.653462036086805 3.497021977015328 0.1649493804226127 0.2659988768674709 -0.28365695626886633
P 2.4591136902305397 5.428764729003575 11.975911132264454 -0.386072994043948 -1.2653478520015629 -0.7884370119384356
Ni 1.7037062352982792 9.312177619216754 9.265260817992866 -0.5971741904322748 -0.6752696491841208 -0.6274437879500936
P 1.7840549711684315 0.7818045405007065 13.169001291692428 2.4141871926907195 1.843206629934677 3.347529007696067
Ni -0.020069845210818154 7.651827648019177 7.684560409016087 1.4348514274537612 0.6875752060243513 1.0271603409194052
P 4.047250082764927 4.907139948461268 8.006643279384935 0.11594184017565838 0.5647849754682919 -0.5913467851172203
P 8.427826048093946 5.792006996135207 0.746568437925479 -0.02780390958614566 -0.14984774889448388 0.6130530664460603
P 1.1020420048164998 4.569512179770452 4.379127944835384 -1.9735448480413236 0.2811213343312062 0.0399207474543377
Ni 0.383791974150051 3.1478184794462636 6.192995268031037 0.35146645971367213 0.665428494723983 -0.029951809167083898
Ni 7.907101008440889 7.943812311182448 0.8154614103692827 0.31519539319677975 -0.5393472521214775 -1.0781206340173561
Ni 5.726878876974856 5.693682187081928 4.423215248408602 -0.9089034794573251 1.6630969968318583 -0.44116916368714343
Ni 5.464969927494931 0.7086762252667801 4.965048584215485 0.07552127026676671 0.5948360292174014 0.09686862559429124
Ni 2.566323440565157 7.100708236451166 8.200564620690864 1.4234429285065036 0.7476222919149189 -0.7634348334671432
Ni 0.7705971430489942 9.00208567065734 11.993057756815304 -1.7022029616943846 -2.2134411142844717 -2.2526800051804368
Ni 6.835903245983969 7.497400245600829 10.500600372781749 0.5565345625340414 -0.7936890043659943 -1.0744843228163494
Ni 6.948127177315964 2.448045002832587 6.236835142859711 1.4661900896660427 -1.9197170035875908 0.30667604287185896
Ni 5.094220447318624 7.6661391515388 8.678914676150557 -1.1648773679886262 1.0732350237902808 0.10809380488614932
Ni 2.833855770602891 6.657960740533052 1.5433349196303277 0.8539515487014777 1.1336454065575379 0.004182670622779893
Ni 6.258653859424007 1.689385359477727 10.186570183371684 -1.1631562715324613 -0.06826407448372114 -0.2124140016624793
Ni 3.233893691184451 6.333332353231702 3.8224516960461643 -0.2698935839361868 -0.6511059074537239 0.7628979871270667
Ni 3.1861137010449383 8.179610030272285 10.83737432485787 -0.32802931173665445 -0.9286122707401621 -2.0441699665580537
Ni 6.980180446495472 4.0147469431407945 10.825165965666868 -0.8183181157685843 0.17827875054166717 -1.7391494570117467
Ni 5.18384776110916 7.6219393803544255 0.8707926633678382 1.0334410317217946 -0.6181459075879354 -0.04159145028854127
Ni 2.457089273229729 3.3070444999406083 7.562599594248246 1.1175215044124818 -0.9024479536399684 0.983295778325971
Ni 4.861168812401184 6.274568026402605 10.769103673195797 -1.3807327912324865 -0.7464845787660499 0.4776495180013645
Ni 8.734890743453073 1.2609493670792353 0.6375929460957102 1.0845831018132481 -0.31932972708012747 1.117893800150236
Ni 7.768166019459303 9.338148265092899 6.163942072379119 0.7300495731384782 0.367807877186173 1.381860991299659
Ni 2.479854592187923 3.0289120975514052 12.378843219373099 -0.6544673677267889 2.1758937521583173 -0.30195755435026705
Ni 0.31849234188268694 2.186501573088919 12.439322677272328 -0.20178069031834928 -0.02441596695051924 -0.896480937423256
Ni 2.5735213676791515 0.8002989019252452 4.318003672632193 1.0059844781727385 -1.700484179231065 -0.45050843881019836
Ni 2.7946701804158964 1.0435401024134332 11.224133569482259 0.42766675832533446 0.3788641350003346 -0.360277887357715
Ni 6.582916726989098 0.03553039282441937 2.164742839250572 0.05560190563502037 0.21859981875821707 0.9900061004666111
Ni 2.5996982041757497 4.769826367540517 5.745509136762876 1.02500292825677 0.6107449871381739 1.3190209160449864
P 8.996893415942298 7.889987186943292 9.837093951845564 -0.69733794183807 0.4234226383369998 1.079840187811624
Ni 8.804198908828063 8.71622112000115 2.8831868765462656 -0.03673155109307868 0.5718987036949377 1.4149215212990536
P 2.2234096941500012 9.19545498343851 6.961932576585385 -0.17805506456663528 -1.5390968051280978 0.6203627127335961
Ni 6.765067395557442 7.845262566906856 4.751140811177011 -0.20947085987375538 -0.30733784482557397 -1.2722188680897832
P 2.552489924392948 8.461688171352883 3.135338323528301 -0.2926187934478444 -1.665471924821938 -1.620195826592958
P 8.4438526826837 4.5235410437103685 7.3257568636047505 0.444951256437395 -0.028204230348357878 1.446709869454244
P 6.977649925244458 0.42025397368688056 0.05421969810829556 -1.9192112675957653 -0.25010097469029186 -1.336383318582834
Ni 4.362984156484009 3.0869172680051986 2.9341600096125195 -0.864411567692537 0.166655564480442 1.3883903077777442
Ni 8.057826351992013 4.475789170473646 12.782612252954763 2.4504423183680117 -1.4726628418745797 1.730226443490504
Ni 6.139344468589172 5.745642223436077 8.978528392270588 -1.2985099405758282 -3.0463324998815406 -0.0709814734148842
Ni 1.1594660926126532 5.16064194400727 8.021704566978931 -1.7682232344492517 0.08222953552487773 -1.2840791098624786
Ni 8.313034106307217 5.457912584894881 9.41283144505106 1.4323916530593588 0.5562005762333906 -0.5979979718851507
Ni 7.3535166817283715 2.167944417248151 12.30261642145182 -0.6432910393949953 0.22391583165449178 1.6652880909459065
Ni 1.1734683102015961 8.866346636292775 1.2278735798682994 0.6585477084437498 -0.45533748476772545 -0.011164758367567869
Ni 3.2119156455043494 3.9364507411742427 0.7916904435213336 1.2287096319532387 0.11205433219579412 -0.9122556837590096
Ni 7.473697696549667 2.7070110498205935 8.503840094784122 2.3933867110056006 1.3365308999042917 -0.28002398750196933
Ni 9.004944222440892 7.31483719579158 5.482781048181696 -0.9925070125115938 -0.15789015958298616 -1.0387799274362044
Ni 7.164467999675784 6.885304644184315 7.3462090986935005 0.6099255765606721 0.7498100435948571 -0.8211216466556505
Ni 5.013187533480604 8.125878629042424 12.431202515746852 1.0847121711919447 0.6401843754452137 -0.6584374081181305
Ni 5.349812465971944 3.1089046859862295 8.187793923444081 -1.2037190234461719 0.7885288003212936 0.07701533831378994
Ni 6.03493703623253 0.41638040171264357 8.017233042205381 0.16176738315020528 0.6210306853348981 -1.0275146389350303
Ni 3.4819597521912384 1.4566430104909676 6.533842422091198 0.327622563216539 -0.5605431694728024 -0.2688666853335692
Ni 4.598585057254321 5.82687195559362 13.121375007288163 -0.7878394875637528 -1.6901084924236958 0.7525621524186975
Ni 4.312729878899061 0.6484798108556272 2.637551053170544 -0.6895310441991416 -0.1632786775884091 2.6125308323030616
Ni 4.454176644529801 3.233125162508217 10.6911064476289 0.07819701732671694 0.2866692607326289 0.5606033332867765
Ni 6.398151186461374 3.7024150146591865 4.47627371843171 1.6027699178070267 -1.7055225129859208 -3.9437606317094143
Ni 5.3582287922067975 4.759891728555055 1.7177637494627072 -0.7503335201984949 1.2733388406268393 0.10038538049829808
Ni 3.7718543922471905 8.362641695128017 5.142564649974102 -0.1332852165501124 1.3500654440556168 0.10327452912063506
Ni 7.3179581720011635 3.7621165715812523 1.3539591442752932 0.24837113648337872 -0.6150644404491342 -0.8442610608865913
Ni 6.390269081379513 4.697903330206147 6.7155010448607335 -0.2544759638295359 1.1921768271345274 0.34454890665823246
Ni 6.795480512074256 6.184584565176741 12.470845474219216 -0.6215834725145746 1.833468833821623 -0.07783963398729819
Ni 3.7083664257495337 0.05423281932959711 0.6515080012860069 -1.226647092997255 -0.5798598675235433 -1.9742297899234904
P 8.620942308750017 2.2092387751443243 10.37516993220974 -0.11163369971860776 0.6006181831168173 0.8839056718614067
Ni 4.864008619582878 3.2687773952447223 5.844726188864661 -3.7971308755315967 -0.29495618333176943 0.20017889304886816
P 5.645667889419173 8.180387931249447 6.529631447283493 -0.8198900882413944 0.7935550498912914 0.297016665405224
Ni 4.098769620975381 6.453897632391114 6.119813530681811 2.2586192534830065 -1.7593570423078735 2.3305872591808767
P 7.528366327872494 1.0184785697274672 4.326549336619875 0.5090180050103169 0.2954210387833299 -1.1931191364431386
P 5.897642199913638 3.9751302271110345 12.776919517370075 -0.9152211941452366 -0.2592142498454697 0.3413753940262572
P 4.856426428130765 0.0951391639672813 10.795660087880048 0.6135400333848079 1.159408631564571 -1.247695429027122
Ni 0.3290971003846206 4.175228851959717 11.076083080616465 0.8048378218939622 0.4388775394394893 -0.582072816014462
