# total energy = -340896.4276254861 ev
CRYSTAL
PRIMVEC
9.01982780343675 0.00000000000000 0.00000000000000

0.00000000000000 9.01982780343675 0.00000000000000

0.00000000000000 0.00000000000000 13.20142972850245

PRIMCOORD
 96 1
Ni 6.360638129616426 1.992822677600731 11.404754845664998 -0.16551450889746333 -0.1504406452834764 -0.18264756903332413
Ni 4.499144142353558 0.441956220314676 5.992999877101872 1.1327971996246298 -1.5775263127488897 0.7460346357128249
Ni 2.918509547929999 1.6391281766241788 4.899829239350244 -1.4598836878320405 0.4461835861825993 -0.8552378716130691
Ni 3.508009402718552 4.236739316851559 5.1447157556232455 0.01649285544870063 0.9392083010884535 -0.8562580853474673
Ni 4.993863648373548 4.390004227993108 2.7576598637317797 0.22256934492892638 0.7850213013886673 -0.7204555016921399
Ni 7.070886416929221 5.996588866517081 2.403557666546212 0.14204522213092957 0.49730148790433715 1.0938318741050257
Ni 5.205892736544712 4.50206656650668 11.442272818704858 0.04497785026227093 -0.049424316069398753 -0.4192926753290262
Ni 5.697410203754955 7.78589717323229 12.303640200165288 -0.9126135813190606 0.44781417980748683 0.15586695850537027
Ni 1.7599668074247516 6.37221958829732 0.4567270900466323 -0.04629219819832028 0.5859268996532295 -0.11158253476569815
Ni 2.772442459239659 1.7117017097600606 0.27566848203646427 0.39944015937947336 -1.2211166500973294 0.22447093282701341
Ni 0.6615204724905264 -0.010272681691331833 4.591470196023154 0.017254159094757384 0.09431217772102467 1.1062014514139722
Ni 8.559906622083433 2.2806363575451574 1.3153380121823897 0.479264170786652 0.5775276198459408 0.4350124000571282
Ni 6.832203738102263 0.5778949445558133 4.558136521022288 -1.4484525631769634 0.06752076855979339 0.6727677086978736
Ni 0.7296598583619789 7.489920549279913 2.536641615341475 0.483351196371832 0.549257312146338 -0.5138959019279086
Ni 7.758395718778984 3.853342523479225 3.6365320246797586 -0.13811709072111697 -0.37311129167695745 -0.043869190579124445
Ni 7.567617344511393 3.7770889006690407 12.5660053384257 0.353579649401933 -0.014878716884045344 0.45165977880582214
Ni 8.085283292029978 8.827362551059965 6.4267327205634555 -0.4063808523633646 0.0403596347639692 1.1548981452887273
Ni 6.748797391979034 0.7957445274986122 0.32438727703109993 -0.2286461472506256 -0.15521132719924238 -0.5050955300274592
Ni 1.8569389743081555 6.459955451684434 9.23513903654179 0.007307846515322898 0.3952155797751645 0.42775443294313426
Ni -0.019632556826194456 4.814504375889456 1.4437614160396322 0.18665154798639466 -0.5747911947513843 -0.12366029186583864
Ni 6.281317765410988 1.8646328872791855 6.8914234164273465 0.4169750829394432 0.34447203067370996 0.31030052699832367
Ni 3.417143659142754 4.446802082598707 0.5736312720336493 -0.3346874404831204 -0.5592843573650368 0.16887494072926398
Ni 5.977196237105926 5.394614590111956 4.738957005582942 -0.18402645165872175 1.1714488505585567 0.020229696783313548
Ni 5.390537628021798 2.8935877641797574 9.160551375895439 -0.2528980778194548 0.41546738804566513 0.13159008823587662
P 0.09127614573310429 5.405871334998059 12.412604227886892 1.4346123148597616 1.1617611909571477 0.7404250028355313
P 4.043309113259838 5.998618327734526 12.54184663209322 -0.15717616423509706 1.5520464233102302 -0.6406014083779742
P 2.4725692697497847 8.410321800616186 1.4026255901361395 -0.3429833619433254 -0.08140318296884044 0.33686387930914885
P 6.18605034595024 7.788296447382693 5.870134491032143 0.8569839077698982 -0.051642663876956214 -0.6051649219472351
P 4.570860791864295 0.9261829608490881 12.539588969236656 1.9017316227537635 0.8785724325739513 -0.32076106021001527
P 4.165302281997446 6.13571970775757 8.074601110164103 -1.4391821936186313 0.5236025876927112 0.9024083586512845
P 4.679784230361549 0.9326682169172834 3.7467245529249897 0.24877582812096508 -0.4762459527856185 -0.41142998475149783
P 0.2818813393101401 5.724740281483232 3.5779175767888542 -1.4033523284042153 -2.2471919854826714 -0.040301270722208016
Ni 1.5390712286902566 1.0540209778929428 2.757131301832481 0.10792462629813672 0.911464555316282 -1.8708308194098489
Ni 1.5105775931973098 6.702092724494868 5.0104177380285675 1.2166663276354595 0.015829767943404995 0.18430721612393422
Ni 6.000476412226944 5.574497012598769 9.204854965263674 0.5755926076067571 0.38194148837407765 0.4370589981735118
Ni 8.759722863639386 2.3662345217832286 10.210183305662119 -0.6487559191643085 0.9732031699766596 -0.005208797894449094
Ni 2.3247703741538914 5.476857378470517 7.036005841489279 -0.15993212971367943 -0.5345557442701052 -0.28648105598122275
Ni 0.4685620058840162 0.3570760343561994 9.413001919621554 -0.0898824240844452 -1.6100754503295045 -1.3582109559808866
Ni 1.4689601084982096 0.9769555705957798 11.469877099193182 0.2813771590957541 1.1042026758163888 0.23768306064191325
Ni 4.048044522767213 6.705863012445501 1.5273923558709253 0.29338601063117214 0.925021210954794 0.3669817817404519
Ni 5.599409776521378 7.830391982946347 8.12237733317108 0.012698164292958777 0.5473025024128123 -0.026673395526128258
Ni 5.300420530139546 2.7778543558195166 4.596381492169374 0.5055783832011487 0.3142906219943232 0.7281063333691783
Ni 0.8630613050899265 7.662018860519364 7.343374507742256 0.18140006977946824 -0.2052308536504788 -0.48208055718952464
Ni 5.2423328401824145 4.641666438784091 7.075491038935915 -0.4148328397854598 -1.5154711952893578 -0.5658689525610899
Ni 8.352288229624854 7.079951343700481 9.195112649437169 -0.38210218232165805 0.9262404280738757 0.35252369733359284
Ni 4.45549719643701 0.25423376364917744 10.382620762420574 0.9761583959502413 -0.7571639128567671 0.5002819106888997
Ni 8.016209452015737 7.262458536028524 4.42789111198316 -0.8522895876180224 -0.15659689469285937 0.5340584929187124
Ni 7.2194068987357625 6.165259643255956 6.960374586785779 0.4021377608162945 0.09365808907679354 -0.5034212276488297
Ni 2.1920977294986974 5.154759333692696 2.6220675008717538 0.37165219063292765 0.33242461259087264 0.10291997399469371
Ni 2.2383784650841076 5.305399474993014 11.436833862642102 -0.03343513972999403 -0.5133063479730257 -0.30001225769843815
Ni 1.1984464579540592 3.2768582799652277 3.793813465066325 -0.37385228360804 -0.1526250545293049 0.2588003022365027
Ni 3.667434856133505 2.560323172792166 2.4880869812097615 -0.3695744821682926 -0.5315794352506006 0.45688374620892286
Ni 1.2151060795923856 3.5002072518159246 8.162232343550674 -0.8215294236170303 -0.16572842468048232 0.21222322580791192
Ni 3.6968936131831933 2.580175813412607 7.114976236382552 0.14871826327573096 0.697003955537419 0.07387293603006631
Ni 4.138305937891594 6.938727902449114 5.809407599509568 -0.4647708622664834 -0.35395888711822265 0.5097584827207672
Ni 0.7937033405052429 7.394968823786321 11.48207551408418 0.7359754517046099 -0.6029604580967486 -0.32263925106933466
P 0.1251906976335413 5.571285953961388 7.901926431938897 1.0719584710707024 -0.23193124575980054 -0.35731674784686207
P 8.273923967148525 1.5068884836953738 7.9080256393843955 0.9885896797350587 0.2869392265645639 0.013818136830014913
P 1.8030725636833125 3.2091283942683178 10.437789636155635 0.29040378807439665 -0.0008986005548694202 -0.7354650877270947
P 3.843366594117022 6.070190660003135 3.743595574719069 0.08507420406252444 -0.5035340990776102 0.443849538732784
P 7.0415539374663965 3.9241932695371857 10.358607275312984 -0.7886907798204547 -0.024136488036887463 -0.6324435551575301
P 6.56162694876468 7.740689797135218 10.249972471299989 -1.1775647336483073 -0.236844881011334 -0.5378171886301963
P 2.4463486308203777 8.566752671256952 5.936933530517318 -0.8284456911208893 -0.06584338085737049 -0.352276100099161
P 6.783280193020355 3.8936250736886273 1.529200831311361 0.37143853196022486 0.1258866100931961 0.0738009451415503
Ni 5.14666854830581 2.9728540094193963 0.29013718754271184 0.8179756448275008 -0.9200060171283898 0.3148858323761609
Ni 1.4196757703109788 1.2268679348259413 6.967463269322627 -0.20884736735714357 -0.21371677963430288 0.40503436563779915
Ni 6.883057526297652 0.7537815834011647 9.408513653391324 -0.49837672324638693 -0.5551675069831858 -0.5281205301677228
Ni 2.761465329010183 1.5250995156865927 9.185040207919291 -0.8348647072733556 1.558598365496135 0.7609457484967024
Ni 6.351744579570194 1.841758604401657 2.458079818639981 -0.14337242558278535 1.3451757200634833 0.347901110959917
Ni 4.058886355582193 6.660863092383991 10.409986919459383 0.23262698627524453 0.7602410091201939 -0.21344295714762593
Ni 8.232008828137534 7.242010586784298 0.5136791837047571 -0.05288193560069602 -0.2541617750232268 -0.6872741298441647
Ni 7.601829550723721 3.8622901924912556 8.08182238416716 0.3008288400624625 -0.5597792947235843 -0.38073332699858947
Ni 3.1379439145879324 8.283358706852743 12.454888277848077 -0.019938390795139854 -0.7151795980051812 -0.07996413652946874
Ni 0.0006088383652339088 4.856933645075534 10.079726832656375 0.7141825241992346 -0.3662950400860724 0.24824926619353377
Ni 8.538583749558796 2.1996022260894326 5.748364112037071 0.08688657468091487 0.7206167098603524 -0.4724456052029218
Ni 3.790411186083122 2.6391654861330487 11.318470272544051 -0.6141540128197229 -0.16464444758768418 -0.25441682845682634
Ni 1.204697198503794 3.3794317598087833 12.53363498101605 -1.1598022674585637 -0.06914493442677769 0.2916967958542073
Ni 3.0836445522367013 8.508917536473549 8.10514946239187 0.6144170366731225 -1.5256674190960693 -0.48376720086332814
Ni 5.412257372962291 7.618002101669861 3.673654027286524 0.5876780780163814 0.7616103786638948 -0.4342148438564974
Ni 2.992814887971435 8.311960580277287 3.6175479934603834 0.6564584300148888 -0.36213190984731825 0.1940334422727626
Ni 3.258250375558153 4.306137870660591 9.241423150453768 1.2597032521212759 0.15918445291437747 -0.07685104482178379
Ni 7.327220898434146 6.05674209700219 11.441375345855365 -0.37825786887490337 -0.08345080952648853 -0.2440591393715861
Ni 0.7426267625673161 0.24634863033232582 0.43083747879135986 -0.8899367085468352 -0.7458145492822188 0.15399648095553478
Ni 4.622833038686188 0.3194777848504064 1.5998414153854705 -1.1579197057238704 -0.6294883291839481 -0.35975981007071595
Ni 5.981913606958035 5.649532958678486 0.33245551284890335 0.0399135483654861 -0.3372695993879998 -0.10445980767798783
Ni 7.971435027645053 8.668442207992465 11.625442968363933 -0.38911512330438147 1.368819327624352 -0.18960548840839603
Ni 0.07668837850209984 4.718073398664038 5.7161534055765255 -0.3889839970431559 0.1404655363486355 0.4003040500416654
Ni 7.770635624877094 8.878838707362037 2.396270547801435 1.0796134165127986 -0.6986242647496614 0.09068949336677283
P 8.472251937145018 1.5546214115297123 3.5341416473371545 0.7301182215928845 1.2102357415187672 0.0339843273652447
P 1.8426515673373332 3.1839720949996164 1.4548503921317593 -1.287014538341719 0.44116504992208544 1.8349371908370335
P 4.735616963410408 0.9653831317425189 8.328134935188952 0.7822247124801368 0.7050185983117794 -0.9825920673907271
P 8.52346651844573 1.7078412235330962 12.319111910504338 -0.6305481379070302 -0.8281047628417029 0.6295598058518319
P 6.233088747056829 7.860391929654021 1.337000932208794 -0.11914389205272384 -1.6428017369179322 0.04479427349655511
P 1.799410513664276 3.2763351299625083 6.053568019658105 -0.09518969522997155 -0.2511597549721094 -0.5139156994222505
P 6.881461016806594 3.8210695802080115 5.805698646386839 0.6894084025783482 -0.43841036999508365 0.5769388372220065
P 2.3780775554654823 8.486674641530335 10.237774958391755 -0.3593630888529295 -1.2238304494840664 -0.2014474753486466
