# total energy = -340862.37898209726 ev
CRYSTAL
PRIMVEC
9.33910801048453 0.00000000000000 0.00000000000000
0.00000000000000 9.33910801048453 0.00000000000000
0.00000000000000 0.00000000000000 13.66872858484868
PRIMCOORD
 96 1
Ni 2.017788944433732 7.679333511659536 2.967070957907043 -0.62318167023963 -0.5890392200299662 -0.6385635520123389
Ni 6.972092220094205 2.4875460647672383 9.209018658565025 0.5440451718177791 1.0519378049744013 -2.349296919775238
Ni 5.11612199581989 0.030514600695381686 5.044662878882637 0.6039359346361406 0.12108250383633341 0.6172776460503692
Ni 6.494331484410285 0.1486393712883503 7.430334220559496 -0.2610266204638601 0.9957167776981433 0.9261044167166438
Ni 0.3770309872049315 6.349622009667388 5.073052832562593 -1.2508645707837232 1.9875900132804802 -0.8020399474338509
Ni 2.9406328777489494 8.848048134975155 8.953645426418712 -0.13958570484684346 0.4149205144032596 0.6236102731366164
Ni 0.2861259800895779 2.3463667727576634 11.671562997947676 0.8080128771878342 0.014550129900033005 -0.37565951202010783
Ni 5.615269288274461 7.872027322073874 9.447838322206545 1.622539130014154 1.855982698653423 -1.2133413770272845
Ni 1.747104245114719 6.552299326277285 11.652440240898075 1.3400574250003112 0.023228888620953545 0.6118045387509399
Ni 6.571687313987272 8.247655575293237 0.965039889996944 0.09722575182339384 1.1036419182169122 0.2708808875501206
Ni 8.828529399756526 4.31156720139422 4.260638245046014 1.008182771375638 -0.8703060788001011 -0.4892588201055187
Ni 8.8178361213712 7.80003214035119 3.026461145885907 -0.7436561081783193 -0.16502677062776738 -0.3107275872334132
Ni 2.146182997919717 1.9368002019380626 6.402281502683542 -2.082382730182349 1.1179192540715328 0.773383717149739
Ni 1.7463010818473497 8.350170961175959 0.4228486498760285 -0.8655896471610383 0.7325972792609964 -0.8260008291248225
Ni 2.8693661464315543 4.291291998447021 11.260230401850638 2.3130132548528555 -0.287275269747744 0.9956013351662013
Ni 1.2344992983778305 8.866866437111776 11.701306188342071 -0.11528080955289179 0.46105536108810913 -0.061426225626281306
Ni 3.8172295494361044 6.795414979488454 10.039065481532692 -1.8352986879415103 -1.5816647603972953 0.8324668964651406
Ni 3.6055493329454635 7.37521480655933 5.784400529810043 -1.7323907981316744 0.6082165642893654 -1.5122578305583825
Ni 7.867255038008458 6.3089408562643525 9.479181301760248 -0.6298966203659603 1.1484007104898415 0.9065864012883743
Ni 6.540083773327061 5.577212424152014 2.952349722344783 0.48224613623311147 -0.2676011883575843 -1.8402478044166695
Ni 7.745024795644145 8.825998501553535 5.181828222376916 1.3903795702936312 0.9230964831282554 0.6992068767260087
Ni 3.2207313976901526 0.3833283475675733 1.732251328133041 -1.3967024271878656 -0.08569949635134919 0.8523232690694353
Ni 3.957755103902472 1.789924054194821 13.075833266742656 1.717191464683417 -0.48909658349604157 0.18967902195880879
Ni 4.321457316512175 4.164055994323291 3.378512821564874 0.055922779309548844 -0.09355653050192274 -0.7635405058070721
P 0.051476228062947396 8.454460777533102 8.182633905335027 0.8485728008880677 1.0442239812699114 1.1689823912959352
P 0.38341893691284634 2.843496817936051 2.719571527513278 0.03654694588609835 -0.25063473570657485 0.38634424542746365
P 4.220828430396995 4.007728669526818 5.602989295480693 -2.538542967961686 1.3656100766584351 -1.0860072358542845
P 5.3428475149120676 4.82262185624293 11.784795009985121 -2.8760431953032537 -0.20787549036217748 -0.5973274281806874
P 2.726337711085477 4.446069031355315 9.298056778039133 0.28850374283820635 0.9702024354771225 -3.1241777902957937
P 7.46564538700047 5.954661803384599 4.993213734232193 0.4006655471461422 1.6806249784132927 -0.20189279041618136
P 4.274210770353782 8.433643906335817 7.344535837567371 1.3895082234322713 0.8521263225672808 1.7355203448995917
P 4.298455094099025 2.058199263711726 2.8837595793114343 -1.0335217643610588 0.008292836136411524 1.1187965144701635
Ni 2.2818522163508272 4.989334268868643 2.0750628905941553 -0.29775765733630655 0.8887285471713469 -0.17358700149295267
Ni 4.301527660552101 5.774613144877449 7.3043636655372595 -0.5638686343016095 -0.16620639275816537 0.16278091201638417
Ni 5.478292594756936 2.3561541576902583 5.035395682252279 -2.0348558882459793 -4.454351894744122 -1.0607916558206054
Ni 1.719367095067194 2.520625184453546 8.904451676292336 -3.3889620780298735 1.621563910585078 0.14615487342392894
Ni 6.1498304773553665 6.738035501410341 11.627385282599253 1.4313094757387737 0.2311432026408664 -0.723541082595999
Ni 4.599781405978957 7.040389115143886 1.895101085789174 -0.39783964766157287 -0.47049465212413805 0.34560177340277903
Ni 2.5369499448182173 2.7073886614402154 1.6914506341506748 0.51534626122119 -0.28456275591258734 -0.16955705439795316
Ni 0.8728909137279438 0.5893780159896446 1.929655784501579 0.1939164570789241 0.09226455116337658 1.1352160934787674
Ni 6.46836876483718 3.547945716281108 13.082325814457485 -0.7236354420820182 -0.6617345908121636 0.8501144343435746
Ni 8.060406464703043 1.140267701078326 1.5880601738708309 -1.4895182228690218 -1.3660240242674022 -0.9652252939775054
Ni 8.410436223551944 6.855353373092837 7.181413377964643 1.9338125624487084 0.6579913217196475 -1.2651388213145502
Ni 8.83568315630077 6.6339885018549625 11.926840037284059 -1.7742745828496538 0.14156931093577554 -0.4327979089043127
Ni 8.873562577375774 4.668890803403768 1.683440481424829 -0.7665476680645121 -0.9181190845183221 1.299649196386594
Ni 5.0591907949142625 2.724189716300652 10.606153849031283 -0.6613350413808997 1.662902364322549 2.346289757517798
Ni 2.0980865929551533 2.7102370893070487 4.208232775760936 -0.016481028374158713 1.0767018992929587 -0.8339031146910347
Ni 1.5158679369744088 4.197835547091606 13.025846626367446 -1.3550420713346019 1.1521169829991642 0.47351544122833295
Ni 1.7471696188690398 8.798971123695779 6.7763538605500715 -0.5137092398383991 0.010527896114517352 -0.5230186901647831
Ni 3.6575775022770336 2.0127925217820732 8.963952065742768 4.00264892140519 -0.5546229473336255 -1.428579221291804
Ni 0.6952750927923019 4.810583746340149 10.470259558103155 -0.102858524629139 -0.5832298124370408 1.8062156545326251
Ni 8.70017270270158 0.5319686527666996 10.151149717226422 1.3686982286654557 1.0468537055832745 -1.1047441501421555
Ni 3.8313782976926705 4.062913457281304 13.416868530907797 1.3282280364655512 0.9133664003246851 1.1386328324698003
Ni 0.0639663507813178 5.074460236102041 8.41049132428773 0.36390391414607653 -2.028052492170901 -2.48655294804764
Ni 5.7811225029862445 9.037744091798498 11.86713512137368 0.8323553105879408 1.8060145942654122 -0.8827980406195248
Ni 6.931383049367888 6.1913801677800935 0.35006431354761536 0.3017220413006933 -2.0554529956710406 -0.2060237818654194
P 7.260241050924623 1.8194262956090068 6.308200265018975 0.5159561268910469 0.5547895548184768 0.010315780103711267
P 6.0980357857178 1.362006136626605 13.559938992238795 1.5122102651498988 -0.9511325633298652 -1.1411923656668606
P 7.1522903043255175 0.7739888286376084 3.511783757123188 -0.9594464825121993 -0.09965827252428643 0.4372335760781631
P 3.9038217565878397 8.071818854385896 3.7447804870762793 1.9475311975863814 -0.7223956561376462 -0.7744802926480274
P 5.668007229795799 4.496584265229748 1.1863646030714503 -0.13259384691004258 0.4021596151931654 1.6680332577912111
P 7.60979451527776 8.230359547721514 10.5812492503674 -0.8432812134718252 -1.7311679814681669 1.3081988857288178
P 8.343839046114605 4.547192890181781 13.18926980524005 2.380920717328106 0.5451018952170676 -0.34173714824105017
P 3.6776379057457484 8.50731078834756 11.424350278162146 -0.9576901619427248 -0.1987421606023416 -0.5760919158406789
Ni 7.215226551520895 3.001112939603418 2.577088496060392 -0.6332814776777932 0.7056955697741459 0.36805753130313384
Ni 4.118415774699635 1.2215552950223187 6.802762055563333 1.1973192905674155 -0.597260579498494 0.3153573726959408
Ni 5.632061004027138 3.6648433281143986 6.963014607351379 1.4575203298061865 -0.5404304578833273 2.706621895152216
Ni 6.517053533590631 4.043628199756678 4.683111462790086 1.8173701284875474 2.169634658622483 -0.13590105690640464
Ni 2.5046926666147993 5.480870188498725 4.605227039713878 1.116349852701884 -0.5111021412328552 -0.6978048541721595
Ni 2.7722300866186558 0.3344091672093439 4.5164345387738605 -1.3360778715272734 0.6466108477968477 -0.005427084552842266
Ni 6.247200014862268 7.290499760067377 6.687302666325099 -1.599421055939452 0.7534499543402895 -0.9660493325406976
Ni 5.143140034569887 5.954017404949152 5.020728613515028 -0.47529901549131687 -1.3664472278477497 -0.7133798257922811
Ni 9.154146730920504 1.8491900320404757 7.737101496620469 -0.7354949125237655 -1.1799118937242454 -1.139891644577566
Ni 0.3803799912477067 6.292728165192801 0.47848638435688073 1.244752287238398 0.6574655311231645 -0.6865182255147467
Ni 2.619769152434868 1.2770856297639297 10.771108641576545 0.0937719889468385 -0.5022997124498768 1.4920132213767334
Ni 8.035919324156035 3.909303812843024 6.718057282089915 0.8133360891729606 -0.08779545964842944 -0.3259927409225999
Ni 1.8252072033125146 6.18162080017078 6.8717341681040685 0.3164531768632808 -0.06446861199703091 0.836266729827205
Ni 8.465770437030594 0.26764295192154525 12.880985858078837 -0.38896754198292366 -0.27432488023466306 -0.09313229848031057
Ni 6.185636616507626 7.669760926205423 3.973868800431765 0.267266687836301 -0.00383325770316114 -1.9086370916243454
Ni 1.4295278857321967 6.850272898471338 9.02485985873265 0.1341539923083109 0.8296620800264938 1.1142549178460681
Ni 7.30181875867263 2.1124594797979617 11.474213642314922 -0.2823012135719203 -1.2003184824050552 0.8327474038200369
Ni 5.215574154357296 4.758555577008579 9.170855328614115 -0.20718000695704966 -0.23213436290954215 1.0757994420833474
Ni 7.058385575797617 4.484994432499452 10.685638061266799 1.7618875220392107 -0.628562217825253 0.2987133363813565
Ni 0.4261388175399151 2.6462828793658195 0.5766320017186471 -0.7933239077170918 -1.0419236152715088 -1.0047616615092307
Ni 9.185460759240149 1.862442225952071 4.980953353564722 -0.43822987855316137 -0.6462814894818869 0.03236401815300233
Ni 4.032309201151426 6.499402619924025 12.643313970781033 -0.22908991965626352 -0.537206808739707 -0.7169577729515264
Ni 4.413699683858777 8.599543816586403 13.67761268392695 -1.020475729810378 0.08398637031498439 -0.7349974040620568
Ni 5.367838967278121 0.597009934851206 1.736679933032885 2.1701010567359402 1.0543494997396874 1.2765126103691307
P 1.137615394474455 4.379425158379175 5.895828226228237 -0.72696193535209 -1.6234097055445653 0.01810030914513657
P 8.955774742988018 3.0182221850199387 9.525312758452085 0.9987370525817058 0.7547774149024614 1.3274564484068494
P 0.6526672814583544 8.678188443034283 4.630636884107584 0.8970524936560098 0.39293475416078777 0.41750447308035193
P 5.591809449581065 1.0476984649601209 9.544544783062477 -1.0059649377887125 -3.3922340639129254 -0.3581050480761123
P 2.745735037903225 6.545276317241682 0.6177941191713296 -0.5360102173284447 -1.2009571444303189 1.0710117908867167
P 6.82158315943228 5.550175707186498 7.68932915869518 -1.3882926058576155 -2.1347846408228333 1.8120656855554984
P 1.9725036109049612 1.4576852956289266 12.891237396667108 -2.6664697484133626 -0.23417299060612576 0.646417500839119
P 8.604362796190618 8.053831732839924 0.8670091436606269 1.7053217098290245 0.8002046939973251 -0.7087037604728503
