# total energy = -340888.59711915866 ev
CRYSTAL
PRIMVEC
9.09434385245312 0.00000000000000 0.00000000000000
0.00000000000000 9.09434385245312 0.00000000000000
0.00000000000000 0.00000000000000 13.31049149842765
PRIMCOORD
 96 1
Ni 6.140628201696685 2.251095618398575 10.990911810482096 -0.07804763623304622 -1.2381041857942612 2.8375051871290555
Ni 4.685851508256664 0.643401173015838 6.161506086578567 -0.7283888976066035 -1.7907571538857094 -0.19298777461706765
Ni 2.654866290954134 1.6592266346473168 4.695795263681958 0.47974676685002543 -0.6785020400784896 0.6971667063675283
Ni 3.3981924750464048 4.180933544828477 5.018135182553513 0.37146938519816025 1.2891830067479473 -1.3123224209788882
Ni 5.652280132529415 4.561613678674667 2.962223278544205 -1.562999322777308 -0.5272556110642662 0.5026229001172505
Ni 7.491502018116406 6.235109338621314 2.6620053507756603 -0.3947093295627074 -0.23311189633146304 -1.1379612603240723
Ni 5.197090040571425 4.8130086221733235 11.380217019913935 -0.73089289497538 -0.7099959969217127 -0.849545449213982
Ni 5.21585167166927 7.864733884454532 12.717642120838022 2.2408444459980896 0.7770794208337714 -0.36954979957794415
Ni 1.5645636108482532 6.514460294720442 0.46843509415425855 1.6399917782729625 0.21144186755719716 0.4640111012823234
Ni 2.651655987620378 1.6659928263762536 0.4850904752461602 1.6000196087553993 -1.16482928835951 -0.6106457425561485
Ni 0.5849299994916092 9.22366528941167 5.012810444304463 -0.15390057880761882 -0.5107504143203914 -1.0851153201676345
Ni 8.35263633077944 2.3334449007984706 1.2369689801743076 1.7188431413542269 -0.034749487666043376 0.5633721542811653
Ni 7.084311872321491 0.5864251095994548 5.02034419864351 -1.1601298260013118 0.019549382886837302 -1.1815298889436427
Ni 0.9937935045313143 7.765159915045756 2.884703092660526 -1.4257980590022412 -0.4965252718599449 0.19854572832081935
Ni 7.968936874817648 4.044391068191034 3.884693483003799 -0.8698263109502051 -0.4218717489101122 -0.6809648997966853
Ni 7.8790210984413065 3.7551363717789865 12.538416251377203 -0.8910119438888848 -0.9443026848922254 0.0916307742341196
Ni 8.067492277729594 8.583405302717305 7.075511275902013 -1.650845947378647 1.8123330802842723 -0.4128852291407856
Ni 6.693646149068886 0.888702906220962 0.3494274216466052 -1.176831969247341 -0.650986351156724 -0.8297057887802357
Ni 1.8917144375485808 6.462176912664451 9.195486465390017 -0.8584962306493666 -0.20593944968172917 0.12442853749043088
Ni 0.1469609568050096 4.804687297667978 1.5180751446117222 -0.274572734579411 -0.923019607143733 -0.0017113262641518913
Ni 6.615934981967051 1.8938697970106209 6.936230492369969 -0.373706244948479 0.6712219614773085 1.6519121838596325
Ni 3.332194822658106 4.2833813268533065 0.5117587287756418 0.05887543417996958 0.5071372430478363 -0.38185381375627786
Ni 6.501419005823541 5.858430716012667 4.816095242432464 -2.079929897766482 -1.0413032080786906 -0.8674804364258479
Ni 5.24707255366583 3.0430856357456046 9.109021083021682 0.27164707629218376 1.1840102321633352 -1.130134822301118
P 9.253767567130462 5.444337963332991 12.562694511376625 0.5498697489193562 -0.32115623876590493 -0.5045648543349698
P 3.953911442503948 6.087753687298783 12.675235196063786 -1.4490539442063883 -0.6714765006902758 -0.4432669267564366
P 2.4002883271528868 8.449845770820575 1.5851468389935526 2.282529741552017 0.31669126101601586 -1.9604949568359011
P 6.231235148195875 7.862342072055728 5.883237357382319 0.002924629845962705 -0.3038419158571735 0.8459294497279496
P 4.660369157148491 1.3140417243468796 12.632295342747458 0.06239990239346028 -1.6909790679541072 -0.14490840261133753
P 3.9648246549699753 6.153278433813554 8.314971196821691 1.0346453364425408 0.4600014659022981 0.189979326808047
P 4.969185786905893 1.0074441144575699 3.8093695811289074 -0.3433939671181828 -0.3306996594799659 0.38352220259763625
P 0.2922267279402963 5.870853589536495 3.60932584945477 0.47285569615714695 -1.489300964651893 0.4742183808326284
Ni 1.366770729245234 1.05853613748602 2.4776011619997114 -0.4462761458964056 1.141553348550705 1.2295683804091082
Ni 2.0124873221726136 6.654440433284684 4.750434080761868 0.012924421371151936 0.18385084531280593 0.4979568621001489
Ni 6.24267583259776 6.063126204500448 9.15133524548996 -0.6521425762483543 -1.7553126970351707 0.8133327467388509
Ni 8.489615335915524 2.40698176413205 10.120885048527995 0.7829680184040645 -1.1689206848200644 1.474458500322422
Ni 2.551463602838527 5.465609633298022 6.935125529607784 -1.8659261830193798 -0.9188919581286046 0.515746324873086
Ni 0.2807669454165957 0.11952332179667313 9.665719511298054 0.5200302969604205 0.682620176011921 -0.6103528939060778
Ni 1.566882668497284 1.2945525457512996 11.520921977672794 -0.48458506877893315 -1.048450103536117 0.07078606957462648
Ni 3.996382027684237 6.688762486490339 1.4819633245616386 0.11076672373262214 0.6787789478889601 0.6490325698644629
Ni 5.262787579616908 8.00932485528567 8.300342944945355 0.8213101085173726 0.5692098440088649 -1.1507995497393213
Ni 5.212832349553669 2.7343599494254196 5.147419463466674 0.03857297517719163 0.27056592741286306 -0.6956088749621053
Ni 0.7517602784597653 7.329950096244318 7.022654950191554 1.6954569012198029 -0.34335694323266025 -0.7366508805050797
Ni 5.26113240905956 4.864773626637178 6.882229188784951 -0.6462323814115064 -0.9770847644192528 1.070400382554963
Ni 8.238811524758777 7.339180855121832 9.03918107041097 -0.16345505526527335 -1.0589731145546277 0.6066965281004132
Ni 4.481829001204288 0.18758266190667897 10.408311781851982 0.34637644678527446 1.0950415781424108 0.593491599374365
Ni 8.147695295011172 7.45356951045324 4.677519270538853 1.1220168211796742 0.2155170660678353 0.20045580085933865
Ni 7.338935307841346 6.16397338203026 6.829626595264328 1.2058874918524007 -0.0378144997446123 2.3072095036868845
Ni 2.30086896158738 5.225664468544972 2.6764471686057028 0.3640378686207795 0.4997309232814361 0.08123837525620202
Ni 2.0774936910952486 5.167806253787585 11.437851513815769 1.118116200573687 1.141919473640872 1.0890398520330211
Ni 1.1269528853042883 3.3480371694212887 3.681748655682443 -0.8336105231512805 -0.3742747158574393 1.2055645612953432
Ni 3.8340661809395273 2.692353175774937 2.9075571784331307 0.8101186106769273 0.528035169542768 -0.6863852994813082
Ni 1.1318911139451657 3.308140283514238 8.219188659310488 0.035856347576976956 -0.09883449107141043 -0.6407875562468514
Ni 3.4345061895271103 3.1087104200413145 7.222006602308472 0.8561297872997191 -1.0558515382065108 0.5776026960582503
Ni 4.171193502702548 6.591071046231954 5.773199436087368 1.1469632067123667 2.188241732200709 0.07090074077561982
Ni 0.7183131011201367 7.3032945747960465 11.231978307816028 -0.3333124145124647 0.10914872851322494 0.6926361654870264
P 0.11043352524684473 5.517492864230259 7.9716797288841095 0.4564253185152655 0.0365654578288596 -0.041753686898018415
P 8.555831252553142 1.487925576305578 7.9257323760990195 0.19610318031759774 0.15385147073723826 1.2096934958620522
P 1.7116555262028552 3.2531558813729045 10.469540360392628 0.6977840282365532 -1.3657622859655831 -0.5727885624990587
P 4.1070601907771955 5.992599568938749 3.717553996349105 -0.07404057195618216 0.36441170702043046 -0.43118685566345094
P 6.960919816705611 4.088434974835176 10.323270573710467 0.4318054630840563 0.940495138220677 0.22046669676362676
P 6.192975244158728 7.901629636933426 10.45047952538634 0.43430843201156816 -1.217839007787322 -0.3997052401154019
P 2.572944442709157 8.648711784982755 5.748561949510939 -0.023885291258029833 -0.5688041239300139 0.5570706375431697
P 7.042841664950588 4.066044700592377 1.5365766774791267 1.2493627894272161 -0.9760804915244545 -0.5120071695456279
Ni 5.398375150163574 3.0402845778793246 0.30785717649476363 0.21118938522675884 0.02556165051918824 0.5127661591988395
Ni 1.4657080945934913 1.098369362987019 6.914626878859097 0.29322223135979825 0.5971489936212941 1.600022951189509
Ni 6.77178475032564 0.6324934171560439 9.314921572052588 0.521480913364018 0.018292113440968497 -0.4305147692970908
Ni 2.744945765517466 1.5318239734501722 9.354759344725448 -0.26344500009736566 0.9329890596516189 -0.7255208320301892
Ni 6.526464828433072 1.7741518562583038 2.5858820560876326 -0.3494921095961207 0.903510847686844 0.5882596615514643
Ni 3.9185253510828555 6.9540535871957365 10.594006458002038 0.29820785749984774 -0.8423646151948266 -0.6028164763197167
Ni 8.368251318949579 7.146317107815968 0.26370595659470664 -0.4757008789154259 -0.016788018091616248 -0.010425051988065917
Ni 7.798909024596946 3.7359018348076134 8.374774691701147 -1.2874153733245632 0.904568342417081 -2.503965744207449
Ni 2.956716653420722 8.117411130417947 12.561216680521852 -1.3495165135306824 1.2698159150752453 0.2410128963460946
Ni 9.344892891221788 4.703130761327873 10.001676391024091 -1.49377339860095 1.6034198926862 0.7815228013171057
Ni 8.651158163443888 2.2438110490775016 5.714273545377054 0.7211939225200611 1.5613838986610722 -0.15771301057517356
Ni 3.648969003171986 2.9512145754690997 11.604485354959536 -0.27771873640756045 -0.3548410326128599 -0.051250056424227856
Ni 1.1948057838118118 3.2641054712138184 12.671428303781886 -0.7484998094238657 0.8292211358343332 1.1937822239484344
Ni 2.9525696326836317 8.298897853727977 8.132949726100826 -0.4317069898329791 0.779661836848967 -0.9184486999435989
Ni 5.758893123978778 7.858295089099577 3.68067006651705 -0.21480075672710103 -0.01784319882900798 -0.4982558813978064
Ni 3.3694088771672583 8.608005502484474 3.604054767833679 -0.611188759543812 -0.9195342196982939 0.7479282531911119
Ni 3.449493667980454 4.437685056779207 9.559462108688207 -0.22705206329062835 0.197581307525021 -0.4056123496284563
Ni 7.346101650694038 5.913451495528887 11.603314003488183 0.2039956956917971 1.3182472711037554 -1.210343470741225
Ni 0.6843284480665561 -0.012220979093206014 0.39389057753631607 -0.24621912313738242 0.1289747621002166 -1.013409566992216
Ni 4.830087799682656 -0.008513215157873306 1.7840446833587573 -0.15566255580404806 0.4134704122202943 -1.5766431388129878
Ni 5.887068804392267 5.3801409910015865 0.2710032579969901 0.5389808699209943 1.3671439968044585 0.619088731117179
Ni 7.64124038749402 8.678586704108504 11.808175918466072 0.6121871189013393 -0.10037432475470455 -0.6639279989190565
Ni 0.33112869264419426 4.831979423176767 5.7141407679587175 -0.5987500195598269 0.7240812713701853 0.5349851184980399
Ni 7.989071751817468 8.795030681121013 2.0920764712529776 0.03311349472451716 0.3029415155300912 0.8780481846393653
P 8.517771424077873 1.4198180361738473 3.557561754425287 0.5094129264558903 0.5345403176511374 -0.401225019194038
P 2.0252103090392573 3.1755902237706173 1.842677736201232 -0.7573006955449474 0.1088481665536706 -1.5438780285668248
P 4.655048966071303 1.2539281123465136 8.243214096554446 0.19115766338686432 -0.9981482699577713 -0.09021872437794139
P 8.505457682678706 1.4400074792359974 12.540293323921361 0.7637608493479943 1.0608934715057923 -1.0703934405764275
P 6.486740735056734 7.446630526193591 1.1726292266464728 -1.5003790768429255 1.261293736536847 0.542736994529317
P 1.723459984353608 3.225463604740361 5.902058101714355 -0.39636074912320124 -0.7574742450083342 0.812695113154852
P 6.870594794861795 3.9520471020410017 5.832231730619225 1.5222239406321592 -0.6652780851890479 0.29343614714281724
P 2.3388469409691544 8.66532715096228 10.326559088400229 -0.5491259287747963 -0.8734212273903151 0.34574009875285616
