# total energy = -340895.60687041975 ev
CRYSTAL
PRIMVEC
9.05912636968947 0.00000000000000 0.00000000000000
0.00000000000000 9.05912636968947 0.00000000000000
0.00000000000000 0.00000000000000 13.25894715257315
PRIMCOORD
 96 1
Ni 6.149579630196333 1.9352830651102304 11.472914385283454 0.8556806155774425 0.35619728953043817 -0.12958411354944135
Ni 4.708662154550641 0.23679831808344098 6.095628908540196 -0.49658312168107377 -0.6401180409836523 -1.1634846014061573
Ni 2.756520055118271 1.4529570546968065 4.946542132332128 0.5515833891763533 0.4023704456523909 -0.46878306874967013
Ni 3.2705983037364774 4.003880235048302 5.027925700702024 -0.5429074586689102 0.7100227363945901 -0.23021323462742932
Ni 5.38614892606125 4.713101126510796 2.5590827355443766 -0.8326468736864305 0.011199982480877486 -0.1980585042717557
Ni 7.403154370870582 6.350302694933387 2.659068314165258 0.2602473190956744 -0.6185989359649539 -0.0066367885902272805
Ni 4.875023952665515 4.561288285473492 11.389939128396417 0.501086408868066 -0.0540589866279327 0.49273083781451915
Ni 5.750398282334549 7.869527259606795 12.308029051099172 -0.41417540870711894 0.18479546861426238 0.40815722753749706
Ni 1.7137602460455925 6.62762067379924 0.36888491127740297 1.7853501239375253 0.12775323098828964 -1.096839550583098
Ni 2.706812628290983 1.4175086929007108 0.43927975926430335 0.32270172887615395 0.6356852020232795 0.2724919407909823
Ni 0.6099872203369046 0.14225999219652152 4.714271565648045 -0.9175902085980455 -0.47742917446044225 0.1842269977053021
Ni 8.791836923409631 2.4304005620700604 1.6061885549360706 0.3516947736743943 0.4103794319997965 -0.15220570760369914
Ni 6.8469602433895975 0.5823197422481093 4.87186775301058 -0.8318462321620061 0.5470569620609094 -0.8621621095367281
Ni 0.6429796529525961 7.337883364803403 2.3086078542604334 1.1133450044372888 0.5104046009451985 1.2516765251620572
Ni 7.693137008512551 4.040678406685343 3.642471820829503 0.6875890899814222 -0.30233910605940184 0.5583559320134964
Ni 7.870007393308608 3.8814099045802677 12.40733791297429 -0.791737022845946 -0.055979857799729395 0.29764555723847447
Ni 8.02441114451041 8.941330628075917 6.886577615177659 -0.3964646216909172 -0.10899549076481228 0.5185218307356941
Ni 7.003402298042492 0.7724508763406462 0.429129913990512 -1.2260071454204111 -0.35375217042405527 0.013764914994576292
Ni 1.7702348403305044 6.5112380763051325 9.268256383378116 0.46471146978345773 0.5446563230392167 0.01679161763604205
Ni 0.10724284481941233 5.014616032122719 1.2154267591962624 -0.9848307269132589 -0.8382685907485822 1.006597172056073
Ni 6.025469597840977 2.090302836910585 6.912923366717503 1.49830008282671 1.0450598469076453 -0.8059387682676248
Ni 3.335624713389525 4.1576589065251035 0.3559022771629167 0.45347832007179967 0.8911065604852202 0.18339601716357445
Ni 6.085749025234592 5.6779615072459775 4.784889268145599 0.5558249380615266 -0.2606538105054737 -0.24055498287306956
Ni 5.105950144984523 2.935464979871217 9.472709090474343 -0.24234447067332457 -0.9789493284318174 -1.0509407311684547
P 0.3275553645904243 5.6187601158998275 12.426789669286219 -1.0079778544536833 0.10959430069107579 -1.8895299384812492
P 3.9884706609580496 6.1443887507408865 12.652999680375725 0.3073938948744899 0.17398346560042294 -0.032657381023705044
P 2.4829887911082245 8.453578200919365 1.2838720831712742 -0.5051906608444268 0.7954293840958688 1.2742271567690635
P 6.502215186361633 7.724119220969143 5.7442534768639915 -0.6328675300688261 -0.9385380144943062 0.13595299319026263
P 4.776442538644275 1.2120386459042256 12.933824447090098 -0.19395013853033696 -1.1226030327004473 -0.24895657667320348
P 4.016898199755941 6.235061547371891 8.238327921008219 -0.35638780827468947 -0.5120490785271569 -0.8613087603974973
P 4.6958072541190905 1.1006476270836807 3.831809375445082 0.42214865672058266 -0.37378543492584654 -0.05642208754347058
P 0.3271920936198075 5.622383766479546 3.620103931713546 -0.12883746519140393 -0.7151705991441167 -0.20010715927066827
Ni 1.717365778372412 1.0793858573071828 2.775681013471177 -0.20040077925168714 0.12898556073349396 -1.218810884782288
Ni 2.0496183000267965 6.414586256217593 4.735817791995051 -0.2715246917817066 0.5912470263145625 0.7728859515777141
Ni 5.972537121997739 5.608088464942557 9.331965596045436 -0.0271297663372565 0.12359935672091617 -0.3177456704224592
Ni 8.579998310519292 2.2930551459722817 10.341382384308833 -1.0283651598607837 0.7625604012819899 -0.013030607931713041
Ni 2.3332504900278086 5.322427030616902 6.962737691236892 -0.020836734239693146 -0.1626382157909328 0.7692352421990042
Ni 0.4985409408450188 0.3161671367310141 9.345065092891117 0.2268797993788222 -1.162651821092217 -0.2564657405660551
Ni 1.3569574917136158 1.142854097210951 11.479026577898795 0.43638871157936454 -0.04960017952563071 0.5106622254819593
Ni 4.081960845914786 6.856780336460634 1.4656706327557487 0.47008970337623557 -0.25825060038061975 0.2225420912354167
Ni 5.826467767129288 7.664328986403788 7.9195164252666554 -1.178765438824628 0.33663685090000733 -0.4924130494637842
Ni 5.316810372218339 3.122997956498096 4.4860323102339 0.7174547671926031 -0.5072439438290297 0.43816765785665823
Ni 0.7868231804524546 7.498918396566091 7.081577123824048 0.6438116877851557 -0.2759089368923313 -0.49518367023038584
Ni 5.0985216612960995 4.486106595070783 7.2513179761045095 -0.18886835313205538 0.24651171467713676 -0.5437559227121345
Ni 8.2195175508489 7.3261517960515645 8.919081413516446 -0.40493640660735425 0.3787450929239671 1.086190041289052
Ni 4.566759997848868 0.22637398127823594 10.398342547771428 0.3632557390391163 -0.5112849466676226 0.3090468570968806
Ni 8.46291816028859 7.007125599013152 5.026825016838435 -0.2169936506133618 0.521620781375992 -0.12486922457227526
Ni 7.21592034541653 5.9251125950356744 7.07074422041598 0.8757131087482853 -0.560150562020074 -0.6106367436950838
Ni 2.263748871908809 5.433238265344692 2.42589636439947 0.3960082508797889 -1.1564325796553827 0.8174169441105535
Ni 2.336602366814048 5.1376299101777105 11.481983476771845 -0.7118207088352773 0.02418199656284222 -0.1672811138795829
Ni 1.0715950085607882 3.187825065369259 3.804376528731323 -0.32378570596895206 0.6809384174341241 0.2591890530344891
Ni 3.8567509623852843 2.7347328560077133 2.431929742614701 0.16632954859959095 -0.3245081859572734 0.3834939204628621
Ni 0.995661410662788 3.309570665721349 8.371115690589356 -0.19153921509599917 0.019885683180333492 -1.6502401954738484
Ni 3.445647804116226 2.7481584814055706 7.175079085645168 -0.20132123418342746 0.14450319675311887 -0.07880791143783847
Ni 4.3242471828012095 6.788356754389101 5.886893046458739 -0.8864700901544733 0.5285478475131286 0.7838555632153403
Ni 0.6886304029558891 7.6428950932247535 11.301753967888388 0.06292595010025936 -0.4452942415991106 0.3503775975248676
P 0.182228858090816 5.648664292308954 8.058390115996431 0.08444351245706103 -1.5747109547872815 -0.6208141984487179
P 8.353918750850658 1.6413234709570208 8.173345901074773 -0.3254245271239557 -0.003743783313148391 -0.21887569812742305
P 1.6866553397092983 3.1338507899843524 10.388902032098617 0.9050774208430156 0.26249497747927053 1.1682141456713429
P 4.018429192125871 5.819274820728547 3.8771684215767075 -0.23941752683451673 0.6414498724211986 -0.4314223687130247
P 6.754919518664749 3.8828050100534597 10.403831472487058 1.251920008631431 0.4367093281435769 0.9172724202473106
P 6.320434755030058 7.628599791687765 10.09202086966551 -0.21391706857056708 0.7380115082980322 1.1268116714651562
P 2.3293278882752633 8.49467945761982 5.839797365786783 1.5461531977542469 -1.9057327734933567 -1.3319479085192996
P 7.125084484509437 3.9893765736029794 1.5196612145682635 0.23627769565395437 0.4065042653151064 -0.8935084850584933
Ni 5.499469538815497 3.1810760161645333 0.3319019334607965 0.26405486576722265 -0.21369286837490295 0.17240789358318692
Ni 1.5904474168177736 0.8798694682131749 7.102712065830256 -1.5057796790332068 2.243114987199821 0.770536477508931
Ni 6.571653390595489 0.6078537960580953 9.037828443013819 0.5693790225968774 0.7780358712097698 0.15339124327136808
Ni 2.914556516026242 1.5625362482274923 9.337255219979179 -1.0472110889226933 0.12715879193740035 -0.33107298365898463
Ni 6.548072484447971 1.9808504711501895 2.5249406997822694 -1.0558348260359625 0.10283307070784226 0.3946273113718623
Ni 3.9621357803699455 6.735514869810356 10.453698339939852 0.3565986387339149 0.9300628871437596 -0.06642522150276947
Ni 8.293503436560302 7.429253714171003 0.3341929865398235 -0.4983903500931417 -0.8486080250013773 -1.1234826070919233
Ni 7.36584888815238 3.663556031727595 8.268438645500389 0.9195979830566937 0.028456198458163894 0.04068847885829766
Ni 3.14019217849886 8.396288285254016 12.367150722132568 0.43404437971690407 -0.31393889508185935 -0.050123656129268515
Ni 0.053839294400811734 4.719478751531101 10.145891871008892 -0.2217530196752181 0.6193574113975333 0.47070393992146675
Ni 8.433204225534897 2.1358702429505447 6.037554472524337 0.6120714192590814 1.4413756017255241 -0.47676608695514666
Ni 3.5375526419443353 2.5494918383725067 11.67259383865355 -0.11187358364355571 0.2100583569461092 -0.6307723381026943
Ni 1.1736007723798623 3.388339770197979 12.819227403419147 -0.32261739669246375 -0.6835545149007324 -0.5085431222564274
Ni 3.216089539891063 8.35763299269487 7.889007099210716 0.3786715593735543 -0.7379711419784 1.090383253434793
Ni 5.496298844558242 7.770311706734104 3.5922733893486636 0.6615864952700735 0.07005433361492451 0.2401328077339864
Ni 3.1877797697370123 8.303676835562863 3.479200996659129 -0.7350989626369275 -0.09881392224612015 0.6458929957942167
Ni 3.272998972245541 4.376409632896257 9.210036095426423 -0.24217914874005386 0.09905432039170038 0.16624161687147498
Ni 7.452571905651492 6.164971086033687 11.385696739480212 -0.0439118708916018 0.07410793485900785 -0.08228687112537442
Ni 0.4960234096047594 9.357081118213465 0.6839812592621103 0.36378307229749607 -0.13930725437447622 -0.6510930519379174
Ni 4.715963810468774 0.19195473624678028 1.7305712669975513 0.15482514750441723 0.753669012329631 -0.7374816039364912
Ni 6.142812462738709 5.7092879665076435 0.37819044596612 0.02019472978032006 0.42336890228092894 -0.48755160760642485
Ni 7.697820576886836 9.076610563343255 11.197526000351303 0.6405872673105871 -0.40838965526327736 0.2870839796725443
Ni 0.22045837170684557 4.6958163132455395 5.766117678549368 -1.0542757090789585 0.2480680034206631 0.26917213238913
Ni 8.0419224359369 8.861139240746748 2.6227122278989428 -0.36788218206753415 0.8971797632624935 0.5648063156245305
P 8.325409679914724 1.7202194032039406 3.7543239491863174 1.1860169781807186 0.07581206203430814 -0.37297656587130606
P 1.8759639051202393 3.2173578175939643 1.682427445395412 -0.3474323988536145 -0.14203802304207794 0.25162461042366985
P 4.642530531470779 1.1178418490844448 8.065457140539525 -0.5741365918865209 -0.8554214483787848 1.569341462945252
P 8.500277997765487 1.7438999597424005 12.546504213488378 0.5913411286902656 -0.30297365431960727 -0.30003745450941877
P 6.4892062807804445 7.85363755181473 1.4062038090046343 -1.2919202031734525 -0.3526237132465669 0.07048653605633667
P 1.5193332741907992 3.019171308262713 6.0941568004921844 1.1564171530364147 -0.4007797041265033 -0.03515006553857172
P 6.940115240667709 3.9911702806399396 5.855734181036385 -0.23289412389370212 -0.3045376563726175 0.8509302453766507
P 2.4143568491283567 8.576193477410587 10.17096481528261 -0.03598053185966706 -0.4985060497353996 0.4756075478706713
