# total energy = -340870.56781255343 ev
CRYSTAL
PRIMVEC
9.24863515552424 0.00000000000000 0.00000000000000

0.00000000000000 9.24863515552424 0.00000000000000

0.00000000000000 0.00000000000000 13.53631241647445

PRIMCOORD
 96 1
Ni 7.658211865204758 7.953862975837496 10.338912957268795 1.1256988980169516 3.335042702303598 -0.6455332984619528
Ni 3.0912174730920388 1.3657181641631848 1.5473761506681427 1.768786048931257 0.0747512248699616 -0.08497624503207946
Ni 3.0035774091399685 0.014439893610000748 8.052535736316415 -0.3788011429728831 -0.32037025252949985 -0.9637937037373014
Ni 6.988323993517085 4.033866084129063 5.338301868833319 -0.922569921200824 0.7102428228251962 0.025186269457640496
Ni 4.353961336702 6.118665608810764 10.084877004060997 -0.39605581628827274 -1.2380586772683064 1.2161945302053634
Ni 4.795602148631005 5.150194809239106 7.778018681206776 0.058058851815945174 0.004273430564373285 -0.701512899151366
Ni 4.028159676419225 7.795424612017012 12.932456764120555 -0.008725295688139812 0.11850317314493139 -0.08186803842040094
Ni 8.07108017407816 1.182308486215369 6.331758780348086 -1.378372518530426 1.00595979558239 0.8847173691294247
Ni 6.288313318083961 6.552593059264882 6.181952167444281 0.8302251516188154 -0.4515399653985062 1.5103600993150377
Ni 8.887780875564816 3.9166766317929844 1.3332156866677478 0.22767838402071755 0.554376121430142 -1.0022476368381255
Ni 4.803407996454512 2.884538229831495 3.881334823394921 -0.40044417516395553 -0.42392374634313446 -0.0845602405405834
Ni 6.745251372074672 0.5865484229464213 8.876342163967527 0.14295873508413445 1.1491026216528726 1.2949839297004406
Ni 3.0431430690794956 3.6651785039913123 11.733193680476214 1.871542757875209 -1.0536290766338952 -0.74656891094974
Ni 2.1006424362002627 3.0666715961683586 9.423425737094417 -1.3115428625003862 0.3417266067180889 0.2241968532300203
Ni 0.6699535369951932 6.75404682382841 12.12233554147471 1.0272104774310504 -0.5930575971607399 -1.1101102995500751
Ni 4.049672001108178 -0.004969291511338885 3.6708987846534438 0.9279800364728019 1.3778243593364399 -0.8347711191182849
Ni 6.941192950260463 8.322310091468836 1.0848204758622684 0.6011807404885066 0.8271655388568852 2.3108743541329817
Ni 4.197640910264907 8.495389044275827 6.174061232180045 1.6296204623409676 0.030226402984709237 -0.49185897673252715
Ni 0.44289770140674745 7.68463521500542 0.798943322551665 0.11545255924406568 1.3757127123100759 -0.07000188311043427
Ni 2.019587400269918 8.291290170141773 4.227836778225767 1.415900597382871 -0.3598636826384319 2.076056273743689
Ni 0.4816226604373208 1.0169059003438174 4.810941009549589 0.6560676223343733 -0.5040151524790868 -0.6520775273383738
Ni 8.075954204650422 8.30584752141452 5.298613202050127 -0.01720479391406069 0.3699696607241822 1.0595760382459496
Ni 7.755165304462837 6.424009288778851 4.0727103505493565 0.7450835846534651 -1.9385541908987516 0.14217352017867774
Ni 7.48050859496678 2.1071442265082307 3.969252346392851 -0.053494115263398194 -0.14968654072627124 0.65909226809331
P 5.267920682397179 5.339199911278417 1.0559138676011672 -0.8005764755144471 -0.03986315474352489 0.6658606971653953
P 2.0252383161705847 -0.05266080204059646 0.2167491568982614 -0.23532227371922054 0.026607575285199338 -0.77112628857413
P 8.24237414035679 4.327991170009575 3.258908171228443 -1.0807431592418677 0.4640884914874782 2.347194271609938
P 4.976052263422989 2.488113993742683 12.119695981085101 -1.7507371618493461 -1.0896340339735944 0.7397089506051132
P 3.5871940148351436 7.102156191398267 8.36075759145355 0.6787979740523536 1.1191083892836275 -1.127297352852323
P 1.3748003235976438 2.1159026837225205 11.493709529360249 -0.1352487680343864 0.3253116556951752 -0.4200107844419735
P 0.8239460820375268 8.684116687269277 6.534560071011004 0.6352694546420994 0.10346659052678311 -1.0087057337586434
P 8.68343228828949 5.780729739589078 0.21425387521250067 1.1302834320638404 -1.246129627201899 0.5056079508875034
Ni 7.810731102713579 7.37586029150354 12.751341672481995 -0.6118721587640816 0.5737319002489345 -0.5813446795991859
Ni 7.082724809553258 5.9750343094042995 1.854027587605713 2.0355539427542686 0.1933937518062347 -0.9969892166526635
Ni 6.366455034032783 3.3262992740137056 8.297244441265912 0.9247862121258524 -0.3655435066320285 -1.4162674938039868
Ni 4.767319823223087 3.333855408695939 9.815788897615336 -2.3388628689261077 0.44758355185391946 1.069364742201597
Ni 1.362342412438564 1.9412052198146845 7.087004152903894 -1.3373284561049226 -0.4007136267752583 1.3169349800502352
Ni 0.40305735701182 0.7299771772494076 9.884905795665842 -1.247427520077716 0.3441632411840395 -1.0625034963053894
Ni 8.305523819194352 4.7952044573319395 11.669748970186557 1.6370882314729225 -1.294708564551867 1.995537550262331
Ni 1.574006669889712 4.492866583693995 13.158703344158578 -3.1344130948705566 -0.27140127882996484 -0.02834178436748667
Ni 5.286538184374335 1.1404029216557625 0.41260009846240525 0.9550331839358519 -0.4350152282706057 -0.458371643608359
Ni 3.5252744044342244 2.9358866505851773 7.633180434950824 1.137456295663196 -0.5433206349469288 0.13760261297854365
Ni 6.878255990024726 6.06267437335637 10.782268466101211 -1.9557150189487542 -1.8458502382051114 -1.2239916576522791
Ni 5.956629526028971 7.120819936549731 8.88179700880912 0.8948027783898848 0.5614366278213492 -2.7850261433937327
Ni 2.641789310609251 0.9610071512380437 10.029852250949679 1.5201490603810013 0.2147678466066366 -0.0644326165527729
Ni 5.008034042775696 7.431749791974451 1.76276668310518 -0.894635399574085 -0.8765294340019938 0.7266819422178259
Ni 6.334454757410352 0.8088606337141603 11.403909909167908 0.2379959638966417 -0.06452003406025662 0.6926081404625685
Ni -0.14589998953810593 2.5853541406814826 13.00866644024671 0.03237584522754424 -1.2817751443196506 -0.9286328395654524
Ni 2.2960383449291975 8.047329679752611 10.948304583460805 0.6269789324985331 0.39221793059942134 -0.1776747984090811
Ni 0.06173926202111061 5.732183655198574 8.974344398418953 -1.1837495223027807 1.2982078359543772 0.609597246686976
Ni 3.2275515995924042 4.708896196799993 2.9716132021934984 0.11467017255208638 -0.10776856033624665 -0.06811906426542462
Ni 8.387734934482443 8.293075156670133 7.8903165305643554 0.5012489025878594 -0.5492686250002475 0.36718875554493535
Ni 5.468727042520369 1.612675212247627 6.00752383881093 1.157750784246174 -3.260813411375378 0.06272823226715649
Ni 1.2220498702172733 4.772388075127449 10.758064788667422 -0.03184645508663547 0.08527963520511118 -0.2812123513831157
Ni 4.7673383204928115 8.62202135280598 10.062217848649158 -1.2294567945319084 1.06462002842776 0.7303578484075163
Ni 3.0423661837510894 5.727420608244658 0.6575344701025339 1.6280945126147444 1.6152102004529088 0.48034969054134696
P 5.98946217978898 7.799022330978319 11.793403218291155 -2.395364917777894 0.3058000680248088 -0.005172802450191091
P 1.25510449121397 4.506378839227339 6.9036000241369955 1.4138997649027585 0.7532224117105157 -0.7051242706517082
P 3.5511428361431676 6.7574503214576165 3.6117176950351553 0.3221314581949807 1.7760399022801932 -0.2484685812931914
P 5.794806161849003 1.1975594851027649 2.5171038397175423 -1.4662361124126295 0.5869237163488601 1.0117344932826382
P 7.499496042338415 9.099398889841654 3.3436857826907316 0.28123266309808986 -0.40534006980367615 -0.16450946467171668
P 6.408554819924491 9.022024810586377 7.034591214277598 -0.8768271677480705 -2.0394149683715717 -2.5734585488919484
P 2.871830605531142 6.012870474624638 11.581452253159284 -0.7793224512316771 -0.3839508054946226 1.719752540542374
P 7.5995385256403925 0.4761613415513249 13.280583704096651 0.00968611693951235 2.00761607869342 -0.22381710129309842
Ni 7.865954701474429 1.7594233016025762 1.7063879298500697 -1.08502661710857 -1.248323035308792 -1.8361324966967152
Ni 2.4360071849303186 7.008698736118014 6.361295220643288 -1.1676017088983246 -0.08726401262499166 1.0418696221051218
Ni 0.6183600274176686 6.0519922000907895 2.4340187284349946 -0.20235404632331602 -2.155704935915268 -1.4786278012087632
Ni -0.02437107772478894 3.3577631298141433 5.537136420003936 0.29491684545340174 0.09405635295647671 -1.724681602412875
Ni 8.158193065843099 2.96470539681509 10.026211063404519 -0.015893531301804886 0.07330369379015762 1.097215445865278
Ni 5.499395515722676 5.4184977065849855 3.5315699501847706 0.505269079490846 -0.06169207769315828 -0.24501404708568772
Ni 8.994066187398627 6.10375680941326 6.437991374963183 -0.4052048297773925 0.03684750784565267 -0.09990946930314407
Ni 2.7543821914189284 7.974468934309975 1.8361333288747648 -1.1659682870599595 -0.1843272707285922 0.08622091607245795
Ni 6.764747494363714 3.324421801136725 13.16172117371404 0.03717892304314242 -0.049682969047424114 1.0725210284423916
Ni 0.05428948663979017 0.2046186474132957 12.127412117150445 1.1374979475344087 -0.8125385329723296 0.5000283999171969
Ni 5.71071757368393 7.686531185152124 4.377264197100231 -0.24178397018416425 0.9833744540827064 -1.7839658419954891
Ni 4.2048363481875235 3.5238131201260328 0.5003539206232777 0.005006966296288151 -0.4760315227819673 -0.16972417610343674
Ni 5.346497084184514 5.5113077574249 12.454612171024351 -1.20582244294242 -0.08385035895775238 0.03849969873709499
Ni 1.1169391350109334 3.5949536194843406 3.343631215745046 -0.5068245969034239 -1.3541828086581 0.3943997687420885
Ni 2.6503720437611635 3.5675036712140002 5.404873542569811 -1.003934537622245 0.6447349709303736 -0.4261485219085951
Ni 0.18008386885144978 8.021821944803285 3.244978802262823 -2.0158595496491345 1.5211656745709738 -0.6803606905537831
Ni 2.3668921366067837 5.302806533096547 8.555869567092222 0.5660041925873736 -0.21441971923859848 -0.12372688343771596
Ni 3.031693259120371 1.358411742622225 5.622929531574069 0.9818423337088963 -1.6428755275786608 0.0260640440769035
Ni 8.7110117174479 3.7904975063710666 7.722682249100609 -1.0969197690017303 0.2676438686700616 0.7410695783980658
Ni 3.9653244511669703 5.495603575429267 5.256474571891999 0.5007053713795634 0.0914022031630813 1.3298102933510065
Ni 0.8860802607672438 1.6593253264914263 1.8684304866762658 -0.2716560751532483 -0.4088951341447861 -0.22539035931748921
Ni 3.3653100158615143 0.9028332379562243 12.12919895340578 0.15779400032475405 0.08261854343318029 1.86012371740499
Ni 6.266680761141803 3.580220544149215 2.0632585292246755 0.28207161405961745 -0.2675333112341263 0.31283126383997734
Ni 1.3452694324833592 5.556237625584372 4.498075414848258 0.4670010371485829 1.0822364559579425 2.0941054179359164
P 0.44129121353122247 7.789265021198937 9.904776487666796 0.6162049818114808 -0.8890581625966237 -0.2174713615807287
P 4.887098893320519 3.4675536742606416 6.011083638369304 -0.5248194908189477 3.8864754248346998 0.4550778033484356
P 7.222462433682831 5.6043397755015 8.075980100828035 0.23702048735724987 -1.1781002944368033 -1.0555278363185046
P 8.563912179968195 1.7639551326849439 8.302713159059797 0.46896998794949557 -0.17065722944066739 0.3690384071591644
P 6.320618799656838 3.8380724841010636 11.155098509793637 2.2624777079971485 1.8777056921528115 -1.5899408843631586
P 2.239260975511536 1.4870972480917377 3.650431555703894 0.3595790615184775 -0.37547979190913394 -0.49361606863295
P 4.679198830258194 1.3622129315504965 8.947638040391515 -0.772295883402199 -0.19945487039865004 -0.3960015660115696
P 2.109789336078755 3.6001143577373225 1.4504291854544675 0.13659062677426154 -0.7809088218821906 -0.6643789704135461
