# total energy = -381174.1160508842 ev
CRYSTAL
PRIMVEC
9.21080649422813 0.00000000000000 0.00000000000000

0.00000000000000 9.21080649422813 0.00000000000000

0.00000000000000 0.00000000000000 13.48094634688990

PRIMCOORD
 96 1
Ni 3.1774795953071964 2.1591236035723105 10.818540031239067 0.4579594957716049 -0.741112515820859 0.02789209842457777
Ni 6.785877567956538 2.491974522732987 13.568977156633698 0.3238170734275197 0.09431526304481821 -0.6163451069337708
Ni 7.302097225492032 7.210661548083613 9.151769964145238 1.941336895850211 -0.7792939119865869 0.06654889156482734
Ni 3.2756483723615863 6.012575086592458 13.125885777250357 -0.6854753860725291 0.9575798616171056 -1.6039636810048117
Ni 1.2500169892667838 7.341372104959092 0.023340183998482304 0.4137120959174552 -1.0138744224437766 -0.49160803706398565
Ni 5.974939730705403 3.8230926643701877 7.6724784973441915 -0.7035291582504465 -1.0836024830675337 0.8668857402646426
Ni 4.269015445711357 6.029071641265418 10.727908457249379 -0.46316469412162814 0.15561833282967394 -1.3156468573664308
Ni 6.3582474485810305 7.681656145069561 7.01951520459107 -0.09980019741878943 -0.047564380042524536 -0.9086065170421965
Ni 8.475231611824588 8.826062025525532 7.7341402423236065 0.6703837818467293 0.02104113694101538 -2.1382666858341626
Ni 3.2696521372459544 4.723679282543672 4.969144515970804 -0.753936664168721 -0.8959397202078053 0.5422168603597888
Ni 6.688445655432488 8.170971036441058 1.8467952826622325 0.5669714415966494 -0.6542701641143184 -0.49826308048665807
Ni 4.751247226784973 4.533918244368166 3.036070686531861 0.292345999402432 -0.12036722293686367 0.6943858011882815
Ni 4.342047931474564 1.9048224433457521 3.627345522966342 -0.22106833490336766 0.14055012564264183 -0.622451991162457
Ni 3.137237581144068 7.11204144150439 8.788189030827443 -0.20234967544794183 -0.01583208193625015 0.037113102802213506
Ni 8.908167155818536 6.560562816192184 1.5906980151429737 -0.9209069316761043 -0.9680144266868682 -0.13184874121390197
Ni 8.145401837238301 1.0559913476219418 3.923225185397931 0.04553937919269577 0.3431242583965639 3.7279687147136378
Ni 1.2436246894660947 5.607299594906104 9.179742262797562 -0.8872185382847236 -0.3227294967902958 -0.9617807870723306
Ni 6.15672421033999 5.987291422395207 12.133539261275104 -1.4351838710925153 0.5639629937876287 0.6888743844517491
Ni 4.816257099974116 3.8749034516596366 10.31993419922066 2.5095293543381554 -1.246256896808383 -2.177503776957914
Ni 4.53832100993694 8.101539976069883 5.426013419910157 0.13627232420289434 -0.2844856228177488 -0.1437820023163782
Ni 5.27801325791094 8.262784356921276 9.250045586556526 -1.4415280681429885 -0.3554616969159943 0.8582095526468833
Ni 4.815814981255913 1.514228977426399 12.65165266065357 -0.5897575862532295 -0.6287126273601882 0.4608617570200644
Ni 1.900548629069787 7.100739781770319 10.855815244586918 1.0652846585949525 -0.9965428731438645 2.9310707164920426
Ni 7.092827698875806 2.441361140305339 9.698462654332895 0.6649888360834032 1.8503429838691425 -0.15161101144249373
P 7.360245047742395 7.044885450370636 -0.00044027655687744837 0.9356930888463434 -0.07861533581105816 0.46847659325284474
Ni 3.2739535839418075 4.409784203425962 8.08069499958726 0.9403498708920643 1.2251486540748577 1.567206161769804
P 5.252978285492679 5.437848385348062 5.025413333668803 1.6447115523461353 1.3769985210010351 0.046102193674701246
Ni 1.3631349054804232 7.307236855591145 7.049901655660918 1.411241244233989 0.7998737930204677 0.2269103955064415
P 4.761240951977693 2.084129215997076 8.128902519323352 -0.3866617766678825 0.638353749994378 1.0749604911218196
P 8.7918991437377 6.3331111572898475 7.423552763866455 -1.1623204058947274 -0.6784835281357282 2.019477606017696
P 8.815957770653261 2.7885440745811056 2.955711004095098 0.12471470127228199 1.4619696238267919 -0.6991706241714346
Ni 8.444891214787887 4.033891184886867 8.214668945251477 -0.3770425084105635 1.3569621711754503 -0.0916819391870292
Ni 6.639517850617989 5.316099943322829 1.3664554012702623 -1.0409005733236332 0.34373669516958216 -1.9228141544556754
Ni 7.124872095138915 4.071148897702124 11.748186744327787 -0.9463022318207572 -1.4969780215811768 -0.8074536622502545
Ni 8.664522898862005 3.762338183843752 4.878080955150207 -0.09325648276300068 -0.12221661744077661 0.5496375783038921
Ni 9.255663257519696 2.263666258814131 12.509038057290468 -1.6906116573123593 -1.3336224680082451 0.8295697774230036
Ni 6.153270157854028 3.3402253376391555 4.4489006570189975 0.7312806173321018 1.058051374071307 3.0705844304503698
Ni 2.6794697024777014 0.09718506290638773 12.145321725115224 -0.16685353942386105 -0.3076957423856249 0.6607102633127073
Ni 2.658809863208326 4.290034506439272 10.717783938602524 -1.5621184628342515 1.1128960898253284 -0.3685442411315653
Ni 7.533500320438311 5.171499490050463 3.360934915264328 0.6480146701229097 0.1522985244278216 1.1733406682646308
Ni 2.367352309039433 6.8204549360426885 4.7312321439796445 -0.4504991828388177 1.2511934148780515 0.5630641361224431
Ni 4.3564260006228 2.8418009585113446 1.022900603725751 1.8914369256959749 3.0424005118169863 1.043621314688906
Ni 0.967383387848698 5.082090190100477 3.8116436317300484 0.3646582758135978 0.0951819819204877 -0.9886537002037749
Ni 1.5977986259734513 0.4260965200717406 7.787133697184249 -0.46636854577090653 0.4638426940252592 0.21505401038848768
Ni 9.019866607811274 6.348990587918649 5.379045674746361 0.10123410165183856 0.7703379883448797 -1.9201420069401507
Ni 0.5969265873821793 8.194937555290329 9.549174821566911 -0.21411812883777961 -0.04008067007096968 -0.932691068795226
Ni 6.587421528323034 2.9682192794975992 2.4009293835256478 0.45314613354336153 -0.4804088259140565 -1.568209663333654
Ni 7.774206330080117 0.19735534824131062 9.832853849537415 0.9442494630567867 0.7694131625377653 0.6827888403793015
Ni 5.960165596872109 -0.05687396769353934 3.8590157313048685 -1.1536868985894453 2.426236153435454 -0.39990527194134995
Ni 5.222407618290247 1.1854031807626981 10.441936859508859 -0.25668479855539666 -0.4155401502651295 -1.9507892995123626
Ni -0.033158903865247155 3.817897769431299 10.852094999789369 1.4500001101697415 1.1979047307572401 -1.1016673109890447
Ni 2.915680838484441 -0.04779579667976501 9.819628973379158 0.3575064952601649 0.30531387241700964 -0.2813126244064058
Ni 3.977825004934712 9.32898127828841 7.45074398611662 0.011088396603677676 -0.5369162740824818 0.6281618970630408
Ni 7.6382916674591215 9.208844727423294 -0.1380985448727881 -1.1698205709265146 -0.04392164108361468 -0.1646616739788648
Ni 1.5579710981086377 1.118459038181416 3.4385985946007143 -1.1872079131650264 1.2587725127768903 -0.07377549122025359
Ni 2.568847914860585 6.262409005603836 2.3378924651164867 1.1030649626675197 1.625744524325329 0.46095380251323836
P 1.7818673856520897 8.521755396108857 2.2062921443206243 -0.24610907992207937 -0.9539448359676796 -1.6821532421323608
Ni 2.602384461797631 3.4963945640378404 2.8187582835669867 -0.3841670352704868 -0.09166496990616471 -0.17247808469949005
P 7.080568115252293 9.439787282038113 5.768739244858037 -0.365984193713873 -1.0620954622336936 0.16079859147903272
Ni 8.630056060455406 4.361445890235734 0.026404619364028895 0.20167887463316234 0.4795426212590193 -0.30097205050854614
P 5.394318113218295 0.8802390252488398 1.8498689288344086 0.4020135765336044 0.16570888429645655 -0.39653892657227835
P 8.694881717511963 1.874445203082534 8.149744732563986 0.8750754751642864 -0.9867888790808941 0.9666630548652966
P 2.530061208144875 2.6848948675823205 4.846939217936762 -0.13084858208416175 -0.011106137215490551 -0.10909884911189599
Ni 4.6639748339729685 3.9812237925809 12.564296449501239 -0.08610418798893558 0.4692754350050563 0.4743543921898604
Ni 4.675009380314792 8.459177175869831 0.37820953640634614 -0.07886807525181257 -0.09837400649522413 -0.16147684849297997
Ni 5.378438682589493 5.967718458308082 8.505695433670121 -0.136327602920862 -0.7183137727587887 0.590404475808609
Ni 2.953187243078687 2.48398875338544 7.062978237832442 0.3041645893039149 -0.23900949276282063 -0.39547886073888017
Ni 4.991013734150598 7.019371516007654 2.8878614392221618 -0.5468816128253098 -0.9286030147687814 0.39173996252173826
Ni 8.96281487154979 8.463966795317035 2.827615395221659 0.4760253521343802 -0.7604513253587871 0.8962449101530501
Ni 2.2668071438747 2.65358733584955 13.010111464404845 1.7894813724970795 0.3905379717938371 -1.3176615738036144
Ni 7.9366849590198285 1.0610112372348752 1.7678513012043824 0.10662904741516474 1.0906102818439347 -1.082688970114329
Ni 1.360592722850754 3.100071976395103 8.854919482694928 0.08786770764726157 -0.22196436435507577 -0.5287113696741863
Ni 2.7691276942066776 0.6555220548347228 5.485208510874264 0.22048289471354288 -0.8319909852699865 0.27413796103483756
Ni 0.6007444667299973 8.880718952063415 5.308999332492351 -0.8075449364124802 -0.3662960685273369 0.10568288145181154
Ni -0.09023182498197799 8.910423803442699 11.748308326975293 1.321717231930227 -0.681344394623291 -0.9917588214916598
Ni 7.604506428743086 2.248081573997465 6.303677103625463 -0.8016542819596582 0.3124875073473134 0.3151555410977798
Ni 1.050483285257659 1.5189541212271969 10.535023113465236 -0.8882757759046443 -1.0333047632542463 -0.32699778514834654
Ni 6.366564806967229 0.7128003769392854 8.069883354765864 0.006032836457641222 0.5424307761428077 -1.573267794582852
Ni 3.389724212464666 8.758832347938744 3.5141189192344777 0.8421746106712076 -0.5828202357034479 -0.8873864313211555
Ni 5.148104041212205 1.8269819165220844 5.833488452219573 0.14389255975231346 -1.2508368028695813 1.17348285026945
Ni 1.3395183972830635 4.85354244520926 1.2427128196098005 -0.02343020599848223 -0.5858541374337652 -1.4682670267997293
Ni 1.3647283750272805 4.863987499926814 6.66456203384288 -0.2611124953094471 -0.5463051714965494 -0.29831044451598304
Ni 3.9278748005843687 6.332374292759509 6.82688592123122 -0.33621981796724676 -0.30939344180302203 -1.9748450549099856
Ni 0.8128278947714552 2.186562596520802 6.173316557401895 -0.5052485106655558 -0.2343462829591964 -0.12479003459490767
Ni 6.8715564912216855 7.25719454317451 4.383734200117158 0.7651032223085017 -1.5710144797723007 1.3199984494669073
Ni 7.082483963031174 5.219450949362263 6.29979474863124 -0.041142021455948495 0.617053445854705 -0.8199435671871492
Ni 8.445425441572384 6.387445705595706 11.356605879937781 0.8390085542384002 -0.06713587441654889 0.132594618240991
Ni 3.1609277757944607 1.2291360906383075 1.4610918339823404 -2.217402155814749 -3.364676208899315 0.043238241863344885
P 4.327697494746216 5.246208342620192 1.1917908751600728 0.6633523289212447 -0.1517202833268484 -0.3376588644066185
Ni 6.5036768744500275 8.245090397386514 11.39416386504915 -0.7773840965583838 -0.1478147776248551 0.6256170191539999
P 4.306577115145379 7.758980866721991 11.774622680434355 -0.5897984667934939 1.827160889325724 0.6144507181245352
Ni 0.730019058851978 0.27427203116006604 0.39257839474795325 0.9248371199684459 1.1281774414644312 1.1294015436795193
P 1.3913383953791414 4.9822358354329355 12.234861818519345 -1.4270519860140003 0.6052873064577123 1.309052234868049
P 6.9292161407206985 5.186356521143421 9.802468319548229 0.2972619486468106 -1.565944264338245 0.6602212394914306
P 7.014766112693036 1.2828443040933788 11.618634906926266 0.3923588270526598 0.5993652845463225 0.8602330108348152
Ni 0.9538803453302391 2.52975725152611 1.2540457960864115 -1.479762943254471 -0.03514929420762334 1.7575163895547086
