# total energy = -340867.5552860968 ev
CRYSTAL
PRIMVEC
9.33255411119821 0.00000000000000 0.00000000000000
0.00000000000000 9.33255411119821 0.00000000000000
0.00000000000000 0.00000000000000 13.65913629076463
PRIMCOORD
 96 1
Ni 3.6108490970436784 1.0468325710060749 9.656763089861794 0.6122413691780424 0.43976688402297814 1.0993738869691776
Ni 5.957715758927146 5.3717246995220345 5.405480546979724 0.4310089353246899 0.15296006927122044 0.18150728478129385
Ni 3.40626085043946 7.7457864234712215 0.3059780454333803 -0.11396749005810694 1.7278558863757985 -0.130463173720285
Ni 3.2457689210145557 7.3309824002608535 7.391696262915191 -1.0687330221548692 -1.1270847226208847 1.8967917622499848
Ni 2.2355572915135884 5.030769175325404 8.36377601043458 1.3989703972864358 -0.21062785629633404 -0.45126768557372604
Ni 4.5523637972839195 0.6937792571883774 4.160599983142819 -1.0824480577481164 -0.7950722578667662 0.05065536026302244
Ni 5.443650692432294 2.266056077660043 10.892109516634067 0.25850513959358706 -0.45534442674626097 0.7043591103509095
Ni 5.988457191475011 6.763479130132402 11.260290900324284 0.5646741609220404 0.7322332110533583 0.8916750313941805
Ni 7.027049117387047 8.850284845027769 7.8401525422349545 1.1249828457865336 -0.12612623690782793 -0.06690498935266541
Ni 8.518755200270528 2.983216182135053 1.3891618471368408 -1.4946709707145551 -1.1899913894474345 -1.796625182630712
Ni 9.402828031253906 8.157286722600853 6.974354718299309 0.02555856519539469 -2.5493197468622157 0.4617441596250177
Ni 1.6710591037410603 0.3576701282322173 0.22290338363372197 0.2679601143588998 1.392508443711176 0.38386133110460985
Ni 4.645334699239545 0.6360555448037223 7.336977632886461 -0.17955170371681983 1.3197032868239917 1.110871860306448
Ni 5.645448505420298 8.730622838917045 12.664423097172733 -1.2009818270206671 -0.7555029802145763 1.190866078742904
Ni 3.539081757549725 2.6090834288225575 3.0466570170390828 0.8320802025496832 0.806736838688888 -0.772181983532154
Ni 5.331753371166689 8.071249908193213 6.394893646858295 0.8771148741918184 -1.7829019195073488 -0.9756251491545908
Ni 2.502552326049674 8.856425665494221 11.878831107967768 1.5977986898446805 -0.39499575045487456 -0.44540094238030387
Ni 1.0228385749281874 7.581990769965582 13.60757286085632 -0.5720840802328664 -2.2294572872070706 -0.872901093220787
Ni 6.503352855266998 4.803344169326947 13.522080134341072 1.2540221425760985 0.3072964500646772 -0.18515516594652628
Ni 8.35574348129252 7.53578529560478 9.813720781124621 0.5592285644264369 0.7649242735284761 -0.3509987760486342
Ni 9.560174890014379 3.7204692751575887 4.755960926663917 -0.16190647983123085 -0.898064479860292 0.9675963653128433
Ni 0.9816726796735936 3.9932784907736147 0.07015000790301652 -0.9709547402621149 -2.622884407623244 2.269693509019298
Ni 1.1534383342101613 5.654939712736987 6.258629960614178 0.22979877279783004 0.05232606309722601 0.20016732308464236
Ni 8.17493458202648 7.124760956724067 2.239470431364019 0.30071853973684337 1.0984958552395987 1.5245641587295615
P 8.601086990779717 4.582321295304152 6.684343739334095 -0.38379653930494545 -0.3351623232370099 0.09845859578923044
P 3.8223620986419817 6.799278806894274 11.702779011424754 -0.7387928665487471 -0.18936689003502868 1.6450000301208312
P 3.191742766485233 3.1032888206173936 0.7989571396457052 -1.3864352409339025 -0.3784206197050128 1.18032866954669
P 5.793584133481093 8.825208272697436 10.101108379188437 0.7669765280718145 2.4657151853666823 0.7103418102969057
P 7.121298579227025 7.391364023996338 5.288557645438762 0.2417664866826675 -0.07213718428588221 0.046707174248551815
P 4.672716412383271 4.941073999788815 3.4074218201446675 -0.0328728394686208 0.3884759470584858 1.4749218131120856
P 8.623186478415825 -0.011911138543060116 2.0542248359737365 0.701756896841372 0.4929270129857253 2.2956364541373047
P 0.4661769326658121 9.128964237047136 11.992352293612038 -2.0062220265593704 0.5769421796561162 -0.16338049327359605
Ni 3.2241827238429677 7.923832886782748 9.85818106790605 -0.4297701778215824 0.10886873537896088 -1.2089489043865438
Ni 2.0849205390074896 1.9883379386924156 11.994510913329195 -0.022565286895025655 0.3854896107366522 0.23963864170638727
Ni 6.314209985367916 8.64300882290024 1.9497730262098587 -0.34328212413066683 0.9343553438715263 -0.2580433694658201
Ni 8.813635905860961 5.820956514070919 11.761785949970712 -1.3558815365167618 -0.28944065283017895 0.7816019912944733
Ni 5.266696137927112 7.29274692693098 8.877127136556053 1.518542892236146 -0.38613392918887046 -2.2003953368441076
Ni 4.8712105012905385 2.9689933699908675 13.27581923480547 0.6978169383570176 -0.6898927984139344 0.16977276995318502
Ni 0.9406654378353062 3.115038505977977 7.300111245213773 -0.5466293876051876 -0.133392431551938 0.05931689259276236
Ni 4.349072775671854 2.7233698838866607 5.67541160297287 -0.18916531554718388 0.4908565036099417 -0.020028122295468735
Ni 9.050458793637105 5.64915352931875 0.9284005954994216 -0.8722796575867043 -0.6103827187027487 -0.6469479194212923
Ni 3.5609106011227234 6.6351938442177225 2.4835316479453016 -0.86607301455536 0.10840876502340685 -0.0016383069343713721
Ni 8.223855829572294 8.725321948301628 13.81047938124769 0.06370525146844512 -0.18034000394607005 -1.9118751389456683
Ni 1.503651751875972 1.9105790995944159 1.897048762949639 0.108223131375162 -1.1394033920872377 -2.994650755236533
Ni 8.993044922041943 1.844868587581812 12.828332607835957 0.4088375414339733 0.09695347199861366 -0.3890611301379944
Ni 7.525967448901577 6.474543261376513 7.488006352656375 -0.20096333662337648 -0.861490023170368 -0.26282664978707637
Ni 7.395694329006116 3.916182263002542 10.457694064657431 0.390527687381192 -2.1677248431942795 0.9899073701052177
Ni 6.779241813670151 1.2715324712656209 0.31052673220442745 -0.0083465721924824 0.8319758157613348 0.678119202817774
Ni 9.098857418164497 1.0535520098143514 10.22069479161257 0.671534864732037 -0.15171077024515162 -1.016563025019533
Ni 8.487369821503536 1.7418745227371741 6.0613509702247415 -1.608536387977159 0.20190616015262 0.7596460558486724
Ni 6.456167462746657 3.1245483784024684 4.362660040895424 0.6684459413940682 -0.37798558905012325 -0.06781901652650256
Ni 1.7873053951242435 7.539966279752153 4.911443141155095 -0.1629557470313516 1.1390388096589672 0.44379246024260344
Ni 3.362929802679977 2.9660162852966447 7.986141682898662 -0.15523112469358427 -0.6257764275499996 -0.4485497724219307
Ni 8.590830514043192 5.817727450421387 4.6453626969012465 -1.130168503752531 0.7850274720362544 -0.266244931440006
Ni 2.6038851963000442 4.555891502658264 4.252212065250549 0.14186781601280082 -0.820480927747858 -0.7678417042855873
Ni 6.486834234863319 1.445425948091476 8.885008478324927 0.13672432413864838 0.6115433146697532 0.6137716897796397
P 7.008356011924578 6.937111295449046 13.709538478261136 -0.27204276906870567 -0.10877874676831586 -0.011060114468903533
P 7.158750118029267 5.79156830183861 9.816903182004655 0.5564247764290546 0.6606220744742751 -1.7026117670970289
P 0.7275453704553568 4.004309569483868 11.683916053481296 -0.37872478120899294 -0.26272277721936044 -2.4631055156579773
P 3.266617846428014 -0.1827706020959006 2.4611437843936708 0.6334717393117284 0.16262047517911996 0.01308202999493876
P 1.3713441352302276 6.98653650090548 8.682033830290086 -0.5564317184075901 0.7528159203007164 0.48849186003250705
P 4.118848003503281 0.9837538391933793 12.312153717882667 0.11251301699976753 0.3851317131766012 -0.4402679920291127
P 3.5055872216012474 3.4985318108525565 10.177818239228035 0.1540841555733346 -1.0402166598827312 0.0730946631031451
P 6.217384738651432 1.6042100201526095 2.730023994817634 -0.40374367185083365 -0.49983505295946823 -0.9385015048294159
Ni 4.163765585425829 5.6072690274138255 9.855244113193601 -1.2901633683833458 -0.5769226392720903 -1.269401453245646
Ni 8.895323750151023 8.42137933287392 4.3480583270628825 0.696086328819156 -0.38231969764910284 -0.23854078065651818
Ni 8.788745984608637 1.5991891061542032 3.5986355837542456 -1.19447719313293 -0.07968800004994664 -0.8144884576098489
Ni 5.989147800463639 6.249395398529748 1.9440643029889937 -0.23984895794498046 0.04757697844801484 -0.03688504595180745
Ni 0.9113602853327104 3.8356049926266267 2.5651858950413216 0.651370216858704 2.512830136576614 0.44377214852762925
Ni 1.246185254872178 6.1494064160410336 3.2486480138928244 -1.3140044366670016 -1.044601162103672 -0.6084268805279587
Ni 6.8212196411140775 0.1799437715194743 4.4097017120857 0.06833580826192101 0.25437311970308446 0.21793081771565048
Ni 1.3831964786837154 2.7467199337454216 9.777113838450367 0.5357088840379419 1.026580042935903 -0.24572367155820263
Ni 6.66647656489181 3.3921033661725777 7.0275297439129165 0.7285400784724871 0.35346934907631383 -1.1760716940425486
Ni 0.310005042441396 5.1606783256187505 9.519967448045355 -1.6193288506069723 -0.2914664250109561 0.5108452880270428
Ni 2.406893648570738 0.32770049789191413 7.8149247825314365 -1.3137128735685117 -0.2605841336098028 0.42786704726159863
Ni 4.425693043194007 0.8752003719902824 0.8536645706097564 -0.8969401364478617 -0.11452413389252535 0.6574470191804032
Ni 1.0820162992105224 0.54705284476654 5.902317718974467 0.6030036526298582 -0.058247313677667424 -0.026517586674554332
Ni 2.6536650388046925 4.609497692262071 12.58683877683267 2.4566831570714016 0.6434543044457369 -1.7257444964597506
Ni 4.277212110638898 5.730552064437899 0.3349182950784711 0.25440397294101996 -1.7809535375317265 -0.5896603985537329
Ni 1.3932756368961303 8.179964828578788 2.2472285834214083 -0.8129895044668191 1.2295532109004566 0.10921532008510224
Ni 4.926953845737533 4.5565634465390925 11.646462648168276 0.2960018509874644 0.16041806821116245 0.4385399535944125
Ni 3.6977258413023533 6.036407853415185 5.4327437366889155 0.35687708920628214 0.8241329226781484 0.7041351672655615
Ni 5.4619331655231464 3.660787592964633 8.899432873633362 -0.48729552573156076 0.9732710471001175 0.6231405325890493
Ni 1.6019515421087167 6.558200274539555 11.124014148504708 0.49007977334491726 0.42613000996583383 -0.2993733385628586
Ni 7.341901488324303 0.3408631319130157 11.492906672802135 0.2158806200548411 -0.02761621905537179 -0.44881742426102067
Ni 5.172036043715518 7.4463327664696 3.9607125439382243 0.9583897591129108 0.536186852115625 0.5019970936077935
Ni 5.949689762572816 3.8529728754352415 2.064359989509554 0.2611726591234212 -1.4551790832675198 -0.5091087649519104
Ni 1.6642556719476802 1.371325470122427 3.9286542880350153 1.7673860832599368 -0.6676859232995921 1.4835460644459868
P 1.8982041331225068 5.785558137126762 1.1039888641135867 0.7164201552805016 0.7216325527193767 0.11388727163947483
P 3.326523509914579 8.682737504854174 5.847243518642131 -0.17768533993204236 1.8603818561623833 -1.2813717382336447
P 6.148986451115516 1.4558317456904042 6.101850521130848 0.9818369343922575 0.43616296872180366 -0.17342245089063035
P 8.054516639049826 4.314831635411346 2.893114107248405 -0.15713888323925843 1.3169529777723643 1.4250447257759846
P 7.106711797480725 2.943207523564106 12.532953543867244 -0.47995168377197983 -0.353947574264313 -0.41359305384108774
P 9.172780577609439 0.6022063718070294 7.979489438478468 -0.24699533918177463 1.6307167807289398 0.7242813031961333
P 4.513979003091641 5.455895003149598 7.52458623092432 0.20831412056149287 -0.8453720345625827 -0.5473395262983347
P 2.144452900338039 2.8834978437094496 5.504003385250687 0.5723666444702917 -0.9310298790427192 0.5553659961472371
