# total energy = -340880.34322492307 ev
CRYSTAL
PRIMVEC
9.13951535779406 0.00000000000000 0.00000000000000

0.00000000000000 9.13951535779406 0.00000000000000

0.00000000000000 0.00000000000000 13.37660456250267

PRIMCOORD
 96 1
Ni 4.865987644686699 2.826916073294946 10.329935392533626 0.38876828148792403 0.34988883081390715 0.10353472476055718
Ni 4.589343654662016 0.5792798477434166 6.446480377759231 0.14132094237039533 -0.2610147933893182 -0.056559641562599364
Ni 3.839620071269277 2.6547184646506214 2.7287467110545967 -0.6387910946421127 0.6328495323466972 1.1065554923192813
Ni 5.143646120914848 4.388585060559726 3.549187294441256 0.37484292965608346 1.6459757637705397 -0.7556425911162341
Ni 5.032162312717648 4.84781828817776 11.514166158725844 -0.017877394501053082 -0.23825744508814453 1.4984517779132256
Ni 6.266307628023508 6.108203152043561 5.54313159485789 -1.0791583312532513 -0.9158089483279067 -1.2819870032201406
Ni 3.4975097328172655 3.174930538660828 8.220458478621268 0.2689024236675111 0.6251537063643363 -0.9698836186851233
Ni 5.530549224080296 8.028497581991568 13.014044710635678 -2.4857903588500028 0.06926140539998393 -0.4456822210661486
Ni 1.9709273449678857 5.617612247271519 12.079662703375131 -0.0175439224210343 0.055327568927711165 -1.1633146514871966
Ni 8.075081691712926 7.217100549040318 9.916678496866405 1.754955570806068 0.8401418965118951 -2.128473868113457
Ni 8.03399957023019 8.76481349637092 7.557821681159655 1.1144073842635325 0.8107246196920425 1.5783156414194042
Ni 8.059718166415378 2.434730330259194 1.4739013074403382 1.4045496911464261 2.4086670342034386 -0.8504185958475547
Ni 1.5028562060097392 0.9922132045673692 3.42423732433245 -1.5604562446404804 2.5866215686364677 -1.410847608339996
Ni 1.9209890331143435 6.551807808418997 0.7673573643023694 -0.9357797350228786 1.2825984115518945 -0.3220209007590454
Ni 7.871425871245782 3.9326968955585295 4.570759364156344 -2.1485313009849643 0.5074046377766099 -1.1874578243923033
Ni 7.566760127168579 4.195969774631212 12.94841933464132 0.2578682773405366 -1.1484292497349318 0.060318337274083214
Ni 4.8114430170984965 0.30686928122725454 11.121348875179645 -2.325957473718349 1.069648591990603 0.2061111993729031
Ni 0.7885528143425505 0.2223954827337087 0.8218910244721563 -0.06465707385875316 -0.34514334570912175 -0.18688217593996204
Ni 1.5563040917563562 6.815300035859997 9.978251411756105 0.35096740859006653 0.2091895811879107 -0.5072110337085651
Ni 8.970818172282128 4.860065238742135 2.17880836337974 0.03571185157931269 -0.681728260325271 0.2555465711858954
Ni 6.308312840556246 2.223689781392037 7.574408987562107 0.01854279599919387 -0.016348359451036357 0.0402202809726275
Ni 3.448165489461249 4.430471459392959 1.037679551561845 0.026627629889857365 0.6494637438646106 -0.5826536282185965
Ni 0.5610474285785865 0.32965135113159655 5.777984237008944 0.8068702789429588 -0.6669475024716707 -0.40860099994313503
Ni 6.55704475071257 0.8422566065188709 0.8052379135592099 -0.4007704481551227 -0.4399867133432681 0.8685870392264654
P -0.14194764075031754 5.87863680556895 12.962344300223322 0.6734675629783756 0.23361069034475251 1.1306927516871172
P 4.0445554238849395 6.2204546795298725 13.066815358295116 -1.1315795251674448 -0.03072648254957934 -0.30328475780212283
P 2.440817247479995 8.4305357225709 2.1501148549492504 -1.1616974275987477 -0.11390604069255222 -0.7389239928099726
P 6.2675140440492525 8.195896945078955 6.498046437295994 -0.30194444172414453 -0.8957425165953349 -1.420876710441224
P 4.644116770133882 1.3651328492525967 13.36824388603657 -0.8408754322438099 -0.8095761079098961 -1.3180384975270591
P 3.9746381314838417 6.2321898172348416 8.835140239059543 0.0914543965572554 -0.6538582733878803 -0.5681261240263829
P 4.930229298057589 1.1610840296255498 4.1646852135999755 -1.3449926575183997 -0.7737092188099578 -0.011060628689535789
P 9.028241747204492 5.830855419337194 4.241814497561035 0.4547186202368039 0.9064509041517744 0.15476986878644958
Ni 2.933958077033725 2.015957737080331 5.114946214823617 0.23870301726599538 -0.2675677640164876 0.2087812900058985
Ni 2.1262808268285207 6.411552805910861 4.878501469099193 -1.3684938259641335 0.23285941400102478 1.0276982157007462
Ni 6.614038768413647 1.2662432932029395 9.829717836247063 1.331225171420662 -0.5567947581739637 -2.1760449330242007
Ni 8.801280162603648 2.525257229766759 10.78506132195492 0.3582567431626281 1.862149489585767 -0.24766254045212832
Ni 3.4160126744720904 4.434538543722173 5.150768545224414 0.11083871462113815 0.5249999822608701 -0.1051817734456769
Ni 1.0484212239486437 9.116821929943242 8.982965502129225 -1.3168897286345964 -0.813424792232025 0.48474293451303613
Ni 1.8774209634573455 1.3277705105159054 11.914233819796461 -1.2909763512029444 0.7809908400730357 1.2601166855096104
Ni 4.260622706192698 7.118028202683731 1.822428499617162 -0.3161729266187006 -0.21523938692641642 0.881018837231915
Ni 5.9546592942215435 8.215702274834925 8.714389876252474 -1.513162087540207 0.9276573630260605 0.6454047433038884
Ni 7.371549218881645 0.8903112642594894 5.752782937392371 -2.240186500699116 -0.015672416429934298 -0.9794411804665712
Ni 7.832537233446216 7.733665956427252 4.8262389784930235 0.3846259771847763 0.33807589733937904 -0.10405048805471112
Ni 4.81606761186385 4.692994898207225 7.096476311545033 0.43612311662280373 1.2039504227306879 0.5967203907243077
Ni 0.1694621517011025 7.066572731282661 6.492736378879649 1.5518942140030823 1.9639710883099593 -0.07062229030325257
Ni 6.800238114568885 1.8292008804889546 11.938432514579516 -0.36456160233473345 0.6366534794738197 2.0765087879000754
Ni 0.6004533629467659 7.945218318153816 3.5578159108799325 1.2642160523899646 -0.6143224200767872 0.19691256359277054
Ni 7.081625513058427 6.50304849404516 7.706462188998249 1.1237713419769355 -1.4807052525630822 -0.14883216314577594
Ni 2.215994309470243 5.544605798683287 2.6592553200686484 0.2989352225841755 0.07900742904315426 2.643121303495409
Ni 2.1846549113469274 1.2343372451281378 7.505412044356405 0.33633937426424654 1.3744155907652071 -1.6798127669246425
Ni 1.0075767298649174 3.6287714522243983 4.761108050278914 1.139630163386063 0.33755242073574127 -2.6608506024543725
Ni 0.675125945182673 7.706384503117804 12.047785901749439 0.7167888514738301 0.28921182464882444 0.16532013349847013
Ni 2.2335787369970026 6.186729867901108 7.696697530801997 -0.6970756893156188 -0.7563756126275166 -1.2977424662821844
Ni 6.551816947934344 2.1635791889577862 3.1637008161545235 -0.7032566213153502 0.2530533724503965 0.4769242097995658
Ni 4.054809960103767 7.207577174049215 6.261173962253352 1.8027197255642247 -0.9219500282286379 0.17702508064022415
Ni 8.73295314587285 7.240698777665107 1.6259261778117604 -0.556927427097086 -0.28912774957545045 -0.9759743049638934
P 9.270119020850904 5.859718008801595 8.398554730470256 -0.2526512519159713 1.0240058544508235 1.145084501632415
P 8.60478058265285 1.5083856127944013 8.715071684097328 -0.538770296572085 -0.031096207184172248 -0.1934821977549829
P 1.6619386101317664 3.7075175164502623 10.559732054794969 1.0985020258871856 -1.7623703752129003 -0.08115687128598927
P 4.2115526482970775 6.534936263089268 4.136754854700923 -0.1781972465714544 -1.8234014222832917 -0.43011547697614316
P 6.894685866160119 4.133172164685075 10.536604511210527 -0.11025635975510689 -0.4879043629601533 1.0974998098749165
P 6.483325419927308 8.258228439742416 10.93089325672752 1.3712819302322319 -0.4255576824021316 0.9128704345248729
P 2.5021799535167233 8.51861323196559 6.549024825995972 -2.595699619678336 0.025178299037840506 -0.8485152081772549
P 6.648915158976077 4.10625629198949 1.9585889992500447 0.2918711166485425 -0.58667534778348 -0.9068609951059996
Ni 2.4431386843780185 2.187378486920199 0.8277457980031555 0.5685156461553177 -1.376238502906559 -0.063910939721348
Ni 0.9679843493836684 3.130366261831057 8.587084653038863 0.16134546512143824 0.6240270489590608 -0.07204950966808236
Ni 8.589782637969163 0.2926938929247575 10.951278945707998 -0.04600449175457238 -0.9176346886827359 0.03114222993075927
Ni 2.827437025669699 1.7002423189491522 9.716351287888472 -0.22428401362718794 -1.4774929162733714 1.627210053127262
Ni 5.2275560113115125 3.3837867433601594 -0.008826029970162103 0.6731122365214859 -0.46092886281257395 0.36116311817614577
Ni 4.045176910928505 6.932432064541365 10.922693283558598 -1.2260752796541852 1.8317171412378388 0.5125887530807108
Ni 7.2072115934353524 6.230965122178404 11.730747081796078 -0.6979210680350496 -0.4598225171222726 0.9530467496334426
Ni 7.680739023055389 4.098670494251855 8.486518909874649 0.51028761575136 -0.06961930296003493 1.0010734140243664
Ni 3.026203205426441 8.516191260398754 13.345316497838217 0.7200155859412438 0.9824645406739274 -0.8956995791725413
Ni 9.188777334266621 4.956989798992285 10.516993853131439 -1.9055057450842152 1.029591576068717 0.009861980395744305
Ni 8.94477969305981 2.562747521718302 6.4862089370191445 -0.5027481128412052 -0.7889604885420735 1.3093435408562226
Ni 2.9572364226213845 3.6080521709337723 12.129945574957238 1.837213645576036 -1.5708658700095786 0.32815041069555095
Ni 0.8800640396529389 3.8890008726866796 13.579660982936003 -0.22735519635334392 -0.15144286129574563 -0.3620452636707829
Ni 3.336041915189789 8.313860669656858 8.536307333676508 0.7036469147752333 0.5857613206096428 0.9102749058835549
Ni 5.733071744644469 8.078582126090653 3.9390753633188855 -1.029241648928466 0.9071263329522443 -0.7329286944584862
Ni 2.906649205178237 8.68552820073961 4.2870943984424414 2.5743939162220246 -0.6447208298629864 1.1468022556544701
Ni 5.335575943192372 2.9029294224321918 5.312946503194318 0.4395869068016881 0.00744231521065815 0.9711984808418047
Ni 5.826112010872335 6.042462618155836 9.722598146627838 1.5896248957846364 -0.9140364298085163 -0.945843547016784
Ni 8.194041623463605 0.4730887328834016 2.5836907211349183 0.16820645390732966 -1.5427796532963236 1.2728608725491564
Ni 4.345693315038373 0.5773102821862353 1.9903451592731631 -0.21502135737833938 -1.7346302289851547 0.5559457799101071
Ni 5.971823304042362 5.829685561372836 0.6010136152375094 0.39628490157994334 -1.665575540279338 -0.03880051780696544
Ni 7.761102781497591 8.316629942806863 13.01847280582108 1.3881306263584545 0.29258871154085736 0.042592123638913744
Ni 8.889814647765665 4.939350534373445 6.5236626709093 0.44556137921756817 -1.3995216418042156 -0.5157311553644344
Ni 6.9505922815349575 5.96883468252404 2.9884542651905908 0.20240135462148368 1.0872459933573921 0.7903401424984194
P 8.550327350218113 1.878161264200416 4.302825332256921 1.4835488926594644 -0.7523605779308526 -1.059911567208497
P 1.710003321339266 3.5203219631222513 2.3973012730604726 0.023098276580360216 -0.7530596608804063 -0.014540616818336249
P 4.7891425996529176 1.0514372640130047 8.683703953476437 -1.2371251097104436 1.0975720578737485 0.4829015104289232
P 8.834383487188848 1.7185396286729426 13.013068610396667 0.24438104148737913 0.0015071806731457914 -1.3380596778439924
P 6.45347576280548 7.672038204445474 1.5666280882918178 1.4955320331632695 1.923266925722378 1.1838665074966193
P 2.034775999178875 3.6531556791689903 6.59393000674817 0.14419286460155165 -0.7610964151419538 1.3253733406255757
P 6.8379934524654775 4.077868957323109 6.501966375428128 -0.5776286642001793 0.45454481366310107 -0.012068244018443731
P 2.3128731721436595 8.776969051781828 10.793421236642407 0.5998116280551219 -1.081411388953486 -0.23870790236200182
