# total energy = -340898.11967641057 ev
CRYSTAL
PRIMVEC
9.02230284165167 0.00000000000000 0.00000000000000

0.00000000000000 9.02230284165167 0.00000000000000

0.00000000000000 0.00000000000000 13.20505219710840

PRIMCOORD
 96 1
Ni 6.41068884117393 1.9916101417056606 11.247336847109027 0.13307078654646115 -0.5442904550593659 0.992387456214594
Ni 4.68897185929206 0.4525361424036172 6.082286049022223 -0.5785493762422358 -1.2010890420224927 -0.7123472707627087
Ni 2.7063298863657286 1.659165357991439 4.643279310030457 -0.4056385748807014 -0.783190933048148 0.9174030322879039
Ni 3.4378491584574973 4.372911577090174 4.792759917192474 -0.14859047944861506 -0.20842082134268622 -0.029169165364788474
Ni 4.843830661030897 4.6061651660760825 2.6079182185816143 1.3938197063234319 0.26719701094063014 -0.041510203428644636
Ni 7.1961524604805955 6.206288575886506 2.7228425045749116 0.10971899919439815 -0.691943510295376 -0.9712339620654306
Ni 5.264405296492086 4.519641284191007 11.51022328673762 -0.6040513771680822 -0.010651309066259074 0.2995993385307356
Ni 5.565398333360492 7.755643488995437 12.378692992147611 0.2954266952102848 0.2865463620015194 -0.07789671247747876
Ni 1.8596770108604612 6.370413282390303 0.4248142154505324 -0.2080536678112546 0.8463441686678649 0.0040080927181285805
Ni 2.740957483724949 1.561634266940587 0.40893135396247315 0.53103024761535 -0.48799666556364335 -0.1349471776335676
Ni 0.5268176618976754 -0.011962671010575809 4.83568983739952 0.18701124531865856 -0.32665351443505036 -0.2725071102996339
Ni 8.540683060080143 2.3742550170578975 1.3398768959210978 -0.27216386802760223 0.020008324801126832 0.23586451937593572
Ni 6.853512474834139 0.6792431486266677 4.860356812693972 -0.21297090260721388 -0.10214298661935312 -0.37654911371391275
Ni 0.7584715966335086 7.572066698097039 2.4254114727709717 0.40125304421849606 -1.1965258481318426 0.63107547116541
Ni 7.6675226595510635 3.909986253248531 3.769791399917183 -0.043040781140558135 -0.16133286671594796 -0.10305495691066123
Ni 7.579194317147008 3.7610190151041634 12.496362764820537 0.7124981945182762 0.30082678317993355 0.829734585135642
Ni 7.955334112328323 8.96492075039486 6.870245237226637 -0.2520922940887078 -0.16832703864559395 0.5698377074008509
Ni 6.837723445293067 0.622819472658692 0.4021664314768184 -0.6049371222071452 0.31234789644565564 -0.5784629871760166
Ni 1.8342882513584169 6.383504643455501 9.23596966718106 0.8166217019027678 0.6358554090525566 -0.8186037653298031
Ni 0.04816375794234621 4.835142183632009 1.3778680076876961 -0.6412218155707925 -0.5331940880358882 -0.022879989921967044
Ni 6.253231616287763 2.1262589856319245 7.03779120087442 0.8881166246189609 -0.3993828237789767 0.5025683927302312
Ni 3.3526425327512763 4.307590106303109 0.5658418273113895 -0.5061044309079478 -0.36936210904717026 -0.14444483271135766
Ni 5.909635266566246 5.641321009696563 4.8055300842852935 -0.2793210478976738 -0.01973321676286924 -0.3040278066157345
Ni 5.389192763682127 2.8749296549565955 9.289014490827244 -0.07734906750412485 0.03199043686366749 -0.5470595331640707
P 0.11449482438977987 5.5157666467859565 12.48183775987301 1.5088102383294144 -0.7928755073257635 -0.3932581989384776
P 4.052547656550521 6.072036713274418 12.71556682420567 -0.8177020794511402 -0.09044292457360553 -1.340116560373021
P 2.3429927385665743 8.43775663207754 1.18809830828816 0.41549618440107156 0.4322631194467652 0.5341744496712865
P 6.394421629595328 7.655279394929787 5.832869907167813 -1.1192467146337046 0.5645088389887697 -0.08617026534018063
P 4.7695771106748825 0.8784637099943601 12.570562181360982 0.30211104920899584 0.7348562504985021 -0.2027091156698896
P 4.0072196083137515 6.098778818165696 8.179670959659694 -0.3564546569568829 -0.03917204221377125 0.04902913751350911
P 4.656906595869792 1.1273186646273672 3.882272446367782 0.8157267008923241 -0.4976493581620591 -0.8188343932833705
P 0.24332608760285332 5.608425694435563 3.4484070569540473 -0.49208214848692666 0.2981669769595833 1.1446888088558933
Ni 1.387467737648668 1.015523313173981 2.491251725957243 0.16834323659551007 0.6617132506559249 0.7472718505540356
Ni 1.8557883984420602 6.33913295929379 4.908159678532522 0.4201408822619344 1.3203206086930164 -0.6980036004465269
Ni 5.938777303947768 5.529480546730201 9.184086916109095 0.18651939328390457 0.4581968085933915 -0.3614523672817904
Ni 8.772186322362641 2.4444034197332325 10.157577125953964 -0.15999100797607282 -0.7782878393195757 0.6578972193439444
Ni 2.351112810901983 5.115122277756897 7.032997651505751 -0.15547460816295805 0.24190404070179627 0.16621693428112663
Ni 0.4971803001036936 9.005304576809626 9.10269131101896 0.004377560242405365 0.2627222629987282 0.08188757880442671
Ni 1.5003818546238217 1.0037401859850437 11.49910420101967 -0.4257320031964668 -0.07834716975133603 -0.8396063357233992
Ni 4.0105398156686745 6.851897482669652 1.607200503965862 0.4433345467695784 0.9701219599481743 -0.03755970342132886
Ni 5.630602514213823 7.930892694598744 7.944330512083585 -0.043960721851666225 -0.25148448530137985 0.23577504498592297
Ni 5.293114263349053 2.946738161309392 4.956687937499702 0.3114454392360443 -0.3335684963873287 -1.0352770564892688
Ni 0.7398486618473787 7.444563517825934 6.86603272414508 0.25482434830789014 0.16972957542007544 0.22529548561083781
Ni 5.039055244579308 4.498294516251477 6.824568928109704 -0.058684915435718285 0.3146539188710129 1.164587861772665
Ni 8.023632942971703 7.198489236852675 8.971261624658554 -0.16303956499440952 0.23508316112522093 0.5811238218376313
Ni 4.582093662752893 0.2487548070742037 10.319695272360656 0.24146309650963577 -0.56993206688687 0.17555003875659445
Ni 8.116219812200551 7.008281053547027 4.75536337516688 0.8056114668351932 0.605048450974029 0.22700655476467355
Ni 7.2363287739356785 5.971059102632315 6.9935936471527915 -0.3287065403093371 -0.2088414538198726 -0.3317748948220157
Ni 2.2070446830666453 5.300142637070479 2.632994806413875 0.4433548584845526 -0.36520540656631945 -0.6129486796577122
Ni 2.2085153183896136 5.312376879389161 11.515743131465179 0.4049505476747413 -1.161406121610574 -0.30657397007635584
Ni 1.1170963957873472 3.398322450789247 3.7345078811593138 -0.7880066092692365 -0.31939631865200474 0.43059010261971653
Ni 3.594656777556832 2.718943065393397 2.6219821838665425 -0.4247536984435975 -0.7136513342861129 -0.18459183724388856
Ni 1.214013970261746 3.2745545037924306 8.310097365971545 0.14933455670349122 0.44149620800925904 -0.5874968152435108
Ni 3.6422043122319465 2.505673876655188 6.901950510775371 -0.5947545252471886 0.7341275998625937 0.47355914998207477
Ni 4.109135538425724 6.8640144350546 6.143584475082221 -0.024231875964171173 0.5604513810899444 -0.9406828287514509
Ni 0.8454123088984686 7.305250143458108 11.275621765744035 -0.12760822076999315 0.128887601703049 0.2661852818466642
P 0.20322465925930833 5.672330663715228 7.885000752449793 0.5850756073965278 -1.1990722687027802 0.7709108301292142
P 8.509411759286225 1.7588798462702562 7.974200649284516 -0.19669916203038385 -0.48705024248997403 0.7623058620690225
P 1.9215700066614645 3.2589820095136357 10.433786799824443 -0.14935409708751698 -0.17504507409571787 0.08246530568476766
P 3.8668957360552962 6.217891257023546 3.7346657714547247 0.6057246511054472 0.9042911774962943 0.8663339815262306
P 7.040544807626382 4.063978913938257 10.378510760746538 0.12359190052174843 -0.453367248415232 -0.3305667334465275
P 6.177588631332135 7.61905485001127 10.16755940154496 0.7731502609826942 0.3983893495174558 0.09230286060047975
P 2.3874456234516392 8.485502657409743 5.783350097145453 0.7735148434109647 0.1125235585227288 0.18015771273193487
P 6.7844016369572175 3.900215099538256 1.6272850517723654 0.21473107983143017 0.2497867858839827 -0.15724712668234853
Ni 5.221080199431384 2.891602870151967 0.3493101739548655 0.5698711317419476 -0.44828160636220865 0.15149016959391332
Ni 1.4048898039594169 1.1429001812087567 7.045713684783 0.3382484183615013 0.03774096619419952 -0.9683761809016611
Ni 6.906527524881763 0.7135937612962244 9.154574062090923 -0.18017622467469616 -0.23303116369219867 0.027928093868835775
Ni 2.7088019972767308 1.4528252976461122 9.14173893441942 -0.07958901257823713 0.9966927684581675 0.6777733894425811
Ni 6.425981644072283 1.9720949011928954 2.7546659702876375 -0.2654759144844654 0.10377126625139547 -0.6012920692553902
Ni 4.10229663305879 6.645124351799771 10.421690598735463 -0.04853702836843899 0.9562835114031853 0.38899402434548497
Ni 8.184031438503808 7.185966280850956 0.22845011508438479 -0.4304322368856135 0.24563702538166726 1.0687739026951333
Ni 7.774653480562888 3.8722820507044506 8.251374807302389 -0.42686277436680037 -0.12187903159569977 -0.6230999091591011
Ni 3.1194069883705575 8.313176677847183 12.265869098198408 0.06996717321775692 -0.5597612970014554 0.46485930821523164
Ni 0.17415209360776718 4.863445146872206 10.04695828275895 -0.2857467489183595 0.20962795427690992 0.7053564412671723
Ni 8.465464123346473 2.293063316006407 5.756649494846111 1.1455195322873046 0.28139207149408957 -0.018146846112355845
Ni 3.809234200171301 2.4900743154686085 11.356172883311286 -0.43198878273945607 0.345377830317431 0.20911990429223987
Ni 1.2152049142042727 3.078662269851996 12.588362282150456 -1.080815664351016 1.376000932974456 0.028268765037706152
Ni 3.0802501951086985 8.362122669424508 8.038046973597314 0.231846142245162 -0.8452560778100088 -0.5867897618741572
Ni 5.544701171207795 8.007383775998292 3.6711631968707916 -0.3184498955783354 -0.3560101132202966 -0.21954469916998964
Ni 3.0626837719564315 8.42854486112815 3.4667087977677986 -0.12875107612518472 -0.49158232603237273 0.5070570246292042
Ni 3.590714031322861 4.376637788061867 9.506805657626016 -0.5553652248162888 -0.16174835698681173 -0.2988079529776918
Ni 7.461633714335482 6.2038435318832885 11.371952890549764 -1.1970740073258286 -0.6843782963536085 -0.9164350119476797
Ni 0.33824161313144413 9.17450883967435 0.4718267275817695 0.8467655724759998 -0.021102843416886237 -0.41921682778576835
Ni 4.592649756788925 0.4979093021533614 1.598339700587412 0.14897537359185956 -0.8252071295789335 0.34715960480820207
Ni 5.979413754835191 5.691602302057931 0.4926050904578206 0.5523336370788164 -0.6376150720561407 0.14271422317349616
Ni 8.057854536714155 8.731757384434902 11.307776349961992 -1.1463703103233742 -0.0646735289189854 -0.6100747005440267
Ni 0.12409726104153024 4.834853469948972 5.734901234441109 -0.24535883201961617 -0.5204714982628972 0.15155778960705513
Ni 7.889065299768794 8.845672976998088 2.4681690669984544 -0.46985881831235204 0.19170633680148275 0.7963323555261125
P 8.590116255997591 1.4978826768050348 3.6708853099508687 -0.8954116156184772 1.3120442276168371 -0.5926415926692439
P 1.6301947443592202 3.1258398901207203 1.659796016942822 0.9926520227298904 0.22611335352644288 -1.3790389484698313
P 4.69075827520585 1.0353362896723777 8.234353331226854 0.46712290743842777 0.11415029549287438 -0.09512773164378456
P 8.426036661006767 1.5197527382950686 12.29716475920933 0.10521519778677363 1.5775072865854962 0.14026858984648102
P 6.3356232835843755 7.725093972409111 1.4154098087850684 -0.8743051726571651 0.03829683869766953 0.09116283345876558
P 1.8116061826348424 3.3134947617920125 5.863267849070544 -0.20388076738048755 -0.7707496219610016 0.9806678537848208
P 7.032659315158442 3.897291873497509 5.981558356161998 -0.8461860458234459 1.5491220505745835 -0.30589031374576997
P 2.332436644530543 8.496960981705264 10.13947297356704 0.4824867914890078 -0.6010439578003262 0.2567691307390868
