# total energy = -340868.9421065203 ev
CRYSTAL
PRIMVEC
9.18819168829511 0.00000000000000 0.00000000000000
0.00000000000000 9.18819168829511 0.00000000000000
0.00000000000000 0.00000000000000 13.44784729246873
PRIMCOORD
 96 1
Ni 6.325288997457182 1.4918591237119039 7.859285168360589 -0.5052842489994974 -0.5191630638641188 0.8784022255446743
Ni 6.805059615894062 2.506731651075682 1.4760894302764969 0.23557784137345236 -1.2564852594046103 -1.051115566183422
Ni 1.8153661657017937 6.61273238697724 3.2350676634413835 0.07663841459034543 -0.10392810354423392 0.14854805624645384
Ni 8.450729068865835 5.4380863939324655 6.997250859573544 0.48358850919361884 0.15971744259971202 0.31553966391007593
Ni 4.066307747705462 5.233915585898799 3.60535454589488 -2.3872538586349856 1.703676203805801 2.0920148539554746
Ni 8.745743528356629 5.758662402766208 3.052137198188485 0.18509474502223608 0.0234101513938242 1.4051119914077996
Ni 6.378433498319732 5.66701937863013 5.298007817186268 0.1922336700598625 0.9043497986483715 -0.8248422900403473
Ni 4.69069131549844 3.5839001182472217 2.202461926073331 1.1750031435687183 -1.1628230565627586 -1.4636745223330405
Ni 0.6986406955714972 6.51920578354019 5.365126638823688 -0.6256686983275419 -0.6373523053130572 0.13400075455989824
Ni 6.393244863359571 0.8710773270700533 5.49597383935678 0.6424549166469451 -0.07433213505467198 -0.7593784040095825
Ni 2.053900810738561 5.5554931076291565 7.1062329202894485 -0.009765564027196085 0.058700342054685994 -0.13913139091824425
Ni 3.157347506206589 6.041925165057279 12.093635754287899 -1.7968519539295378 -0.9095670811832529 0.2165694185917496
Ni 0.6784220797091111 8.532963384688763 0.8386283092197453 0.2384052835199184 0.512633233165401 -0.8271989631979818
Ni 6.619439766927043 2.884963562902596 9.996322575348204 -0.5491518969167253 1.2189918904448427 -1.1436657669080172
Ni 3.9437556466500174 3.9552868272486514 11.78996969348103 0.6444655193190707 1.0853778298004015 0.06066363642864391
Ni 3.8958943560219015 8.046843725778853 11.558047790019433 2.050088388925017 1.61764477803633 -1.749183444208981
Ni 8.288888260049626 9.027995589559374 9.004893719137744 -0.16954188488930158 0.05816940925188047 -0.5171244361675352
Ni 1.13910606750253 1.4133827782992068 8.713398337072668 1.0525543555124777 -0.2064025053610768 -0.8797528260352978
Ni 5.34493650635561 0.7449445877044192 2.8217488039236294 0.6168544424700215 -0.5911896907140657 -0.901191712635364
Ni 2.6442972573886316 2.7475817204238884 2.624468220854837 0.9756392902219777 -0.7705341635160858 -0.6021901555896274
Ni 5.7898195608618 6.670535301037804 13.07019168457405 0.08046421609433883 0.6631173300923031 0.9024065588790717
Ni 3.0776491312961882 7.94581036971305 0.4342192392051749 -0.01998158532824946 -0.8533756215933498 0.8960106826550569
Ni 8.462416448723575 2.621850505036071 7.7725596644288055 0.4060725770943265 0.926497024169372 0.6207501779800019
Ni 6.345741912208225 0.7036969574706434 10.396652088242618 1.2742775503910249 -3.1539125983560647 -1.096627691682608
P 4.315831470029852 1.9829771589131762 0.6937810609749891 -0.2145063654151338 -0.33163502681004176 0.10387565303974369
P 1.6061418522264952 3.2345375047795977 7.608186589976753 -0.39043358500548886 0.1651812939277607 1.9342290811608367
P 1.3872423728783987 1.4404420028912208 4.018310471840008 0.2539092926927885 0.10084020864752956 1.7278941958129017
P 3.025156992045194 6.8209368111724995 5.128282621061941 0.9134684731201881 -2.081700102293028 0.4515127117049966
P 2.936720646816625 6.322449846218156 8.916635624828388 -0.26039104376239025 1.0187767448414002 -0.370211087311027
P 6.171010070419998 4.049934390074573 11.804278464434221 -0.17979672984809036 -0.47298270865331443 -1.6001641047530635
P 8.51657165067445 4.6944492859086715 4.917084684006891 0.45217759898250515 0.3403276694880332 0.5542696777592648
P 5.029974482657935 7.747593509908798 1.6425473054280157 1.7999678738507001 0.17512734939687902 -0.9117951991828231
Ni 3.514354695178646 8.147031768207144 2.930406521472098 -0.888773027256037 0.8165887917823033 0.442006057766142
Ni 2.730601942140003 0.14846555814096496 7.102466680506676 -2.616951072857945 -1.418259584533351 -0.06458559719086941
Ni 6.570999620221068 7.6560883086484015 8.041489766468235 0.32475424052980845 0.059233074629704445 -0.14739980157462357
Ni 1.2072273208557363 6.310018222831739 0.9765274468918422 1.2524560836405592 -1.0761876786607014 0.5948799950814594
Ni 8.47975456648423 2.516158735772255 5.215666918339479 1.6792471242291593 -1.4259800931060602 -2.4754172431457944
Ni 2.228807228169318 0.9245893556010856 1.344576085844281 1.2580672591797495 -0.040311555134853155 1.5103950663180312
Ni 8.517609916337912 4.121354204252408 9.864668651582793 1.0584640361286932 -0.1686473980994902 0.5355350774642389
Ni 4.609265560546171 8.43303261162841 5.028566851687648 0.25132790511885744 -1.089991160202697 0.24957261299064762
Ni 4.816744117596179 1.931532473517357 11.451043946979134 -1.7443824232759122 -0.19281602492589373 0.37873378007005737
Ni 6.952438210955489 7.669236610988358 3.4874305370047995 -0.8852490732631787 -0.4051582928101731 0.03597487543271223
Ni 2.154070476783429 3.5656248049319363 5.7166797171954675 0.8816862956125847 -0.2902518358775647 -1.743812666815371
Ni 5.73109782763003 5.719777975440774 2.234426726220413 3.287720520178867 1.8583062045802772 0.9972375852180438
Ni 3.6866792307383154 1.7844938415492748 8.360768402632235 -0.31500847399695425 2.2037123170324824 1.709671759267604
Ni 2.243425641183204 2.997289206582519 10.481185289631904 -0.5099204622199283 -1.2480669534339282 -0.6453610345501466
Ni 8.489089769263682 8.836008323735898 4.926242554686302 0.8340784639266347 0.4374626613698337 0.2536897204828147
Ni 7.072197101730468 3.7697312956236173 3.3825905131126914 -0.35449290524482174 0.4924631859754293 1.7898752655013885
Ni 2.870041939562212 0.7259296249563129 12.766108479863453 0.8866562380233504 1.0826298347416192 -2.7593788751392734
Ni 8.031416751894305 8.658823234760549 12.834638607747847 -1.4246953128563657 -0.2463296805733177 -1.5003657071064869
Ni 6.490097592196387 5.274922485509719 8.292776702782168 -0.9137474378131877 -1.3477457947835048 0.1829275621675882
Ni 4.439642353349848 4.381352465128545 5.964254624057729 -0.2875894585540531 1.9423126294999196 1.2534187046641445
Ni 4.725909654330762 6.008764981168458 9.995906350263647 0.37929556611079834 0.4622822915166748 0.6227998614201791
Ni 0.9409075840817025 1.4383195306057355 6.291951481468318 0.7304244399793937 -1.007805333431561 -0.488665409495894
Ni 3.5473862443834987 1.30010156268123 4.163494007901425 -1.2156697680501451 -1.783478103725793 -1.4449280949634729
Ni 4.473914308435829 6.589642461204835 7.349854148258012 -0.11710089348076608 0.2625212027315156 -0.6347022692847198
P 8.185227081154174 0.5343870676117011 7.001554608571474 0.5029324609378693 0.23955868039807132 -0.853412388368556
P 6.725967661636656 7.6934291197662095 5.8148628961921895 -0.10303155987189352 0.11713586048375955 -0.37518694325906354
P 4.604028291270298 3.222822560346722 4.245619903062152 0.6430514125803635 -0.37092405421765146 -0.2649287837317438
P 4.671331795561131 9.429197980666435 6.928761159732685 3.1116598603344405 -1.0438622270551186 -0.3202689510649452
P 7.399737759881952 1.491739677219647 3.5384645102310897 -0.6157812640105008 -0.1360802627967463 -0.567972372057338
P 2.5051788466763445 4.879811865507753 1.9645419710621006 -0.6694070197557568 0.5601310216360483 1.9596642334044894
P 8.363634199627226 1.409395103096173 0.32710973196018805 1.3717303306235602 1.103343927360519 -1.8921367799764768
P 1.3324072447408297 4.257247559673763 11.871866802668128 -0.24983100885835682 1.3159453624434563 0.9808030938111043
Ni 9.069223005771383 6.299571248855129 12.734573687088496 0.1508525360099144 0.3821533472745677 -2.567136206218347
Ni 1.1068647027849146 5.884614134755114 10.201658446090958 0.8067314393722493 -0.536866651791469 0.4736769065068617
Ni 9.421479899628306 1.5244680160980018 2.26031445636914 -1.2506858791140139 0.5304913443927445 0.16779456318089167
Ni 2.1530230229282545 8.17093025485021 9.69307365844506 0.7184590400874014 -0.02084161933569959 -0.7548959427581967
Ni 6.900763820766869 3.548663403031475 6.091807857862048 -3.351527330222183 0.749933970767231 2.1585274929657277
Ni 7.964747232831604 6.880053636647888 1.1518574399605255 -1.3980818240338955 -0.07122855642868377 -0.28413492434654936
Ni 3.418448350088173 4.232172984491553 8.925564709534168 -0.13789957539367217 -0.1291917632070291 -0.7744741220004404
Ni 1.8431788220141965 8.501925673085427 4.984619730728868 -0.39234391465432433 2.1579533656298127 -0.3969443895408131
Ni 7.575471114566795 9.239921231398018 1.6656638769563854 -1.4718657998945812 -0.4183961316566859 1.7070937141277827
Ni 4.295332614320248 2.0470647961047885 5.991984586644723 0.6078028737907146 1.3534664993173657 2.5429264417413626
Ni 4.567973826992178 8.87015164413791 8.877435123708059 -0.10215044281852084 -1.5978789082633125 2.12210267447979
Ni 8.729847956694767 7.6675919246719 10.749765321567105 0.2563351285254618 -0.20097207837412484 0.40918721146390824
Ni 5.864179596387495 4.442922537791054 0.3253116028421381 1.5002662054141451 -1.1989416566621869 -0.3614004309979324
Ni 5.314780861156631 0.2572298587132936 13.174654073786792 0.32068161312233157 -0.6865979297127466 1.4267879337193363
Ni 6.988198653098824 5.896365831954838 11.032143260996303 0.7062447574093966 0.23767817554590676 -0.3515345939474462
Ni 0.6719168399769732 3.769961000416419 1.366664498720071 -2.2785111073109277 0.4633577839690407 -0.18808339533691482
Ni 8.470777703181547 4.024574980949289 12.766498978011215 -1.1127251114651031 -0.40907459714544386 -0.09112555246292693
Ni 4.045285165068271 5.677843068466935 0.7933277676217801 -2.330732012288857 0.4946313972713417 -0.3915769545813127
Ni 1.100717802529547 3.7327212594074433 3.6687071277495273 -3.051578321661512 1.6406278691950649 1.6387414508056295
Ni 2.6114310956345963 3.5087774628094266 0.3647509969469807 2.3431987772973004 -0.5299151601743003 -2.304721447157708
Ni 0.8370111874784227 7.944266753505423 7.674874485422877 -0.5633711258399008 -0.5936144981054745 -0.6192864489502818
Ni 1.0086429333830025 2.1420247574489197 12.663958758504636 -1.218814484326714 0.36021695221279254 0.7281320444007912
Ni 6.914564484718382 1.9384328054931135 12.274172695599809 1.769463020393624 0.9689513366788409 1.043405342023358
Ni 0.9792223435209891 0.6127788816606471 10.815780641379908 0.494330063980839 -1.587610436457769 3.182536432740345
P 6.057076493190465 8.068895385887794 11.59302631704807 1.9390750963992283 0.3598803948089802 -1.9928959988744257
P 8.340948554290152 6.166618114781634 9.167061627578901 -0.23935864857212324 0.7686724277169987 -0.5682742195684729
P 3.1443645913174496 0.9796450003397439 10.536616731411588 0.23271800332715403 -0.700237117762736 -1.5415272689464612
P 8.60549497006376 1.618049748685324 10.087297617946813 -2.92151212626933 2.7249124659312876 -0.29398173523364207
P 1.8411574198375436 7.836930297925149 11.874569968669816 -2.761630647287928 -0.4599888674968078 1.0705492494280016
P 7.778475022253029 4.703076997926296 1.529060274315689 -0.5704992522442497 -0.6628147112502198 -1.768302424426619
P 9.156235181284583 7.989592103221012 2.7385469715134203 0.04177734104710224 -0.9619900748696594 1.5491878708155127
P 5.157423889895907 3.4229781286022183 7.825477216956068 1.0831214296660572 0.3043471376283662 0.10643287224395864
