# total energy = -340897.4667476902 ev
CRYSTAL
PRIMVEC
9.03656790332814 0.00000000000000 0.00000000000000

0.00000000000000 9.03656790332814 0.00000000000000

0.00000000000000 0.00000000000000 13.22593055680936

PRIMCOORD
 96 1
Ni 6.382157214197074 1.8394837057254583 11.42279981820665 0.6760551211998937 0.9507206726034272 -0.7529763571379806
Ni 4.67922508185154 0.4022329871494394 5.914147051305958 -0.22335455983438307 -1.03722749534742 0.19085735853762614
Ni 2.817068627955198 1.7825804393914377 4.7873241184076925 0.2588311554744381 -1.548683163264952 0.10539414656679913
Ni 3.4435828979574175 4.301921273808924 4.81299519971652 -0.33360706293474807 -0.3845156768591571 0.004444408924598797
Ni 5.034551957430391 4.660148887595368 2.674692986741023 0.43840137113401917 -0.4042350096649554 -0.1679359738547624
Ni 7.302468370820172 5.981394476600207 2.6078223863167334 0.045892134546424185 0.5410400664428682 -0.15067847232589532
Ni 4.949725697135417 4.6238038126080045 11.560097812072392 0.2716149375026677 -0.616349477809145 -0.5279814334866972
Ni 5.79897328595627 8.024544343455752 12.281109277041757 -0.7584029274701907 -0.2280789618932459 0.29282730991422473
Ni 1.7566454903079634 6.532471480069727 0.28622514660797177 0.9043225449548618 -0.020920809313067196 1.027250072419734
Ni 2.863597914655829 1.7006278076011834 0.3802922009561725 0.34436995787820696 -1.3804587116354936 0.0749366014078903
Ni 0.6169029766763714 9.060514529109996 4.656109541867036 0.3439704084469431 0.3786803011243027 0.31051624255355553
Ni 8.596920536817171 2.351305859432396 1.2112136306337202 0.13284427235795188 -0.19653821097248733 0.3223078358718449
Ni 7.102172849414175 0.6608197916766424 4.966284303651291 -0.7847824459049839 0.1335829502961893 -0.43260893282195817
Ni 0.7544675492870474 7.293874595008888 2.505718208722943 -0.42647273801723323 0.20894378372569175 -0.05627656310454178
Ni 7.609503829011536 3.8471108252475057 3.8622624381841817 -0.0381014348574118 -0.06105907209484969 -0.20551187522600733
Ni 7.571008050929445 3.9354703834838163 12.580240449531617 0.5147644205757909 -0.36190128189375087 -0.24825569395143698
Ni 7.980951941233214 8.62424711731488 7.132228473334607 0.15972489879887977 0.5161960108159949 -0.0021715537300220663
Ni 6.919760695337863 0.721948557032068 0.433331430973784 0.0120157935139535 -0.18797335212161176 -0.5206702445372646
Ni 1.9616490634465353 6.571681146994186 9.205895732716213 -0.23657337251750227 -0.8854092529901266 0.14729361501406246
Ni 0.12729270619144772 4.715208694133908 1.4674834592218977 -0.2760542042209439 0.3351623232370099 -0.5704925673760304
Ni 6.302572163124545 1.945988691752577 7.015747116649593 0.4145906418676666 0.3722162906665138 -0.5205334618490842
Ni 3.4361458028021215 4.236496524204618 0.4252626797415073 -0.818407847268913 0.9774778860926133 0.09552908084726128
Ni 6.07242885885349 5.764516853602511 4.831815659108907 -0.28160213062236666 -0.7280343424806622 0.5882506626903997
Ni 5.322881720638202 2.7833531941466814 9.181837678728433 -0.35947698872297446 0.4646608190511804 0.5220462989491848
P 0.1871220131224121 5.530388423008874 12.39985158294652 -0.6106688824845999 -0.11881504795839537 0.14937620857470404
P 4.0065429878536865 6.2146915429723535 12.72286911463929 -0.15486037161772684 -0.15402784841410247 -0.19271549479228745
P 2.3903347950043563 8.406646568907192 1.5013678768450003 0.1036905336121311 0.6454746773098755 -0.9332811369707411
P 6.499153655236706 7.736422421303312 5.812611273815775 -0.8650620567923424 -0.29090592452179576 1.0427173148173978
P 4.8485251763041175 1.0891594226944292 12.637839531572755 -0.9759642776615645 -0.5745669945557201 0.093798985530032
P 3.908695033611226 6.07288972380236 8.18317405885684 0.19300988610425468 0.28397037374422707 0.05196070933800729
P 4.839235584785715 1.0075321073386714 3.79085548081219 0.11987614223305806 0.5762220136606399 -0.71905219358671
P 0.24758930172769472 5.431654885139173 3.6559648285617237 -0.6348956162424485 0.4711109455518983 -0.7946567675959024
Ni 1.359714257384055 1.1025967987526615 2.6131792636047764 0.43333398391344075 0.48027769965283096 -0.5522313071729973
Ni 1.6623398705744652 6.541562267100381 4.816341440708022 1.209495263808317 0.5889664578105018 0.05986453756611625
Ni 6.037493488415611 5.6831064158697515 9.182538012719363 -0.949840583991319 -0.2781524815108694 -0.030059281279225657
Ni 8.572277816904059 2.4323096516220355 10.139223161346225 0.29755325463498433 -0.6475048203660267 0.8874594506509361
Ni 2.1852318196219103 5.1735795503395385 6.832541551935814 0.2507969723160519 -0.31168146650625034 1.081909411635827
Ni 0.6081745560074766 8.95570841779636 9.183821205322097 0.07359345711643456 0.32361035673335237 0.37679825361024144
Ni 1.575019517615018 1.0274667755192097 11.460519355129762 -0.8706205247167266 -0.027399732169191525 0.053593102735107694
Ni 4.068813975356901 6.799718931008639 1.7857911318685662 0.2588707504631219 0.7124632275152827 -0.8900999735975766
Ni 5.498968277377082 7.765990070571998 7.9227293360259585 -0.40623481370380365 0.7639526536438263 0.0851791050715049
Ni 5.486262863296467 2.8714506919218703 4.7924288754590005 -0.6220853518516577 -0.08376962631848799 -0.05696201920734061
Ni 1.0150866778730914 7.372917452023924 7.108871656994517 -0.9591793448937416 -0.39984613656864043 -0.5876803920092265
Ni 4.786904821669896 4.4950959799264965 6.851150555645779 0.5110815724075649 1.3148472442832708 0.5754949056866282
Ni 8.317762889748638 7.059429884548379 9.374420489666575 -0.5221733114453523 -0.20825292830625422 -0.3139496937151367
Ni 4.614703989009725 0.38047112499514557 10.238972409416963 -0.3627078369554463 -0.5838440489822718 1.1366386848579069
Ni 8.261781353312356 7.242366159546936 4.636191139508223 -0.2453266932301001 -0.6216222961723101 0.1230709950212719
Ni 7.353606307009504 6.236126281378626 7.267304375221383 0.5996087680156964 -1.1934387245660867 -1.1346491652317041
Ni 2.2612022436444783 5.240061578355957 2.5819127396226085 0.39255217401038844 -0.40576661581813345 0.019048789101334933
Ni 2.35656514179009 5.257574446413021 11.402656405313977 -0.4077597349887623 -0.6867205713335398 -0.0653471579472423
Ni 1.0982050268869583 3.3818450679440732 3.854802751609824 -0.028108585310758043 -0.29353410617326225 -0.39581490392206026
Ni 3.6017770507989866 2.776322744534506 2.715600624722201 0.03952376912623516 -0.5792152919610088 -0.4298840776916274
Ni 1.1999206320728775 3.1994871332735104 8.170344843799764 -1.221287628457555 0.2333733775229658 0.23743597762811366
Ni 3.613334820791239 2.6303189214189318 7.141433121117333 -0.5612229691486463 -0.9848973184851361 -0.43321648449897004
Ni 3.9324792795999737 6.8060083820755715 6.0370949757833525 0.2585503910092257 0.72571006522286 -0.3720885068393979
Ni 0.8895136305006628 7.3790080986031095 11.399997847118732 -0.5363236348038054 0.5334262586513524 -0.2237890762686404
P 0.32697554831247644 5.362940824919402 8.120787403288029 -0.35873805367442085 1.197674617024305 -1.0834716139166243
P 8.524329789086318 1.5289420592956324 8.130667082672337 -0.2781509388489726 0.8415531750371248 -1.1030662482191003
P 1.6790755938157875 3.267577670327162 10.434954777095596 0.5835015780411885 -0.25955286413181106 -0.48530472055377705
P 3.9143338518091664 6.139019325681407 3.873887982433621 0.16843759608152928 0.7336370333794204 0.10439141633389763
P 6.743755467707608 3.9403772397041394 10.368507991692914 0.5399463191580572 0.30686913271927146 0.7167698253104365
P 6.289198043039687 7.906427368030631 10.104676363316218 -0.19090003885010348 -1.948427998369038 -0.2957434551197552
P 2.449560459217977 8.638461638188854 5.788804436407966 0.1303155923988272 -0.5557873999553719 -0.6023539348610013
P 6.871487351085626 4.031339329416423 1.5590726867273497 0.7820761027174145 0.05095257978846709 0.18210738025913797
Ni 5.343945959771854 2.984678884261917 0.3972411871934424 0.17159182543979482 -0.43430586090840684 -0.21137861841942954
Ni 1.1965771020516633 0.9370830261349199 6.972511658848241 0.4726255824242118 1.0307318603207474 -0.29510376465322724
Ni 6.793673467267578 0.7396394454713424 9.05165507821054 -0.33398861464388285 -0.4778184394790609 0.7367820067663053
Ni 2.6444340400490316 1.5004587981419348 9.190487481258991 0.04798424118876252 0.2118146775155836 0.3703350144834009
Ni 6.440488258215829 2.0406286644881964 2.467773661265971 -0.09014159128310281 -0.02764244430761691 1.0134355351341449
Ni 4.067919355162035 6.814520828778232 10.423448515538805 0.7995344074031779 0.5530918554010796 0.04165032855093472
Ni 8.06246178120985 7.356642593731472 0.207935035676091 -0.11149691703042733 -1.2581418211714268 -0.25669251186488046
Ni 7.5098575978117195 3.7415637153886268 8.220338750527784 0.9224951020988306 0.20239621241516115 -0.2122149982777958
Ni 3.3414877569312518 8.307000337707375 12.504191407370712 -0.6329215232352132 0.4970708599507697 0.34201816981657873
Ni -0.06860471775150868 4.819102112117429 10.165436436712545 0.23750025520714582 -0.14156879671514327 0.9803487798825051
Ni 8.591896205217724 2.466314255594549 5.757935521401293 -0.036566743380440254 -0.4036094602658145 0.8829255673363244
Ni 3.509956487162337 2.578367694143359 11.370411221058031 0.9730087945776662 0.29342611984048816 0.1061510793374817
Ni 1.1408034066707557 3.2390221166324653 12.641608683929103 -0.7753097305278583 0.5730829538110259 -0.6485255483210572
Ni 2.948740454817674 8.464426382300829 7.931154128022656 1.395291919993584 -0.23388451283142944 0.221409006072238
Ni 5.8503280997686 7.885480604276104 3.7334687581102375 -1.361390382150133 0.781073629594829 -0.9060752659799106
Ni 3.1089407256719723 8.435464183063011 3.5762126009881334 0.5504999263041873 -0.18890332013504885 0.7612702217156567
Ni 3.3799022059047186 4.12297012513295 9.093210638090424 -0.3654434907190545 0.8722847997930268 0.8039605614953316
Ni 7.094347181851008 6.088649497740192 11.371932075389303 0.5090928241123103 0.13621781681587508 0.052868051643625076
Ni 0.4891512128495786 9.036929087608996 0.4232918043425157 1.2247591319459228 0.6779718786066323 0.03476542850564335
Ni 4.76350914808902 0.3354798621042735 1.5463754055575971 -0.8600669175705962 -0.5559707196107715 0.6107156765621352
Ni 6.048816307649616 5.751404793978775 0.3776517158961756 -0.5912750513390204 0.39406115445574713 0.3291042899683881
Ni 7.879733347266664 8.822355789355651 11.170488006238182 1.1849988213288494 -0.2022514593071807 0.3577967728070741
Ni -0.006959060727938571 4.8396964497345865 5.736245048131237 -0.5317933510336196 0.2623702789759481 1.0389902436747978
Ni 7.968978489130216 8.928083630567027 2.54883528748841 0.5070981622797848 0.011022576362748759 0.23957642100988416
P 8.467381339914171 1.74565702407608 3.6205722078020246 0.13644870187975855 0.04900934001916721 -0.13942295401673407
P 1.7569346604719602 3.130420646916369 1.5430562742689697 0.057561857574868605 0.5341577375007381 0.8504941862804964
P 4.62281882673689 0.9914018341282179 8.174470940577296 0.3352736520038936 -0.4079955051486522 -1.0705909012992143
P 8.536005034457693 1.4949103456202437 12.275501183173743 0.12883412275729425 0.9445667371868894 0.880447023888845
P 6.394582494681317 7.783837291631183 1.5435053916799277 -0.4072761104841244 -0.5036202310335134 -0.6144162653421741
P 1.7666760803716068 3.1426651960481142 6.042755481743593 -0.40767925945981404 0.3582775690982346 -0.58901505166025
P 6.735396642654572 4.0867244523894595 6.185555841636138 1.465865359336772 -0.18801628954440522 -0.8378248183429442
P 2.483935562463112 8.460043647002749 10.270304900342794 0.22062173428425227 0.22744415652272443 0.3184596657703483
