# total energy = -381164.786011588 ev
CRYSTAL
PRIMVEC
9.31245889508374 0.00000000000000 0.00000000000000

0.00000000000000 9.31245889508374 0.00000000000000

0.00000000000000 0.00000000000000 13.62972491073425

PRIMCOORD
 96 1
Ni 4.447611757697491 0.3356973818228524 3.589524542505472 0.768696853197031 -0.7070297152045372 -1.7146949235138085
Ni 8.324854031152048 0.0409394319264103 6.086994720539474 0.9092600914657955 0.28417091979080733 -0.44354640567006837
Ni 8.217686253842297 7.822633121322808 1.6612998349221455 0.18000781741763194 -0.47963826629661915 0.4278053407857278
Ni 4.522279053358734 0.5576719464985936 0.31308021283152515 1.121416468591514 0.8217484816063718 0.8415264355642476
Ni 6.443616266321075 8.127709275708233 0.06395517415973068 -0.5388895957587687 1.5692255061926783 0.283566196327273
Ni 0.5355520628138655 5.597057875278299 13.608653825633352 -0.10584023296528224 1.1958817867899405 -0.3095991300559249
Ni 1.6079450327568263 2.6024411462833283 6.575456472306917 -0.7637117412776138 0.9269726782542101 0.8173228417348505
Ni 8.005194566089958 4.935817416844494 4.4196017437426525 -0.26276468620088944 0.8355205956897997 1.2650987121052342
Ni 0.7625600115386092 8.071247837245508 3.298993517715121 0.12526980244480362 -0.6243615494803441 1.0482989226702333
Ni 6.704160242126796 6.199881278875113 2.564582275769333 0.24131628651912637 -0.9468460201393694 -0.5790664250879705
Ni 8.043785395875465 2.8036740711952524 3.5630417718143463 -0.25118366623150934 -0.7396421019229198 0.31909112870676015
Ni 2.5063645075533403 1.8044844783705132 0.10935806764892896 -0.8407507337404876 1.1906259377076398 1.5468247698999746
Ni 3.1003038253356348 7.3591986029165 5.6864574809590085 0.1842370250076311 -0.4335391579457114 -0.2571946483122796
Ni 5.299031252299156 8.198828524519021 9.499073151965339 0.3127253343897324 1.6290972428476458 1.247431119622142
Ni 2.7225439290400075 2.399718227943393 10.260797835938368 -1.589812329205094 -1.7860468928942337 -0.44789259845390605
Ni 2.0976127479550675 4.06186177164415 0.9245818969006165 -0.1869865627283102 -0.16661005595448725 1.9135057325705562
Ni 3.5310981752095576 5.136882717495768 7.442061793677701 -1.4842315205487857 0.014667115093871514 0.19285819101773882
Ni 7.3591986029165 8.21138171915002 3.914388740860786 -0.46394913769613644 -1.1300772295903054 0.6818442170778451
Ni 8.59063160887366 3.47725353770478 8.607825201787024 -0.5280277133436003 -0.1368112274254999 -0.1627901679877648
Ni 5.445851479711872 2.4330754558130074 2.7175766634493734 -0.7316968789339141 -1.50350682383863 -1.135592760091896
Ni 6.029593654971211 2.8438480189980218 8.251080731547612 0.3752666474570634 1.4614698013722378 0.21371935073746418
Ni 0.6850635908559284 0.9804529254674905 8.780118729343389 0.5437878043913343 1.505348505033059 -0.7097049480438551
Ni 0.6736576911644978 1.5290498807435997 4.4671018029817775 0.9777794764934321 0.8838375376276326 1.0697882028922607
Ni 4.016668408480766 5.452230514075548 2.145373556044094 0.6667017050094518 -0.5312156241532786 2.4799336429589096
P 0.2695528485698368 2.114412423855901 10.653306804679527 2.8709837785024748 -1.9839894404134155 -0.6289409413209104
Ni 5.4660874529560575 5.935072196881709 9.43953860205734 1.59310334125154 -0.06337203649874247 -2.7220968508593635
P 7.384165305294624 5.117792176699366 7.324886848007065 0.18320498419869094 0.44653428465379874 -0.32656918225136017
Ni 5.720811141933607 4.26193063919044 3.912876397531354 0.4440791382450869 1.257830460578595 0.04791019341771749
P 2.9291594552106246 2.425159865726695 2.246628853182316 0.30927979904329317 -0.12266553205273713 0.3838027099525326
P 4.873312192539397 0.608560809540553 5.569364484926914 -0.17621492603410296 0.39156024241076437 1.736509191175422
P 6.398031779882838 3.9476444629281175 10.128670806217633 -0.4561065017232661 -0.4402988452670481 0.41166446935980716
Ni 7.100153932997717 5.885716164578817 13.520346571384554 0.1419896863026458 0.37338100039857636 0.2630855598754179
Ni 5.254163825198149 5.692091518608679 6.227461988473506 2.87569609637648 0.5345040650965633 -0.7876057742863919
Ni 1.7334583541489739 4.126797547728691 8.675170110995483 0.9714892726093463 -0.7624927812688481 -0.23749794121430062
Ni 2.2212170152675745 0.3439854702661682 6.707051760623031 -0.5329686022886434 -0.3387238153360231 -1.5342410196976932
Ni 8.707922029034966 4.363548190980847 2.0895863396075463 -0.044535106297897496 0.7155464944262967 -0.5032960149248752
Ni 3.5845889392751826 3.7424723678908873 11.760517196051554 -0.14040074454897108 1.9133823196188144 1.207641755539346
Ni 8.615989434526636 0.5207666717785254 3.1362815791467655 -0.5830619194006088 0.5915159637052329 -2.317527340673125
Ni 1.2069784888199155 3.616810047155939 12.563662766077423 1.2123203919619379 -0.0602453179443027 -1.9030595975365674
Ni 4.697353281150124 1.9173049182477848 11.762930054159042 0.6171120670067823 -2.113451683673012 0.4704738261885317
Ni 0.6159232395667165 9.221438951540323 0.7405341836890242 0.3980103689114823 -0.1917582730853407 0.011877982384508576
Ni 4.398237100476748 3.1935494765524 0.39633452686757925 -0.8651209350547359 -1.7386192955398896 0.9175272165705941
Ni 5.031242183449728 6.138800860785553 11.481393933444421 -0.7256100493098858 -0.8645907735828787 1.9649601916961061
Ni 6.249553934781458 4.0377797528639086 1.2569975681982728 0.9004296376583589 1.9461559145054095 0.7730595010411009
Ni 8.375644182129403 0.21009186708734684 11.607550745748288 0.3633256730451033 0.6061113450209046 -0.4062417556823391
Ni 3.2140927609411136 7.627825793069185 3.298038990675301 -1.6183950259387936 -1.2926637662076963 0.9242125990105696
Ni 3.4955804568693254 2.1259784978408427 8.017958222292664 -0.15621200054961484 0.20359460359863646 -0.20628706282913506
Ni 5.408629581388351 0.6955317259336041 7.683389510491531 -0.9662874166934325 -1.065510144342197 -0.49288227579071886
Ni 8.421722228890667 6.902562179525497 5.912356315825776 -0.7549108551565321 -0.41492899904369185 0.441530146570988
Ni 4.675664564313626 7.675496270306638 1.5589680175321847 0.5485525727698295 0.041559568609341326 -0.22338309907947335
Ni 6.947355106955103 1.4265197079785348 12.80862979183917 -2.0200098243720825 0.21158816332707428 -1.4257985732228735
Ni 0.37214634605559205 2.277035894064468 1.7263818166118101 2.2394221117292656 -0.32910711818186544 0.9147691942094826
Ni 2.1625857738753087 3.975889150847867 3.8675982909917512 0.07651294475607467 -0.8180694900928879 -0.7919033732204813
Ni 3.712132376712996 5.34431774005179 0.02433345517121835 0.742822042312798 1.796894377131699 -2.166046169940276
Ni 2.526823979811728 5.676092714175401 11.617977906006695 -1.2227451868396877 -0.5286599476109606 0.8660581021570246
Ni 2.448813511396383 0.19034759167440496 12.327963499437907 0.22227701049948817 -0.3450813821229347 -2.221365254227555
P 8.159576510149835 8.93673845728296 9.443422828674988 0.2425846117085887 -1.3007066911168308 1.295854248120536
Ni 0.1684037134633606 5.789741962897005 8.010843503673907 -0.1259367466048412 -1.9055275994610863 -1.3190057465363347
P 9.093429891156255 6.130410335294062 3.0393742690806604 0.38581434106592266 1.663836188990728 0.009602813197086687
Ni 6.266912358217796 8.101243267443172 6.149296001994111 -1.4044941553181425 0.7947539552953989 -1.4523698959534987
P 2.783996845486571 8.384705204663499 0.5684902300318522 -0.022169079897871497 -1.1976910720845373 -0.9069574114745477
P 8.487570625949866 7.970421844463732 13.146169178037402 -0.2219975315858564 -0.9264641140489076 -0.39172813544719637
P 4.046933899987256 0.2739399479694392 10.500844158404108 -0.7956111610893717 0.33717729678450964 0.36906257552888055
Ni 3.063724486677944 1.8240872044077938 4.9110220637105915 0.659018220322265 -0.014206630517685209 -0.6091210783815058
Ni 0.6049643379036895 7.9957237953631575 7.856214779452517 -0.14097410055393786 1.237042063078334 -0.49968464342453295
Ni 4.311854731487761 7.969965533976404 12.579241578613178 -0.18500989861791362 -0.21480795581595263 -0.018992996162735032
Ni 8.476516737205802 3.9121546819646604 13.57265744690437 -1.958018984491583 -1.3117094699852379 -0.8995765456294442
Ni 1.140589969143063 7.538090938867172 12.512332492482415 0.6358255842558856 -0.27814682508391453 0.14261497859147051
Ni 7.491901142598804 2.0950052594560464 1.1072746473386108 -0.44114165288331775 -0.4450666989693367 2.3987618592745847
Ni 2.8532349775944965 7.544544472902248 10.655555763509934 1.3807032235461318 0.601855397958028 -0.9095136022374982
Ni 6.827708634685752 7.815201779100598 11.239902317353508 -0.0665846298987692 0.36944978366497017 0.15425153438913436
Ni 5.869214487363585 3.9413771780715425 12.48180252714245 1.3778896653567367 0.29062078918120915 -1.07584443638867
Ni 4.448580253425698 7.449929890223497 7.628884619648966 0.16573459532806942 -0.72429081627783 -0.8198893169104461
Ni 6.437712167362578 1.1678661613346046 10.14764401003158 -0.46070260573438077 -0.14372415249524925 0.731084956381528
Ni 6.687025317704659 1.1985879633284238 4.461581377330994 -0.7661753723267579 -0.5838828726400074 0.5735100140461156
Ni 5.256044941901013 7.195075826820996 4.050931738603791 -0.1125703526002642 -0.7897418467927884 0.6454523087123722
Ni 1.7695068826479352 6.376557249601617 1.7758300422580606 -0.10479739352306468 0.3571460265969527 0.10753921793425995
Ni 0.07770408851670993 1.7540761382090877 13.119209609449312 -0.5437469238510699 -0.7367488395355246 -1.141651564691466
Ni 7.638767932306146 1.132925815447727 8.168102997541633 0.7072513442970401 -0.135997730385269 -1.3061219485951312
Ni 2.8210604320083656 8.736976900881197 8.627098266778356 0.42894228260364836 1.8627549843802498 1.2640764414883068
Ni 0.6392183555677892 4.73383018275964 10.55574482875099 1.0492466312954833 1.9153767243410238 -0.6154845587056884
Ni 8.347380869291802 3.527987813928583 11.216596026401726 -3.7441633221956296 -0.9605523139818682 1.2180279838696764
Ni 7.197804377286043 7.490941959329522 8.070718889578565 0.34833331340132906 -0.7140092318461638 0.7398858425026097
Ni 4.957878632037994 3.0962901555389277 6.014020429910809 0.5772142023705802 -1.136816605196668 0.402562507058539
Ni 7.3528475059296 5.579839138725837 11.189895344171752 0.28936789061071455 0.10482336166499368 -0.11013680345810709
Ni 8.854081071864004 6.8246262107815525 9.834637365625563 -0.3076841724213991 0.8380027386817053 1.4437376741997974
Ni 4.254313047789729 4.07581183511391 9.362121337275523 -0.8069895781296426 -1.413259045994966 0.8155071286823503
Ni 1.1518301070656274 5.703834529313197 5.153671218445891 -0.2567223366615514 -0.0756148584218375 -0.20485007327229235
P 2.295130001755887 6.656685326526768 8.63402207998915 -0.12156381434812612 -1.2198560382173507 -0.010123975807879338
Ni 2.4052312036270367 0.14274975161656678 2.2966907698717294 -0.09466853261917889 2.820055881304356 0.6670027811896384
P 6.479012922695282 0.28043538806967827 2.1026712756431674 -0.2954932867821621 -0.2674343237624169 -0.18210172383218318
Ni 0.9140942056591983 8.754419136447861 10.518086176103882 0.2838027378181112 0.16886979852294143 -0.8762327286971812
P 0.9955297964671853 7.928757903232951 5.568546851033292 0.2946584495856926 1.1951078847383934 0.2598290006113332
P 0.14317533098944266 3.565731209951908 5.326701361503228 0.42797709047690163 -0.3187298887125995 -0.5007855897981955
P 3.9136074255569717 4.626373719223211 4.975231467998978 -1.4445254602084154 0.4900620327331044 -0.19474203830401302
Ni 7.727245604553275 2.4958414289680064 6.2535769170370905 0.060723800242617997 1.0788788523396193 -0.22232329035639128
