# total energy = -340887.62173690007 ev
CRYSTAL
PRIMVEC
9.16139869013195 0.00000000000000 0.00000000000000
0.00000000000000 9.16139869013195 0.00000000000000
0.00000000000000 0.00000000000000 13.40863303138175
PRIMCOORD
 96 1
Ni 6.800020486848837 2.368267296402489 11.712695790075482 0.712567871413947 0.08786050855840996 0.16146090765337998
Ni 4.773180186451562 0.4239785248128722 6.34791463663253 0.6930616830602193 2.017110134226784 -0.657376570953784
Ni 3.095306712952286 2.0497896034184473 5.201047724890177 -0.24902471090697756 -1.172671667222064 -0.592867849747437
Ni 4.086313501936832 4.980154499367464 5.8132325218328535 -0.8283281917064185 -0.39821528583343674 -0.37827303838355497
Ni 3.7865800301030172 2.590202172924608 2.6695921031404066 0.28381456489265317 0.4278961007273211 0.041555454844283274
Ni 5.0941864253972176 4.461692640455605 3.2595449345575416 0.08212026364052308 1.0655592524125777 -0.1980577329408073
Ni 5.3933702133263335 3.6605466721540063 0.13997792247137686 0.24903448109899046 -1.6489854971311408 0.3008578935281851
Ni 6.04554268205616 8.498452138383845 12.733696081319914 -1.0199537958686369 0.2739122181772766 0.13594656543235942
Ni 2.193880077636812 5.652683595367967 11.475188368533248 0.6961256666975236 -0.5887592268957021 1.4440220382094358
Ni 0.7866737072307223 7.683875560010773 11.685153878030551 0.2747619677720816 0.6393811628176278 0.05151513716015644
Ni 0.46391306048923603 0.5007263077267523 5.115111975509258 1.5175571312841092 -0.1106440821118288 -0.3102665884365947
Ni 8.504507822733943 2.870220315376561 1.6081103407344344 1.7499817717405606 0.31234712511470725 0.30622404293610483
Ni 1.841633470107444 1.2273525452081837 2.9749332669419895 -0.47249702726614756 0.8536730982291104 -0.6453448366002305
Ni 1.75727531353301 6.815732285124809 0.650545404371919 1.2073669046114044 0.40371384705416274 -0.898382525321343
Ni 7.9872186228187765 4.3841505642994365 3.666322017712708 0.023529450580507864 -1.364689364616379 1.0502989838193975
Ni 7.630766933418464 4.4626454258904165 13.170670049779707 1.3253509720280723 -0.5455916903692926 -1.1583277397955665
Ni 8.22159467838391 0.1598004402146548 7.240326455910944 -1.0365042440281502 0.65239788679227 -0.22291618674538385
Ni 7.490789927086928 1.0160082452499273 0.5221429087936565 -2.5477428892933993 0.02859940890424752 -0.8295924031308228
Ni 1.705797415857972 6.950643038134705 9.495403758797709 0.43835560549774827 1.4259860066433312 0.049149722251773414
Ni 0.1250668304165822 5.3957613383117735 1.5692797535666738 -0.08276586764432198 -2.0876282948520046 0.17186384815425884
Ni 6.531032668084506 2.346573104963712 7.374426425161409 0.2851456249992509 0.2407110488349596 -0.9806601404753368
Ni 3.488422318796006 4.612562549498588 0.9282567067038195 -0.6799048339632872 0.38911512330438147 -0.385723066903697
Ni 6.099484995903931 6.028236800456562 5.100871497818195 0.9354935712410276 0.07442957986448472 -0.20784823666866786
Ni 5.233732846003407 3.103112224399008 9.652714130924078 0.0693796761454031 0.8076256690517445 0.4222862107397114
P 0.2811330846386502 5.771287059205133 12.696594250032431 0.07938949497292135 0.34999733136731337 -0.26608526593369014
P 4.066396621789914 6.253121647267231 12.898219222415772 -1.8809511956733025 1.4792039854272072 1.6329996632258457
P 2.5464473341105878 9.089976149628578 1.2089308052820462 -0.7106662835158599 -0.5276487327376267 2.827257798369434
P 6.522530890358498 8.1155423303707 5.957160839299331 -0.7025164007152159 0.3431527976416542 0.47591916557381897
P 5.166396567677809 1.5552664785562205 12.83062642493465 -1.0663524377378346 -0.3426691731370163 0.9212686858908973
P 4.1694257083272825 6.453344009553748 8.585748355428894 0.869594140334741 1.1088131780052064 -1.3100338820550277
P 4.857217694081588 1.2099733724212915 3.903105688780422 0.13510632891925117 -1.2322423276968455 -0.16975760044453345
P -0.007332783288681273 6.305479039189787 3.492399281846501 3.719329550981401 -0.08323509397125664 1.6390499831849836
Ni 0.9863436371930183 8.25443829168966 2.8204391086873604 0.7248878264318807 -2.1841176827300064 -0.15118677942088157
Ni 1.950562497221912 6.563500664055378 4.903536808311028 -1.3200380444555913 -0.29082776298569263 0.38586859134262574
Ni 6.869335627231348 6.224345694856251 9.651051337112365 -0.815090609970222 -0.605168521491661 -0.1878651086785216
Ni 9.030509512538584 2.221290981684456 10.371564173433704 0.13649421040571333 1.6770372610620345 0.018544338661090645
Ni 2.3447591480782064 6.091642838863562 7.297446858867715 0.5094214110963227 -0.6693887649233117 -0.4462067261110509
Ni 0.8906784826989309 0.25873254938233514 9.464496865116182 0.5990202425020781 0.6280909346157892 -0.37479305025475457
Ni 1.7421498447553825 1.5010768069513358 11.903500234794828 -0.14035240780953892 0.13798365046704625 -0.9177012802546131
Ni 3.8385159976986376 7.2906775015813485 1.678680592699342 0.7018713109320492 -0.2972336665120365 0.24819038793114032
Ni 5.735740833367948 8.13035631160233 8.196912038783255 0.2984577687271247 0.1505720286550181 0.7869138904256899
Ni 6.951357627210814 0.9823034604934825 4.778809865775519 -0.20942020914147805 -0.44878477125087224 1.0940568456316384
Ni 0.7607900082982996 7.802891286776464 6.867097497599383 -0.045269927581393005 0.10702911106706083 0.6607971665995587
Ni 5.629715969549972 4.883914009053124 7.894734305853213 -0.28676079200517063 0.10209619254181773 -0.260478461269874
Ni 8.29134040449177 8.174468444954405 9.44431705283485 -0.581470663654089 -1.6631556179839355 -0.5089791813525816
Ni 4.842577779419778 0.7355842528483385 10.726262371178029 -0.49092129540960616 -0.6312978715888611 0.3074360609663351
Ni 8.391611910107233 7.669180676958494 5.019521944482146 -0.26731322480352027 -0.5065482033135857 -0.6751169256563404
Ni 7.455133764468802 6.5871187491606005 7.298747777442168 0.5226636208182096 -0.16112177914640638 -0.3522971831450836
Ni 2.4000023805004305 5.448943256091376 2.847202301867301 -0.44318130902116576 0.05150176742371775 -0.29529222651494946
Ni 2.9914531005578695 4.846865313876429 9.253337625405841 1.8045932884378533 -0.7083898287768575 0.24038708983663762
Ni 1.3680258178190046 3.3856955584062214 4.108485918372697 -0.7412711528859104 0.3804816159990996 0.21712374843332286
Ni 0.5145380319721494 0.5155613601747303 0.6646319705696656 1.622741218722631 -0.08259283240156744 -0.16592819939611422
Ni 1.230494904863378 3.7256658920639842 8.22451991289675 0.21922331127482889 -0.6262441112150375 -0.4283583850757204
Ni 5.401752892872989 2.9460308872329297 5.11355637005896 0.36609397981885977 0.32280097345817954 0.5124517132822142
Ni 4.2285075666839855 7.375475405279542 6.152604616174336 0.2827706970091711 -1.0903819678832125 0.4559087838901632
Ni 8.627582048995993 7.423499455753389 0.5666031752853735 -1.3594018909651944 1.3368569157851429 0.12439099938427609
P 0.27380488204917475 6.049262209811289 8.16580359433667 -0.6790358010947725 0.19132607064392854 0.3668138887040199
P 8.863295668729227 2.0901638862185705 8.108347884198034 -0.6807975209808855 -1.315825034815508 0.3232568300486755
P 1.9519916753741289 3.497666169793356 10.485135281123354 -0.9113838226770176 -1.0695092381992615 0.7737719537270933
P 4.04911822438555 6.339495311492227 4.02938823676623 0.564379512499757 0.13096119640262607 -0.5944200247259053
P 7.067542481867305 4.165064882683339 10.600690747708965 0.35658655454905686 0.9479107139584579 -1.0718049762119735
P 6.521917076664918 8.36504385471346 10.599738878413996 -0.01935346482594731 -0.5289723366450567 -0.3128760010349837
P 2.531578384488487 8.815125035880794 6.2077681444303785 -0.2088118861335178 0.2830650883211383 -1.744482439188886
P 6.7174488029646735 4.2776859533577 1.7858826962132146 0.5435882867860187 0.7032337384972147 0.351836184348265
Ni 3.081656229318934 1.9304623891067612 0.48160555310180636 0.2961905699595028 0.4338533467520206 -0.10959558624265642
Ni 1.7190264751643887 1.4144924305628717 7.234748080418092 -0.8157241297891629 0.25477061225181924 -0.5801599152624652
Ni 6.991347131277647 1.1691593424974098 9.452401986933125 -0.07474556844300675 -0.4129621051253082 -0.17195537942680064
Ni 2.8107720010833916 1.7138777692570437 9.285222956437732 0.9279309284024213 1.2795274859360546 1.3639054352625029
Ni 6.388673698165942 2.238367828323764 2.4590759935985633 -0.5377793934137255 -0.1395157708408565 0.9947693261832093
Ni 4.162701241893134 7.094577768580071 10.672239437024237 -0.1727951017192766 1.2307269194935837 0.22287067821942907
Ni 7.510541902062435 6.702909663685392 11.855725374357776 0.5147351099997522 -0.22269404343224872 0.3046446142641269
Ni 8.019219387470654 4.1472551241710995 8.374723788275205 -1.1133915414045084 0.15376508167101904 -0.07645149539051996
Ni 3.260697438477727 8.72982325526996 12.733950768195758 1.1873362112127743 -1.0051702098015591 -1.4113911395482919
Ni 0.2719771830660514 5.039318810309871 10.140694185040708 -1.029515471415143 -0.09382186834816744 1.1551642544659202
Ni 8.809014383140225 2.6754215009497373 5.8113012990476784 -0.509074055059233 0.6874034563331775 1.688601054640234
Ni 3.618028622125559 3.403532801113696 11.809653617885452 0.20551187522600733 -0.4341392534235555 0.15284694073212385
Ni 1.274570392621806 3.7566497414921707 13.092067999827307 -0.030505881898341008 0.3164218094047131 0.4364475898417581
Ni 3.2832344785703755 8.773055894374515 8.203026356083187 0.14080852151035103 -1.1069059336801645 1.1223690623127702
Ni 5.7964534206419245 8.2160795165401 3.6362204109515637 -0.8513375081173983 0.5776492330254697 0.13336569207906063
Ni 3.215797424862251 8.360655544874282 4.075205306362712 0.429897447428066 1.790013076630833 -0.5102961003917922
Ni 3.9933253080586275 3.1154709508563183 7.215641067890764 -0.33804787231492106 -0.8727594254366001 1.3038431798632837
Ni 5.352565344800864 5.225450941839279 11.759960360621003 1.7665468751880933 -1.1272775553579812 -1.7833431208098254
Ni 8.211746175091392 0.28566248001336786 2.708288933891357 -0.8958026804093088 -0.5034363971574813 -0.06203789106835122
Ni 4.9421163731623095 0.36519716032407057 1.4371100909615429 -0.3505030673591383 0.7509081617550423 -0.11200805233889097
Ni 6.141938916143498 6.110286284631262 0.6619925716872704 -0.635552533100157 0.7550301543432159 -0.1572826079059743
Ni 8.243563711775037 0.24606508379855255 11.684711382487269 0.36583326995830545 -0.29617822866432864 -0.19952711839748216
Ni 0.11651832955867554 5.034362493769171 6.244466874187749 0.06301722426248502 0.37520725497403773 -1.0265836424803285
Ni 7.279244076363615 6.477301066400202 2.881635417797472 -2.3932003060264075 0.6392731764848538 -1.3868193637461987
P 8.668881633035692 2.0083342756057503 3.8444021961781196 0.06993863397266664 0.7357648783557006 -1.5683636724130152
P 1.7836601409585495 3.411155084592185 1.9533292395422293 0.2551174540682768 0.38291979312694696 -0.7657208012878426
P 4.902447518039884 1.300918574453699 8.459560169846727 -0.21125829079148134 -0.22983451113177192 -0.38417629124186736
P 8.943705262588242 2.2193396038227755 12.70357981632131 -0.9477914147717742 -0.7228797948629163 0.46990792638273265
P 6.673199248636425 8.197335295389873 1.4535355621737827 0.15190591697509323 -0.5871988243871177 0.5456253718207055
P 2.130162551683816 3.8564540157886396 6.189652395211191 0.1503408864808185 0.20784875088930013 -0.215262526854868
P 7.006042014329927 4.198421534300141 6.096395772359525 0.28905318758377313 0.5145733876109073 0.1799165432554063
P 2.6199858791608683 8.962706002893995 10.633729498800884 -0.029916842164090414 -0.4807754652248559 -0.3534284685360494
