# total energy = -340863.88608119125 ev
CRYSTAL
PRIMVEC
9.33544137004128 0.00000000000000 0.00000000000000
0.00000000000000 9.33544137004128 0.00000000000000
0.00000000000000 0.00000000000000 13.66336208593181
PRIMCOORD
 96 1
Ni 9.280371324235608 7.347010809682388 7.31443478799453 0.6268411213690882 -1.8139215078173148 0.04964028873494677
Ni 0.9730330249391937 1.8046621236694844 4.631073338068652 0.7601965290355037 2.7526006758751755 -0.9343334894946553
Ni 6.039218202652677 0.8707343279173557 13.58274751565839 0.1198828271012774 0.7616803126698818 0.2038892520209198
Ni 7.779577808085751 5.971722963563065 5.458281171898134 1.3882625239506283 -1.0859470720403104 0.44171912265334246
Ni 5.416441592015447 9.14915236425724 4.569437955352005 0.09717792930459393 0.03829221071197922 -0.5167863361018261
Ni 7.60661075554739 2.7561676214522954 2.1301180051684785 0.14860384918505376 -0.36954954246762806 0.9832865223545905
Ni 8.341281963104137 9.083001428684764 11.877055070717608 0.40103012957441253 1.1284432935313082 -0.7589143198889704
Ni 0.532862309767022 9.248845539670516 5.525818420472658 -1.6778926670837941 -1.9464816732759445 1.951939611066722
Ni 7.207324604634272 8.275476438852037 6.217334684496963 -1.856266805552745 -1.7945868120444448 1.0282003521481453
Ni 3.0778949277794507 0.2292494933332945 10.399936233175119 -0.9732677046660078 -1.0819230384825818 0.6523685762162313
Ni 6.297791249997643 1.6291931729186728 6.422667711298629 -0.2386109717728213 1.0705939866230076 -0.056410003358612536
Ni 6.718035466160579 5.989600333252775 10.862358905732354 -1.1949906424342387 -0.421205576081023 0.09196141810066098
Ni 8.858465399558431 4.531507124654217 0.561691085400858 1.1405400767948422 1.09055346046407 0.9013786318351895
Ni 4.862775251776612 8.174093548601247 9.250819985461309 -0.07190038568472779 0.5571346580118856 1.2974632444788687
Ni 3.6287699711320065 1.7108876179080508 5.13439084387014 -0.2372158911975076 1.6159882162695136 -0.941684787653404
Ni 4.163448024191274 8.560347423751006 0.805938898391327 1.8499997415971106 0.8159218476222658 -0.34497828088616717
Ni 2.697204975520069 2.731354019031798 11.175660042930561 0.6949799831288547 0.8901933046423315 -1.106258787014469
Ni 5.804077112446706 6.632718870027802 4.445510908409999 -1.4319805336638691 2.1790736925481955 -0.4371531005492149
Ni 6.510275224675193 8.74409691074974 2.189717328183127 0.39145431296051936 -1.7238115411030956 -0.27551658654991906
Ni 3.8091960411022625 9.262783353219724 6.404673648595276 0.9662231391144004 0.9616239497794922 1.0711249194258132
Ni 6.2062199083337415 4.5281090240970086 3.7389515146112817 0.48774058368877926 -1.093056172281266 2.368801822577385
Ni 8.856131539285624 4.586959644736139 3.031080491339246 0.14819195845861574 1.2234944063008864 0.32451332816359596
Ni 1.6683366774142119 6.8146852877781114 4.453149166310846 -3.65974757765271 0.13647287024947463 -2.244567403375631
Ni 6.547019520810285 6.13237656930209 8.104723752940515 0.2886376973129094 0.1094415771632954 -0.3881363043308799
P 7.40563737973533 2.385046496311427 8.371568934636423 -0.600673718945101 -0.6540709036193187 1.0151676873339033
P 4.562482118194928 1.7250961592489074 11.169551863824568 2.151075664673373 -0.7644226513017093 -1.086718402988696
P 7.71664759968975 0.5955441954299955 5.181133397413943 1.3741795634950011 1.7212044424975517 -1.640488515403723
P 7.707274816834152 8.85648628604709 0.18846668538213493 0.8380302494855311 0.14120241451466006 1.363780222538548
P 2.174317584559029 -0.037128916308051055 0.29376485962658605 -0.8115723124043184 -0.05268113244379959 0.7779427972753312
P 2.1819913171360223 1.5455662916234096 6.84702512280636 -0.28011860409830464 0.6486697872084055 -0.898362470716685
P 5.543328907327483 9.31961751858315 7.473243710573928 1.1431947408088698 -1.3700840532693888 2.0509718199712355
P 4.478565838225836 6.546991514487011 1.4816138524279192 0.9843093071921499 0.19782196278091738 -0.9669713301343348
Ni 3.1617178533376302 5.711152131824575 5.611761424702656 2.706715483307287 -0.6476493163636912 1.5658794725385807
Ni 1.3667459175208454 0.9838994783693886 12.024591448179343 -0.8438036616341984 -1.5607120694050283 1.0882348396332227
Ni 4.975211304279421 2.81534498252962 1.5856059984637068 2.0075615713064003 -2.966723175588329 -1.798649926370225
Ni 1.571490811533763 2.5894179726806947 8.804233021627134 0.9494644315988229 -0.4046862382697611 -0.192622677968165
Ni 8.783613832888928 6.555664139260767 12.252619865817904 -1.2941105259565517 0.4107337300154217 -0.08491530988715698
Ni 8.150082794114597 9.212969439556908 7.992793681344852 -1.1545808711586245 1.1839809215872963 1.25457724374862
Ni 2.1159524068566418 5.724361780968669 8.46538171570633 1.2103236732468834 1.0873310968720307 -1.7782831897884148
Ni 7.49650856331739 3.9898461616587086 7.002842036516018 -1.3673185747091097 0.5600731718149193 -0.5102066260017794
Ni 4.664201084325 5.618964651048651 9.613978912895467 0.5194823948767505 1.7015452735057277 -0.738144948552103
Ni 1.034525575407144 4.667496495030205 10.14530554260298 -0.2353798664300333 -0.18239482959256975 2.7365233106973386
Ni 2.944958246640296 1.1413323569319385 2.6572782275169753 0.39015410609185713 -0.05556462463918172 -0.2938750344524487
Ni 2.299487178710278 7.821876691670126 6.391187670394882 -2.6215294362572465 -1.6585672272823047 2.320481795315758
Ni 7.751114048198582 4.105409586927079 9.824886131572708 1.7631903000110343 -1.5052618588565239 0.42194451112957654
Ni 3.058701260895876 3.3600586347619616 2.2110329408267386 -2.9005578926151663 1.3430440184324612 1.0532403258359087
Ni 8.785760984339912 0.0020799362751266655 2.029323247706438 -0.17716237754903683 1.1657374019960762 -0.6483208885094189
Ni 8.803946423585634 2.212210139948343 0.021074758263458022 -0.3057134218482735 -1.2131161483903559 -0.46606258449471344
Ni 1.5148433549921623 9.040543842601837 3.4808779133646968 -0.22653244334173242 -0.622364059434341 -0.36058976217117894
Ni 8.074512398481067 7.895159904236303 4.086684559186284 -0.384155465306261 0.9974664133993983 -0.37470614696790305
Ni 5.271714248778065 3.47492190194849 12.357034907335125 -1.7161522247856247 -1.4419399588694264 -0.13944300862139208
Ni 7.119599464699958 6.705077873925947 0.5634246768114999 1.0852158503012408 -0.6319910410011438 1.3182529275307102
Ni 4.271468413057928 6.848993033788392 7.5530654660804055 -0.17695000442791461 -0.39119334598964883 -1.4609797491096967
Ni 1.6447740240999404 4.070532379010233 12.955886649543745 -1.921569483415297 -0.5074468038684551 -0.8735870635442181
Ni 1.6264952304433065 2.1200133237313277 0.669335255991536 0.825319743897398 -0.7254573257821054 0.6043390836118301
Ni 3.463541999258277 5.772747372144528 3.18353571271195 3.158289644377838 1.7910456316604058 -0.9947716401760546
P 4.6150406515385685 7.306616356080624 11.602625776679183 -1.1699619816003852 -0.5961861154873925 -2.2762539358456344
P 6.7800881430940025 3.1086645416161542 0.2129964903934582 -0.027776655892636032 -1.6818495948490133 1.0097796835491126
P 0.6848787654084386 5.5171710013898485 5.963469500094305 0.22905495265327003 -0.3738939354792528 0.6708802618671735
P 0.35568497329651494 1.8423399639136997 2.5159573867337843 0.5061178006443864 0.9907666327817197 0.056145951063948464
P 3.3623551532704052 8.050398954142414 4.538545113692898 1.686299917310883 0.3638285808234509 -0.8084152548325755
P 4.068273202266155 3.609221557486965 4.139370054528766 0.38573952196392924 0.40345390852455676 0.3809595840767826
P 4.977685196168597 0.7377192290730343 2.2421573014249088 -0.1978654144243431 0.4928231404180093 0.3928542786318396
P 1.3854167997033109 5.966980559488719 12.166349187605604 0.9298384298377793 1.0472434848225256 -0.910781156096012
Ni 1.17163519871408 0.1061476993837533 7.985305724045574 0.4043026296780972 -0.7706328938774791 1.1509638432313276
Ni 4.1169575275569334 3.9305754461704714 7.3133556110043845 1.6534026523622298 0.4192672214077295 -0.019816520505294904
Ni 2.1913267582272553 3.6731413226386356 6.155194254417281 -2.056415102473994 -1.1128312980256643 0.493114446406183
Ni 7.18081195193517 7.992164472615304 9.897684834746247 1.6746780168012383 -0.5037387588892486 -0.5172655897310897
Ni 5.823914924765576 2.189525018096647 3.797129983491844 -0.14764559903684252 -0.7983447579704509 0.5460699155572918
Ni 2.3723596318684415 7.239298490371745 1.4723502942330888 -0.06843016774794021 0.8940031653067249 -0.31752918353627896
Ni 3.617380733000702 4.984061302433909 11.485093506884674 -2.0370948048788273 0.546731974621323 1.013565632954106
Ni 9.029117262706169 1.9230915293528634 6.973724795752462 0.6534440686685972 0.38168309250636845 -0.48477995839855864
Ni 6.384004048475178 7.895794714230507 12.482546178630313 0.06712996087927793 0.9112115587652113 -1.7112403893063044
Ni 7.276668261059949 4.556610125748542 12.616337986173425 1.802679359244592 1.7569746581186256 -1.7203220398925987
Ni 7.434782626822159 2.2289019086194672 11.741541807837274 0.11217877358880035 0.2598444272303009 -0.422531236870982
Ni 3.650894966518228 1.2637293250790913 12.996302574660017 -0.014620321016336112 0.7820285373089306 0.9585910764904394
Ni 0.2595990123208923 7.376520138971775 2.4507427959027592 -0.5174388820841606 -3.326258271242749 -0.34450056991880024
Ni 5.645570658158665 3.4658851949721767 9.678073250795542 -1.0079282321626708 -1.150319010558477 0.09027168910306389
Ni 0.24399668962511492 4.359062856816965 8.008123409160765 -0.5490068866984287 0.8620152995462186 -1.7386676322793218
Ni 2.721421109710727 7.628941130637618 12.641383107532985 -0.1873336616550838 -0.014749390395032664 -0.6877870649248413
Ni 6.300974635409754 0.6759848906808211 10.375300937679464 -0.32576159874840027 0.8308789831527302 -0.21246285262254377
Ni 5.334831165995889 5.761274115043404 12.941553946836374 -1.071786464269212 0.5192124290448155 1.3158476605233274
Ni 1.0149398199977375 8.18288753410919 10.84127667911602 -0.18381150743443828 -0.6838566195221836 -0.19304742421040944
Ni 5.852406690976018 4.788231754663118 1.6405730756088857 0.6959672867427885 2.2357719165711885 -2.1216581307432043
Ni 7.989289156759203 3.0662909745030484 4.808997509826456 0.10477991002156792 -0.9481544545381477 -0.12181578245793213
Ni 4.299176002216707 1.5101196217999984 8.946003830670923 0.16851498628668396 0.37204479808565605 -1.4469893483678757
Ni 2.0087908785703807 4.427202241341873 3.8733715973398333 -3.870747215466167 -1.8189235890175965 2.364586241834141
Ni 8.837955435480994 1.4205087227652549 9.792626581337842 -0.5278402799231426 -0.9830147567504426 -0.4418929292270455
P 3.404327296416588 3.8275215119643526 0.2594141705872859 2.272405508633822 -0.50648084041076 -1.9482850450332703
P 5.691360996711162 5.325346357847197 6.158350567050227 -0.4685007616225609 -0.1747429694742668 0.9837626906600607
P 7.307736609011572 6.293030175041114 2.710906602409671 0.8317801548107611 -0.02207934839754262 0.6887643412364461
P 0.5709957195364896 2.6565958067732063 11.071025618547697 -1.662512070862666 1.4703192813430679 0.42419371217506946
P 8.336744938733796 6.005741310899516 9.310146713596094 1.3913699592313586 1.4889114425229584 -0.285995631704372
P 2.317420561046536 7.804503435799342 9.088608294604159 0.5104629649869595 0.47224557337697376 -0.6114211872695922
P 3.3150057960556722 4.029829855852459 9.277491340658962 -0.6356191246720344 -0.7970792609944659 1.0091842160569586
P 1.497628801619929 5.363145558825599 1.9385304818295441 -1.6085641558913009 -0.8326790124759467 0.1687394435926642
