# total energy = -381173.26724387426 ev
CRYSTAL
PRIMVEC
9.20133598322718 0.00000000000000 0.00000000000000
0.00000000000000 9.20133598322718 0.00000000000000
0.00000000000000 0.00000000000000 13.46708529674810
PRIMCOORD
 96 1
Ni 3.6587180103699946 7.791111593839126 1.2218509209032486 0.5247883804706961 0.7255732825346793 -0.7986476339228503
Ni 5.333784413765663 3.143167157386357 5.014240419076821 -0.5080908652103572 -1.7737814452633194 0.9707091999102122
Ni 0.5682156193969365 5.024941572780551 10.299559556154362 -0.9067792340254706 0.9566020710848687 -0.057516606159229974
Ni 2.379640300692046 6.789500169574735 11.617300359338504 -1.6362762770945884 1.9738263838374845 -1.100780280398401
Ni 0.8101518661934844 1.4303108672656526 0.793008857194844 -0.5303818153980736 -1.6194021270470689 -1.2974262205933462
Ni 6.867039827581038 0.8561300217757428 10.079871219538596 0.7324630676759774 0.5738614838482633 0.6297420970659671
Ni 3.275132717505781 1.4826664687912086 5.121088172334302 -1.17349879110905 -1.1513824188259847 -0.5873896002416852
Ni 5.907745347326493 0.5884088712612573 4.260783504440432 -1.6111823102404381 1.5689241729021755 0.18330268611881978
Ni 6.2642695111772335 8.76899277270204 2.3278938276060317 -0.5845104789216773 -0.2772443678743032 0.17573670084610382
Ni 5.153723470663095 0.11540407555249117 8.182884235426966 1.1472545127005402 -0.2742552033389922 0.2703777226614569
Ni 3.6476211992206413 5.578457137872175 12.78761735801606 0.6978215663427079 0.2385574928270666 2.0172224914349326
Ni 3.210934996619348 3.853813936406262 6.128130225073277 0.32617966012242533 0.5800488436058978 1.1533547120610073
Ni 5.119540507628396 1.3676589708179354 11.728551871979136 -1.3448864709578388 -2.965039360128003 2.8536082633385047
Ni 7.83338253116925 7.4505425465165604 1.0748025309032108 0.7804496228575848 0.989753875246489 -0.43059318794351004
Ni 6.985323001150636 5.1529689611156275 10.619375910387168 0.7432694142628619 -0.4230313164358521 0.49938485279592704
Ni 2.806913536621873 3.049442349453262 0.9518413981393069 0.5783940816112942 0.25853213617678056 -0.36576847815864105
Ni 8.997682776272544 0.7542850348714166 11.389490923617911 -2.2373863122461595 2.2260911989483145 0.5408217797844751
Ni 6.752906456522514 6.46641366054717 7.973416742778615 0.17434444848426747 0.509500086853058 -0.9972111028554828
Ni 0.19893472339241192 8.481046165647427 12.979590350632686 1.9854685960621035 -0.47500642395156256 2.0531513441210576
Ni 7.1347434955572275 8.48167185649167 5.565219175848481 0.7915120513193337 -1.5085310165260988 0.8466629854598645
Ni 8.67714503730167 6.105169211356779 12.725762297261157 -0.10917109711072812 -0.8275725444873167 -1.2302967739347006
Ni 3.5045404252799743 3.714008838061922 11.360240796783186 0.47898032099764604 -1.0917603362879778 0.17213561375840677
Ni 7.529775250336695 6.914905177165561 3.2728783901993204 0.3007455363200369 -0.8899161397215448 1.7537551227400636
Ni 1.4541147233546883 4.466218051544206 12.610591935641663 -0.23751773870864254 0.3956639801664928 -0.06624215895768591
P 5.3535304807030695 4.065950736612183 2.293431143958612 -0.26587057881972276 -0.6823414684292377 -1.344263235551543
Ni 1.7911688603463647 1.9353629959363448 7.163613607217436 -0.04165135699219923 -1.2452209993447008 -1.2648115198821186
P 8.49270425828941 2.449036776387256 9.304355022108293 1.3711088949894772 -1.4843685603472823 1.618253872375239
Ni 0.03146580853021855 7.225551479995841 5.20753288326792 -1.4741170578226033 -2.1631022568206038 0.3611358644826361
P 1.4255077699024996 4.413623215284086 1.983378327296768 -1.261117873080615 -0.1063811930704168 0.3417698012511985
P 7.949208948041605 0.5694081125353746 1.30398112541238 0.34655848088909347 -0.15841003664219816 0.07203845392448884
P 6.322670390418482 1.1793812347167185 6.3994647402132605 -0.28330651490798303 0.30743786073854795 0.19156029814192171
Ni 2.6903970195536626 3.405239607764368 8.488896745475477 1.5349434450813564 0.9911219592386091 0.18333353935675523
Ni 6.6471370998377575 2.4636024911877747 8.238569800430923 -2.463202703357474 -0.38345741079797185 -1.1007334863208655
Ni 7.299309388928856 1.5133437228309632 12.883435469876584 -0.30691541257617466 0.05293592876708303 0.28090767565850333
Ni 6.061978140432182 3.073301413557966 10.983997249869278 1.5752814825787709 2.1681207930811173 0.24544059310014504
Ni 8.000856046699417 6.921677360420888 9.822070029306131 2.013964132398635 0.7661252358151127 -0.0948942754767398
Ni 4.138898927982062 2.2433133073348164 3.1439179863994475 0.7917583630021847 0.6515710200156004 -1.5543336766825102
Ni 0.8675129944729774 4.393785134987232 6.81903185728937 -0.43614085723461665 -0.7790157186245358 -0.31367278590466624
Ni 0.7625285117443069 6.392011658098024 2.8737409993213117 0.2917335626294137 0.5450561295807967 -0.3676579818718701
Ni 5.040887487972781 4.861268208995561 7.286555417175856 0.030716198136934197 -0.4730289885102176 -0.4553115166257965
Ni 4.638540671117248 1.9210641198782228 9.647105706183357 -1.9409262906753542 0.7087754942510504 -1.7616288690611854
Ni 4.433617718292001 7.03796384409048 8.27503929544789 -0.5402733634801727 -0.07665898341563572 0.06846744874377884
Ni 7.987155257477702 5.1245276317104445 1.4252887781070147 -0.6392675200578991 0.5799218311097303 0.9619486801087627
Ni 2.2050173471328196 6.123581084582199 4.926515802313289 0.43987229925259086 -0.31011952133576914 0.1368726767910546
Ni 2.2488525115735487 7.584182749777927 9.208025315969241 -0.5710479256588682 0.6106660542711225 0.875424630973589
Ni 7.791948915410098 2.09374559155311 4.736199050166718 0.38845460690224715 -0.0010011875710047274 0.3716835580914954
Ni 5.0803796218475945 4.005746395525766 -0.06770250974778344 0.03340274383016183 -1.526756795505506 1.3375364583506706
Ni 5.922090230064338 8.796918827294318 0.06975164726267646 -0.7536067916331279 -0.15918676690722264 -0.7584481788858293
Ni 4.153593461485807 7.3069649004348785 3.5257771086404284 -1.2790099228696876 1.4104835401323577 2.4007421229294073
Ni 2.797518972622296 5.292065556592223 9.767771105629047 0.39468259008983 0.5430905212139937 -0.11358645256960438
Ni 1.777109219022806 1.8084489692505814 2.747999222834908 0.49132932948130215 -1.276851224655472 1.6919853977314345
Ni 3.3412719202765535 5.518814078278387 1.8820522957397252 -0.9794936309710615 -0.5585711333480962 -0.7928230568212733
Ni 7.046125429073462 4.000290003310537 6.172907606314747 1.245137952712591 0.2194289995277318 0.8352516582991293
Ni 7.944764702780296 4.315021699300281 8.521783240275564 0.9947348734008481 2.0356470166887073 -0.019225938109147533
Ni 7.806901086320297 9.377081461281902 7.829372588964533 -1.6737871295558528 -0.8549326816678243 0.9803114988866665
Ni 1.4305501020002158 6.507911685657936 0.5431751037569281 0.5018775373107938 -0.14228844848998723 0.19844262708405178
P 4.88148354406615 4.287684530208465 9.32920230969346 -0.11547569917251727 -0.8530598901251438 1.0374655795001553
Ni 0.5183121739006532 0.23969664162759866 9.392066757001501 -0.30013489931923154 -0.2571987620773377 -3.2390917034275697
P 0.820620226097812 1.4031393222208428 4.8617117133880985 -0.39577376627147964 0.6328114800199102 0.2666066856547989
Ni 0.30531228838311564 6.958721938934401 7.9294463186994975 -1.1571180357581814 0.47915618445387803 -0.3594831593705616
P 4.52527222563753 7.608667504726873 12.35470370315211 -0.6712453585160761 0.4018050600672241 0.1242310767676441
P 1.8789496052591597 2.392779808421131 12.495232946635301 -0.071808854412186 -0.8694846113400703 -0.8190645070163055
P 0.46768090273114105 7.629002457164743 10.963809518806524 0.06926346228251297 -0.09333618696100056 -0.39010756912463784
Ni 5.994237905207024 7.9511596312618895 9.90233420288567 2.437139173501203 -0.7482807514345242 -0.6893317837041418
Ni 8.875765075004773 3.0172468749826256 2.7575474491447625 0.5333804930150813 0.28292727719169336 1.906121267181027
Ni 8.510131588568743 -0.1358282809490248 3.6607708284192655 -0.04444486057693636 0.8171752604133926 -0.9177136215497872
Ni 2.87832510488898 0.5861775472946585 13.312295016123283 0.6044406421867009 -0.2282244863321747 0.18823920418848872
Ni 9.254335639779105 4.848561164055879 4.44470348783822 -0.9651455897795054 -0.39180269743887364 0.7786830178754655
Ni 6.188220469593979 6.342720101442065 13.154500385873387 -0.4602866012428847 -0.17863587677076978 -0.3431566542963961
Ni 1.414098113331025 2.7702922195618176 10.289297306175198 -0.36619708105562737 -1.0732784754337064 0.3504706714593061
Ni 7.486252931318087 8.11858714011233 11.870118106023298 -1.0819518348379882 0.09899775612215207 -0.7546090076453972
Ni 4.935403372702312 1.6273114698424809 0.7214059011400864 -0.334320801172321 0.41634336289271523 0.06343991362220042
Ni 2.3210645960678478 5.978034352608343 7.51316591882285 1.6443217731068842 -0.2207109515639489 -0.7689583343885338
Ni 4.082154289210866 8.667621654598868 10.391404531153949 -1.128098765707696 0.5142309166698241 1.4463733120504316
Ni 1.5505723280633705 8.573722021282823 4.350501130569594 2.391293833032314 0.9788796515361464 -0.9205048111416791
Ni 1.9366327802967185 0.31582205429919474 11.14822821461252 1.711807574663684 -0.21873325901228782 1.2034835103965984
Ni 4.925180688467708 6.090851932626768 10.66061169742351 -1.1353904142731028 -0.04121864033015482 0.3686010625114297
Ni 0.34297243627133145 -0.12968822947310152 6.492346705773818 1.13039836037515 0.7150500144058524 -0.37111662984443183
Ni 5.510330446537339 6.399786786971327 2.1417112356994314 2.169696365098354 -1.6621552017438792 -1.6039580245778569
Ni 4.150317785889481 4.777140394452827 3.901347117763181 -0.22967947361114635 0.6028560713084004 0.77301373540483
Ni 6.564913961835584 2.0484106093533887 2.402178052955086 0.6997529790374658 0.7867729939724515 0.19257511255968124
Ni 2.7792635221079367 8.862469144564628 7.131090565187167 -1.4490079214598013 -0.0952809693921972 1.0715645780663934
Ni 6.833418146038967 4.435117536050993 3.8112117509821277 1.4618649799281274 -0.10558903618642461 -1.7445989101620922
Ni 8.613214155157635 3.1919342378934656 11.602405236711162 -0.5973513394400873 0.5657625088902127 -0.42927472624240265
Ni 5.8572852210055535 6.063376743495781 5.042130588458916 0.3172700163376213 1.1034606554440414 1.0130871506557906
Ni 4.091723678593393 1.8445182061539522 7.171249795917973 1.7798106821765347 0.9042631524718362 0.3992797225422091
Ni 8.834653506003686 2.2119459530992067 7.124936711707326 -1.2647878657330347 0.5903723370190929 -0.35340738549012685
Ni 4.674692720044121 8.619664291654896 6.00432717007043 0.90820979582441 -0.342666602033855 -1.389903401988161
P 4.045017697337905 6.568870536291821 6.10417178654037 -0.8902678666340088 -0.44235984156113495 -0.0030837811316463018
Ni 2.172196181817941 3.5664562148521126 4.27235234412375 -1.9250692690384397 0.047602689479627695 -1.4031669518662866
P 3.5386221736192818 0.17127182700815333 3.1011326943900133 -0.5118171650220088 -0.47702653970538494 -0.38857930540556945
Ni 1.4469560839896827 8.589575923115605 1.8054244901255463 0.04779860754051768 -0.10806706541327195 0.5469150371664064
P 7.0252660004867415 4.37513402702725 12.786688023085643 2.1409941120676543 -0.7088580266625276 -0.5239987946898652
P 2.771396379875186 0.7573610414777424 9.202813679290143 -0.30303433235421356 0.5195412731391439 -1.54028079813387
P 8.307048902932443 5.686894881980906 6.574510035092351 0.17190524291515555 0.517438110753212 -0.48543378993247366
Ni 8.755807258293231 3.1828157139722304 0.6044228763394783 -0.7387525002291148 1.2118195410661194 -2.691136655032423
