# total energy = -340868.05803614197 ev
CRYSTAL
PRIMVEC
9.33129070518514 0.00000000000000 0.00000000000000

0.00000000000000 9.33129070518514 0.00000000000000

0.00000000000000 0.00000000000000 13.65728716835809

PRIMCOORD
 96 1
Ni 5.5453994695175055 6.786106550802399 7.307918861691285 -0.5948686822275497 0.7709614808614915 -1.5630456026342114
Ni 4.128526950080527 6.507156944990734 0.15827455438869736 1.113527038541108 0.30803872754734046 -0.1412836613745567
Ni -0.15165960237291196 2.736363688561167 6.242718429431218 0.49889454342306977 -0.5779667642658884 -0.137707256877208
Ni 4.107102306508453 3.5949730760353944 7.989158141377036 0.9652093531379055 0.7937275709134137 0.8890033980992883
Ni 1.36472926670146 6.722355172368422 8.491104134249833 -0.1926522456545198 0.18944350890923503 0.4724936848320379
Ni 2.4976039520286495 0.5532867546034362 5.7870295110860726 -0.4216606613405706 -0.6965414140787036 -0.37395949860986566
Ni 7.547707839594012 0.9931945940247606 5.427433291800536 0.2918397491899748 1.7221138416856987 -1.0110976310295878
Ni 8.772766346283797 8.5441497228013 3.148769414742085 0.35350174497614606 0.6449712553108956 0.16360186525578277
Ni 3.4919742886884633 6.0651430332461445 9.277872847335104 -0.022405878499025925 -1.1444892912505773 -0.0323035972287121
Ni 7.46712281263912 7.023065348219319 8.664770652737891 1.3075111156331738 -0.5238406718454462 0.8156387691642082
Ni 5.336751808249397 5.955491035591335 11.388170379053987 -0.5432332174394451 0.054525127631073846 -0.1332780174612608
Ni 7.3388828838015705 3.6013556789113954 7.477897654073211 0.36596516755047936 -0.36632023689705295 0.7884691507279519
Ni 3.655906404661546 6.361934066980198 2.5675018516825414 -2.702556981054223 -2.663562859179213 0.8821478086300356
Ni 6.598053048229224 8.260609121938476 10.918277369922514 -0.702760655515538 -0.3870320155231076 0.5353643562143297
Ni 3.5603166621735984 8.560386168713935 4.1526072790013 -0.5364102809803406 -0.4838589892461861 0.16814988963778135
Ni 2.2556715766396405 2.2826949946643476 1.8704609642333105 3.412695417091071 -0.5413030902962678 0.2793423880539124
Ni 6.089451045661325 2.396854005753526 9.414937377839077 -1.6047064727081073 0.43146222081202473 -0.009318449187448468
Ni 0.7970079384300616 6.487841173129151 1.2263107659090244 -0.4281629812354626 0.5080931792032023 1.3494002996677923
Ni 9.041040955472443 8.013861800520203 11.508544962914664 -1.20637034502609 -0.8479310535390107 0.4724348065696444
Ni 7.404341888443599 0.032613794315660354 13.08847525638104 -0.16168459362841187 -0.9755073926298039 -0.1861524968627891
Ni 7.764063147025244 6.415262393641524 3.3721203908518818 -1.3037855871524706 -0.2724754857307501 -0.39058322320947575
Ni 0.39089430160482763 4.994050824003755 6.896260571899795 0.19226786573190757 0.7290730681578217 -0.27682244984553617
Ni 8.119837269617783 1.7364505651932474 8.459159393481261 1.3883224306542863 -2.34044332603935 -1.075463141789851
Ni 2.8400249975516596 4.279115320274835 4.11625163709313 0.07026696384636287 0.2773788365696384 -3.683231519707263
P 1.5526334686225647 7.327703997477814 3.474987606999176 0.13831352300263922 1.1966333202439843 -0.9605368873629007
P 5.6663329976943695 2.085310201336785 7.062141994511468 0.4085837735519544 -0.336640193334117 1.007686805575826
P 4.556142680191097 4.048296512174302 10.35785031163382 0.4594576775836861 -0.5318154625208067 0.5542547653609293
P 5.282956917050352 2.3299953074983386 0.31946700339629175 0.5537621419952269 1.1191682959872853 -1.2475918135697224
P 0.3823916294694296 0.48884766004086133 5.8503581820488755 -1.1228370030881245 1.05799738090492 -0.7718875922201868
P 4.529632483157881 8.10151994586692 2.28758179163242 2.564723997232428 2.5457819089122866 -1.4246487758891464
P 9.117156294155983 5.370792356921403 9.026483208766523 -1.8520334841976878 1.0875372993455656 -0.6346189655422941
P 6.986290731356278 7.592096789712635 5.439424000419924 1.5317017982156071 -0.7815266579718476 -0.06752719631769662
Ni 0.17586497058979358 1.6375762083597558 1.553352911139728 -2.289093253702148 -0.7709974763057497 -0.8780978069303781
Ni 7.807061734821463 2.3601073827627475 13.324991750616201 0.0580501100651968 0.34366290450885334 0.3091401881416353
Ni 9.087109537926855 4.8510207993205015 13.706999864035625 -0.7404759106781248 -1.2933772473349532 -1.1254767547038165
Ni 7.802937304308023 1.1964860943998505 10.764960530311622 0.5575522051652785 -0.2584768574588129 0.7630000599225698
Ni 2.52822924828455 3.0760693284746505 5.846151636176797 -0.4297331539360599 -0.8722220648758915 2.267093352392289
Ni 6.503284459327664 3.5564348452197736 11.726815984337772 -0.10138631095898669 0.4860418558301178 -1.1682550262116074
Ni 3.996190584601801 8.09495071717583 11.695868758550848 1.297407451540269 0.472483914640025 -0.2906467573231381
Ni 4.248387379820636 3.929051947623982 12.77476659250928 -0.41776389738932573 -0.09174981631048715 -0.025343620971111196
Ni 1.4526580194800551 8.876362336239008 10.346009836795577 1.316408932343436 0.39729303112948355 -0.8731420055869995
Ni 3.070237271753158 1.1602620236913175 11.860752666180876 0.029518064063774968 -0.37512215145939914 -0.5229515843722736
Ni 4.307258493190068 3.8659444282520576 1.8816874401399144 -1.6469754086796473 0.39276017625613646 0.1057345606253534
Ni 2.318984384408161 8.2403508897107 1.392306030267902 1.0687965284029528 0.2948764791337696 0.4439379846815323
Ni 5.528547158415081 1.3346545166000685 11.898665700515954 0.39614631911955 0.3691363661896094 -0.271539604180042
Ni 5.765198023237107 5.106212938871495 8.766298828661931 1.0311175257949405 -0.8398714164593277 1.3662628797510858
Ni 5.92219699017968 5.70427402590171 1.9660348435269754 -1.173746902564114 1.4089604186196123 1.8182283627227844
Ni 2.9565075000386813 8.646859240134845 8.306963241889973 0.8633070217744486 -1.666565414996433 -0.08187138085451061
Ni 2.471345699845803 3.293721685320743 10.841182245709764 -0.01721404988544132 0.2943725429141575 -0.14598955149065826
Ni 6.3660398349121285 -0.04078613875835307 8.57220144906714 -0.10484932980692266 0.1801566842906704 0.8025276857035468
Ni 1.536611642397281 0.4609265718455825 3.1241180108271434 0.7415004952878972 -0.5908153380937825 1.7005952508876323
Ni 6.456086790691971 3.3533299706597712 1.8044010244666984 2.750947713652785 -1.2605653430112547 -0.31123640854903173
Ni 0.8965709445212272 3.475840486974127 8.782140560975655 1.5727147502928593 -0.9416145965371009 -0.7096190731982682
Ni 7.985690633732706 8.894446377721012 7.0860702233929445 1.400759885086691 -1.2078844676777714 0.49091718164454806
Ni 8.166512385971231 3.6015796298895006 9.708965416380757 -0.9021090822433109 0.8522651621379902 2.590300560149952
Ni 5.68515421114597 9.026166878009949 6.303616299152502 -1.5395097242958002 1.4195258528402843 0.1025196532324815
P 9.181962108445205 8.221921590470785 0.18801431115200634 -0.32409372412767407 -0.39814586604808205 0.43824016296580653
P 3.769206937001321 7.866884639847842 6.391610370966378 -0.46932222908259175 -0.11512140115689204 -0.6005505631036754
P 0.6441585964859652 4.462241901329693 4.665315982630205 -0.2189577163182681 -1.3678286815763088 -0.18983560214133113
P 9.158111329276991 2.9899975025561787 11.658078897253729 -0.5516106428698629 0.2099398290903739 0.0058299764182157664
P 7.917852149948308 4.84791347949929 1.905682854314822 2.0048238606602635 0.5679955119857896 -0.4785095520088146
P 7.486933142910686 1.1416274360548053 2.4886169859030987 0.49994226796129376 -0.11880270666322122 0.8076956030577317
P 3.3598991993508602 1.807303055891313 4.134292754637663 -1.2975401204633912 -0.8732494776991413 -1.3385178484273335
P 2.6088795942747227 4.368742367970729 0.7641692600072204 -0.48186329897239594 0.19612863423889448 0.010355117982078941
Ni 0.5662712456881668 7.728940168625729 6.505048073280243 1.5468522807038005 1.5296623991880753 1.9203078430940541
Ni 5.2709008893956835 2.416804305386407 4.918166901330924 0.39040350309850186 -2.483444741435962 -0.3343619388229016
Ni 1.339497456501596 2.832168050736465 13.189975438432816 0.854433887654535 0.7742568637833117 0.32702478173154004
Ni 2.035005212879881 5.750407927391402 12.960369698130352 -0.14635567658082535 -0.1719211837547555 -1.0364487081998666
Ni 5.0014225436997215 0.28469301527099067 0.2468798257469855 -1.2528222087307261 -2.4414447428550923 1.0136702768527703
Ni 3.4668451226868973 1.5041760757350295 7.581078401589854 0.8227735804367766 -0.6880989397383054 1.1117560626836145
Ni 4.628450852246846 0.4714961248830774 9.830351512159211 -2.0414088588731487 -0.11924776462043979 0.8574004264820265
Ni 7.0992739998104035 7.8935441375331274 1.525054838797972 -0.54297919244711 0.6376436113012308 -0.5543187858296453
Ni 5.371622841798543 6.774834351571099 4.242212864728458 0.22594134672495284 -0.7484039072759497 0.3189936838969474
Ni 0.014691184163707951 6.604584951757296 4.85554834159453 0.487433851081638 -1.5480838391180565 -1.2100984446099545
Ni 5.185566235446808 1.5954547618944497 2.452670987659047 -1.1952819484224124 -0.8171863161569861 0.3541979997122222
Ni 0.9914776365259532 4.0434255784005115 2.186777723870921 -2.018023904290305 1.6767966058061383 0.9173377262676071
Ni 5.96821891618032 9.29092359058419 3.9515310270513013 0.6690352382386348 -0.7631139597926149 -1.1597837555158026
Ni 7.507695264839197 3.8428308210534396 3.9874359676160345 -0.3122463378707848 0.8719880944882143 0.6297572665746186
Ni 0.4756513486560063 0.6696582147304804 12.74681097853821 -0.8436326832739729 1.7634178426408083 -0.2758814260885055
Ni 7.723462700952903 5.841779926458367 11.123614289230966 -0.43816225854001956 -0.03784098210717354 -0.005685480420551499
Ni 0.6654693983108357 5.32391195217136 10.909755102076533 1.1429000923865864 -0.7951252225918887 0.9493276489106425
Ni 1.078174658924969 0.6668187029539202 7.975842389470525 -1.1569668548922978 0.20307678342195346 0.26995426197079314
Ni 3.620727438517504 5.624762097383573 5.7106584950358625 0.4469783141697528 1.0085072445945922 1.386253978161032
Ni 9.214696276411598 2.303793043060018 3.85944051859625 0.5568924600940925 -0.7543688666101331 -0.22480234802450316
Ni 5.744155962585963 4.264213248940078 6.1307560041856215 -2.903621362031838 0.7431879102926491 -0.515984151915505
Ni 1.845719979927127 8.218664969997503 12.687496628857946 0.5934041818668813 -1.1998649398074044 0.6731855129615826
Ni 6.5212751879021225 5.08031860702807 13.617667685127572 0.5665554371051533 -0.22940205158004362 -1.8861252836750741
Ni 7.557571013921399 5.409283931283253 6.155134934410535 0.7276821013475662 2.742644078883096 -0.7645290949725866
P 5.206981547728128 4.253594240061585 3.8924359627037646 0.014583297130813595 2.123008217013195 -0.7010141051380765
P 2.4014823259677023 1.4142784206072587 9.60318963690532 1.1853032399431458 0.5024094985548638 -0.04463255110771023
P 6.411753828317874 7.211165507246266 13.131713658349646 -0.8923700005786761 0.25864706448809005 -1.0160984266782889
P 2.3661913843346083 6.878393016363293 10.99889598952412 -1.0354922578238683 -0.44379246024260344 -0.42243224939927243
P 2.503575978111458 0.7908996755022394 0.21828875087554167 -0.369043549365487 0.17853971751253767 0.6477956121335683
P 5.0937276718421245 7.422192647656744 9.455199098057033 1.3829539672535214 1.2677592896565328 0.3822045122274772
P 2.4286270507722163 4.659542713040467 7.50405139579961 -0.31790405037719444 1.4395166941399145 -0.1695611681630112
P 8.796047916715995 8.842918990175285 9.41866616162453 -1.2509789848744004 0.7114371002436135 -0.7051348121746694
