# total energy = -340891.26852588396 ev
CRYSTAL
PRIMVEC
9.06107084461144 0.00000000000000 0.00000000000000

0.00000000000000 9.06107084461144 0.00000000000000

0.00000000000000 0.00000000000000 13.26179308816481

PRIMCOORD
 96 1
Ni 6.47865645107647 1.8140807098250706 11.477935456505488 -0.1643045477497622 0.8180440361715913 -0.13891644669396075
Ni 4.4360555395502095 0.19417058898790457 5.950792001180951 -0.2802409886087819 0.3271139990112366 -0.09397279210373494
Ni 2.5422011637545894 1.6331130068759767 4.672182510059018 1.058747885917699 -1.6703763041020911 1.1858028052873835
Ni 3.492607802780602 4.362207813782379 5.032704388936374 0.15453821239161772 0.0253050544236919 -1.7073451680169565
Ni 5.380436566596393 4.6366495215193195 2.560043317964336 -1.356372102999935 -0.8934881733435194 -0.2512086059321738
Ni 7.355668417866969 6.273033574898631 2.6022688132834366 -0.09132455584761046 -1.0055468764146875 -0.20358457629630747
Ni 5.2256553578152785 4.254462622726518 11.828179362948678 0.031228361886662347 -0.09613406142111185 0.07759332230444702
Ni 5.945557420668549 7.685527633677044 12.34000571780014 -1.2871101833793188 1.7029223563589122 -0.41126954791423365
Ni 1.666503052207812 6.472929854427971 0.43133414597865616 0.11191626395603306 0.02199167377974277 -0.479961968184625
Ni 2.6966199297098497 1.571787680741415 0.40432128216772895 -0.1727624487091283 -0.8089873252859617 0.4699084406033649
Ni 0.3662357900269502 8.879695195231424 4.583872409432533 0.9778517244922643 0.5825096464415646 0.25949887096542407
Ni 8.72306552803845 2.329664690673578 1.3785630675289904 -0.1623422818170688 0.006347282374266488 0.14150811868053692
Ni 6.660557444302139 0.7809936133651562 5.088217944358361 -0.3050127962368231 0.49226778213517164 -2.223603142419138
Ni 0.43076692295619406 7.35967341109266 2.498628287230375 1.7194388659566968 -0.32596831544256766 -0.05354785131946907
Ni 7.737547240257795 3.80053016655584 3.740462517026993 0.11468868449484763 -0.4133415999519139 -0.31043088192860085
Ni 7.600117981764459 3.8018258996582697 12.838303894176589 0.08079511707119634 0.5586775770189734 -1.1964677412003974
Ni 7.884644661130797 8.93483181011452 6.821190292506673 -0.18709403484045198 0.5249783849943153 0.9397289494786139
Ni 6.987372140375037 0.7486582766565574 0.4260152975092431 -1.1163634795486386 -0.5093807876663744 -0.3519215449732197
Ni 2.0271246028622776 6.428594035755333 9.180131302438639 0.6067348375375164 0.7335845828749301 -0.6618885998915247
Ni 0.023602276819637495 4.75141704232611 1.4886496392398718 -0.04973156289717242 0.24787542779388275 -0.4926876432814095
Ni 6.217253623999642 2.14893257556129 7.189868041072817 -0.35449007703134433 -0.32514916197538196 -0.35552905981882
Ni 3.6087344841843465 4.515919816227224 0.7733959056281837 0.07783834843571755 -0.5697657165123349 -1.3572149106162046
Ni 5.9492090321390325 5.651598166759351 4.549179382141751 0.9025783085702455 -0.31059800363408446 1.8120728846443501
Ni 5.286763218254327 2.643150551825682 9.506172183078338 0.2066498454851925 -0.189781351864628 0.24715397624682597
P 0.23615959036313497 5.389243927264655 12.348533091385429 -0.7562041200466589 1.0768695352190745 0.6116998948522755
P 4.066889399276227 6.101579996128215 12.496361740659593 0.18802451707452134 0.25042570501956224 0.2771348388796324
P 2.0753204376302645 8.41855918789689 1.293224998074511 0.6292469025971034 0.5041503925053704 -0.11648999936964453
P 6.338463566035994 7.883213011968672 5.818146987988893 -1.2092342968374465 -1.2511268233061743 -0.8786817044583062
P 4.702197306575084 0.9374130637191328 12.50174582883766 0.13891181870827046 -0.2085756017529956 0.9586705235781231
P 4.1618222364381365 6.066830790199425 8.214010048590644 -0.6505081259687249 0.733376323518866 0.10747751145838909
P 4.52902212438186 1.1386050763509012 3.8205234189370327 0.07992531287173331 -1.1242068868524575 0.02390174631826206
P 0.2918063435236232 5.457446606019804 3.596730377792049 -0.1360658646190431 0.27794293660322456 0.33752928080728967
Ni 1.3981956892984577 1.0568832801913841 2.6203311515098897 -0.9751479524078559 0.7936524947011042 -1.0533706807661858
Ni 1.8164365881931241 6.511566259664048 4.960228509264402 0.36363986185141245 -0.35986573952096085 -0.7907175804424962
Ni 6.100184591248675 5.928558852135978 9.181868309681546 0.3301571567129346 -0.648346856651348 0.08630293426330299
Ni 8.72179697814796 2.2923783849638086 10.116718902621889 -0.1329013508481324 1.2214714623335865 0.5695428018682513
Ni 2.597845198593884 5.081085975652611 6.971936606528963 -1.816583885140826 0.854369867185819 1.3799164659787784
Ni 0.65727919140215 0.316107228890095 8.981482732337303 -0.34105734856520614 -0.08890514777284043 0.7610851022880442
Ni 1.5329247487391786 1.124460745071934 11.293397691721728 -1.4001081104353048 0.5858723922662104 1.3526072366408641
Ni 3.9558369174344437 6.892022493963395 1.4136275987162727 0.2318569408784394 0.15727000950048398 0.0925075204121181
Ni 5.673707179136469 8.0118258487231 8.082943473905182 -1.0340156732783417 -0.3662083939095371 -0.7867477971614709
Ni 5.277593414760212 2.8268275148980373 5.009894049691228 0.20347761840479797 0.3402266251337947 -0.3389372168984098
Ni 0.6570372608158921 7.821516181937609 7.188488040013376 1.6592555115985812 -2.1472408643083147 -0.6028966947383487
Ni 5.1832404861196695 4.653747761828999 6.876491818875535 0.18612267206611816 -0.5778536357267919 0.604244467015495
Ni 8.399612489175352 7.293310129678723 9.01996872380065 -0.2521591427709012 -0.020860388388776976 0.8229152482209635
Ni 4.720672829623012 0.28770620905614547 10.385389614464161 0.19404732622983353 -0.0796283504566048 -0.061925276749886904
Ni 8.30712614108796 6.919785614423841 4.904317172841041 -0.5734459935773996 -0.2204114180456591 -0.18755786185074796
Ni 7.27883053878584 6.272716437426008 6.964430415605519 0.14576972217036832 -0.9673392549967147 0.008351714398804971
Ni 2.1985963037739866 5.234218069576088 2.495219512453215 0.15316730018602007 0.7091881563084368 1.1128775778825672
Ni 2.228380042988571 5.410990496815917 11.50860989896461 0.8959127236246119 -0.12021141408528975 -0.06001494710105148
Ni 1.3294855905871128 3.3559759185041456 3.825032207690661 -1.5920263061372775 0.5358844903838578 0.4360480404104942
Ni 3.583879967401382 2.896353109967554 2.7767007659753116 1.8239405826162138 -0.22907552147856033 0.8095064310142253
Ni 1.0103456213516813 3.342284640757496 8.278236729546173 0.2420829894818218 0.12660626186804003 -0.47431042632580256
Ni 3.6076199724948443 2.983076617123862 7.794764276961297 0.1196228885716714 0.312886542557945 -2.111734700981905
Ni 4.264855670757892 6.740367354555275 5.946693678927603 -0.46577847759539137 0.6506917027344408 -0.03198735153987394
Ni 0.8471530206895508 7.531625348748627 11.406613957233862 -0.4596715933667051 -0.743675391452029 -0.0455432358474377
P 0.2764034295318765 5.660478015992783 7.801077124880616 0.5881293066211871 -0.3930640806498005 -0.17536569065993024
P 8.322801793306162 1.7900598115415716 8.022296821962033 0.6924703293331236 0.7061177449132291 -1.3906076271440373
P 1.8534873060660886 3.4615826968874663 10.48814215559388 -0.45152865254459656 -0.3966250585281815 -0.988586080190633
P 3.970977966484511 5.9890505597710755 3.5610968113681754 -0.6481481103769806 1.0073008829913168 0.7206038543445461
P 6.688827984718781 4.131358916925076 10.288962606752667 0.9111922754915016 -0.5144520315416946 -0.09923943981931295
P 6.721946197931225 7.816677570212454 10.260065946354361 -2.7299212319997888 -0.7829163392305227 -0.8371697012574486
P 2.290647720470354 8.359607862271675 5.887400750939019 0.511679353892564 0.8280718527212384 -1.5863385117238809
P 7.015660802932971 3.9385936999944215 1.6050082840521631 0.21996147499243404 -0.5220910361441912 -0.45980734761362096
Ni 5.033841553302492 2.4934797868891136 0.7160402345437921 0.40114737187856725 0.7770082012762038 -0.8620088717883154
Ni 1.5884238064481313 1.0757937346303366 6.96214974412383 0.41754123985555835 0.6171686312763307 -0.019198684415637903
Ni 6.908776413588514 0.6243557912086024 9.014385292068365 -0.25348968865686666 0.28986745595495245 1.4821491840984604
Ni 2.8310771570311797 1.6636669370955013 9.41979843324898 -0.9929122183698126 -0.726866033204174 0.3559715466728772
Ni 6.217335173635458 1.849137992155836 2.646562951031101 1.320565634824287 0.6981709792623266 0.7412595829216847
Ni 4.172432750165024 7.035250837670401 10.434060249334017 -0.2815134275633022 -0.48151517160435775 0.09934434082829344
Ni 8.174988547852097 7.114888587581255 0.17005636167674776 0.011041602526142273 -0.2545045030746262 0.3552454671401301
Ni 7.512597100391272 3.936391859827356 8.197193607578066 0.6087066165519065 0.4581021919970562 -0.09070543420637282
Ni 2.9491338464825994 8.509477970762463 12.37715157691489 1.0602483817226256 -0.7934342080427109 0.3698822432166985
Ni 9.367697277032413 5.148699684815746 9.993105964650121 -1.1518786417361129 -1.355002733456234 0.41038920219180935
Ni 8.700956515661334 1.8914078867211037 5.743006247439826 0.2198342053859504 1.7338465567415944 -0.04229053323809491
Ni 3.534198117047392 2.629658617633252 11.629464647031623 0.366566291469588 0.2990123556790141 0.10727130898485397
Ni 1.263049820608004 3.4238161544334393 12.745166055109722 -0.4276549312507925 -0.24445431792747577 0.05315035877073426
Ni 3.154539256964925 8.233740529923093 7.880793706106094 -0.06144885133410063 -0.3645793429465463 1.0369292473807108
Ni 5.468482990067069 7.720738954208798 3.542675654744126 -0.49878758553156033 0.9878831405863374 0.6572634424146874
Ni 2.811097496255957 8.504847763662172 3.350233918035547 1.2577147609363373 -1.3352805724369585 1.1124680011489745
Ni 3.78143849070396 4.50037101899807 9.77083790169492 -0.17982089821780642 0.2658045014684777 -0.1569931016900135
Ni 7.40228762634249 5.981466443640072 11.327626792195415 0.22382558593353066 -0.6340080714311725 0.17620721272461912
Ni 0.2835544264859835 0.09353652617530554 0.2038550612947337 0.923341509259526 0.49377727680116257 -0.13723134568205397
Ni 4.65608551805576 0.15847359506950628 1.7222431343959577 -0.5476002361588891 0.7639660233802649 -0.8003113947785185
Ni 6.07642646401392 5.7079036597558295 0.24295448724084004 -0.09791300769840557 -0.43097242565979976 1.816841766787903
Ni 8.095550141495464 9.012059315233444 11.13343445663796 1.3120352287557726 1.0397502617692738 1.267609908562862
Ni 0.14671504369172542 4.533525476493101 5.648675065368835 -0.0381536282515859 0.32215896899880647 1.7437100797992358
Ni 7.802614788569303 8.850971601282463 2.5604546905716807 -0.6097880225415433 -0.021069933296421775 -0.18050686854123751
P 8.43575709998368 1.5343563979013035 3.521523491427265 -0.19956362806237243 0.9781381453844316 0.8625539456585081
P 1.8616241475065196 3.1323668170932826 1.7507420137928877 -1.4635598511320471 0.2362213884947222 -2.382174644339865
P 4.436662631283516 0.9421610647378252 8.20328083483829 1.8193493637011056 0.5336252620360358 -0.9994723880858334
P 8.518946789587908 1.9266463904647961 12.320682984646778 0.6664227403164522 -1.9171672405825433 0.6042154135497723
P 6.2489401880499615 7.722922672234571 1.4426447713541748 0.17790671191422908 0.06855229514810131 -1.1707340838797193
P 1.988605991544603 3.0953523435029044 6.147066570772941 -0.35304871659912745 0.34667700874482876 0.10245820386692678
P 6.989401820199822 4.137194246421331 5.824128200722555 0.025577591358788208 -0.5083937411627567 0.4617829832827531
P 2.309675968827709 8.523078637802648 10.122500771801331 0.9453630078359396 -0.6752781338245532 0.1863137050310017
