# total energy = -340863.94329938444 ev
CRYSTAL
PRIMVEC
9.33222025486292 0.00000000000000 0.00000000000000
0.00000000000000 9.33222025486292 0.00000000000000
0.00000000000000 0.00000000000000 13.65864765827209
PRIMCOORD
 96 1
Ni 0.9291242211591358 3.8421962885639975 8.79248078102703 -1.9539756676601447 -1.679221927418179 1.34098199369711
Ni 4.24209124733687 6.856410022993772 8.202714340790454 1.8102530578267917 -1.3961840927905502 -0.8198309528686848
Ni 0.5724131771659784 3.695568448087944 13.515968997193644 -2.1322539039811796 1.5997277885465933 1.3401942076884918
Ni 1.5394710061387002 1.9412604055694551 3.8911297840792844 2.1820345749487324 -0.06522554476771347 0.4644109078239034
Ni 8.580612323825921 6.71939436910697 9.59545951814321 1.3845920170775767 0.5677707975694932 0.5470286799261354
Ni 8.505095999670358 6.814247053080914 2.3217238158800546 1.0365063009106794 0.5849033434847217 -0.6315192435710478
Ni 8.274067561608673 9.045095577146578 5.616094527284583 -0.7690084709001788 -0.12214025567688644 0.3536513831801329
Ni 2.952331783678965 5.0051962081036345 1.9220854931568947 -0.4666904478866995 0.3967867809170263 -1.336017707713299
Ni 5.91627284902495 4.507499583840114 0.0022975925614310364 0.04067048113616866 0.7572168775818894 1.3057367973415706
Ni 3.8771921135248686 4.3220217115474995 12.64654112086376 0.18349808995907751 0.58268859522159 -0.18917662840109356
Ni 4.519715459806456 9.242182731106213 12.27893284358879 1.6729193822389188 -1.2213089686137932 0.18455764157184346
Ni 5.2879158126875225 1.455555683992527 0.2200052198100097 -0.05152182202837578 0.12625684894842126 -0.4098924650610489
Ni 7.799104225239734 3.81980829280903 5.059750499718636 -1.4067778091459966 0.3723217058961265 -0.3548045229479696
Ni 5.287243892848274 6.817690642257064 12.691696933727272 0.29493175785173725 -1.1019352199384507 0.577328102240625
Ni 1.952561723976819 2.683022579220083 1.7618699403760336 -0.4897216186745501 0.46017681513789777 -1.0840439414803267
Ni 7.947822482993451 5.866000179941159 0.25902696447437906 0.637432009511057 -0.21725718868739355 -1.503051481468766
Ni 8.506178537189147 3.5227264016612003 2.502782882007611 1.5992125394730714 -0.2469752845771166 0.40986881091196514
Ni 2.6154946353755864 3.3708071924510628 7.4473635216130205 -0.7395878516462165 -2.0439025718292796 -0.7112674074349686
Ni 3.7093708014525113 7.724773093022844 0.8034668122216349 0.09809735579506977 0.19451860943929725 -0.49888528745168914
Ni 2.329919371474891 2.627635853582011 12.963626625559224 1.42088493797134 -0.24099746972712685 0.2873781138741954
Ni 8.173736864500855 8.41849299816719 12.250590891480478 -1.181304403196398 -0.8433269791080961 0.6704259479385744
Ni 4.059609017660906 5.8328428023182335 10.554132347455306 1.0477816167141827 -0.37863556392929626 1.2337461659358817
Ni 8.931737100933326 1.9136743632802993 4.804497485008038 -0.6159818100570811 -0.9771858087734914 0.7915231070629272
Ni 2.1589624334860402 9.311670441148518 11.438625226514345 -0.04988865730032698 -2.2777973690733546 2.2252291080583353
P 8.77460118074902 3.7686117339462735 7.058897732661368 0.4351373556707667 -0.12007103185268356 0.9031925451154769
P 8.500775181815188 7.121127775217787 4.47480508432867 -0.3136452751008405 2.6063324168018336 0.00657482500404029
P 3.2517187331642172 7.515087442077297 12.245578556124082 -1.3921011809704282 -0.8732523059126186 0.11844609465475087
P 6.592933456028368 1.2677727533624892 7.936589289792011 -1.085226648934518 -1.6547257420490273 0.6973117165858249
P 7.12386211567473 1.5024314250001147 3.724221163121907 2.153865054493052 -2.04281808051585 2.7691462389386823
P 2.5293115837719484 6.439875715979504 4.816585509560522 -0.9650178059523897 0.5884041575491287 -0.2585215946538193
P 8.539102609312334 8.854214349480005 0.839547974367292 -0.3969832131985485 0.05128913719227941 1.110143723891172
P 2.6780578381856333 1.9929329076516795 5.814964135262224 -0.2844185170252392 -1.0433541770704484 -1.5172092610263872
Ni 2.409877832345489 4.172911500554221 5.063397531290559 0.19749620401038243 0.04045425136030452 -0.7808424874206294
Ni 1.244815492188158 5.331189316779137 6.809450292006278 0.5598024346520359 -0.37775393265529134 0.7542652511527332
Ni 7.5263141027247435 2.582617224352347 0.47133683568099305 0.8769415818387478 0.12405701308362506 -1.3811140858313053
Ni 1.09011528142113 0.7287045314412273 6.655722498562163 1.3338502677483348 -0.8701011618781466 -0.12759947901924476
Ni 4.212172150050323 5.672627249537372 3.7674648041095553 0.5923569715492896 -0.7338146966078652 -0.9598051514031986
Ni 0.9538742017934626 8.171105178463797 13.530105444033838 1.1754759694400787 -0.9650491734109573 -0.06767297786694151
Ni 0.33072547743221214 1.1015472509083477 13.20546737370082 -0.648015184343542 0.3592247635028523 0.8101643763131983
Ni 0.6886963711239609 8.890423363039519 3.6925196118173527 -0.17078038528209297 -1.063332162854272 1.243138148673743
Ni 4.11967118551375 0.8520195531613474 4.127041772861508 -0.008533748502624013 1.4926066319863585 -0.7051782638180952
Ni 7.9462360055952255 4.401662876938452 9.12822419314763 -0.5348205678957176 0.01935037950215377 -0.21857462194723648
Ni 3.6217039268705324 3.468972814521303 9.567418063518563 1.1437452139957014 -0.4912704512189088 1.1535686278440263
Ni 2.7026762345181075 8.740426591147232 5.278971813049523 0.056946078367740634 -0.41900342622338166 -0.4080248157246909
Ni 0.27616558648521616 5.406481667654953 4.091242443759536 1.4758350689549744 -1.284419009700401 -0.24472839752446884
Ni 6.08079988744099 2.229737989886905 2.2576515930976946 -2.0638589603465487 1.7150960156069688 -0.7925757166971575
Ni 8.301065674038487 5.652758953179587 6.471440083650211 -1.5591969183120824 2.243236857489666 -0.34824126790815507
Ni 4.171390348695922 7.931743067951429 3.475033158182527 -0.1909398909491034 0.13376344173811158 -1.4852401643189581
Ni 1.1652023234571742 1.8996200399760137 11.161409765280304 1.1013785761040322 3.823768275613466 -1.5348033199590663
Ni 5.408329447212886 1.0546341810208018 10.32086977592812 0.2235805598022601 -0.08126408628781488 -0.7077429392214779
Ni 2.752874245841981 8.353634069239709 7.6239291238156 -1.8634149865617522 1.2139584417859932 1.303530019498239
Ni 4.127202287045329 8.237989199129013 10.099641102077479 0.3048230488235202 -0.7031656042634405 -0.08845391916803476
Ni 3.8363729832905085 3.1864771832171646 3.198145257870118 0.33015175739629593 -0.3482955181848582 0.48295138983025215
Ni 2.880287045359519 0.6057525330787014 0.07343243943189437 -0.4042208685975684 -0.10932150664566334 0.06457608410917266
Ni 5.61361962254335 7.951126088869757 5.27858919202995 1.4384851675516066 -1.5837810354093498 0.4123008173922254
Ni 5.176647753751932 5.593406034045951 5.856677292171584 1.2483412901412372 0.08811041978568696 0.7480390677373633
P 6.165965727065766 7.965143083294085 11.13872220526367 0.812708997111923 0.9144732602356186 -1.1281054505759154
P 5.689061288938998 3.9147916278628276 4.08345750584424 0.44808774518384764 0.7029542595835829 0.12043227184684421
P 5.8682025838586975 4.031575028812251 9.912613148044597 -0.3487326057222769 -0.029140369009382074 -0.3804260801708158
P 4.279420127295133 3.2159856628241705 0.9760746199266401 -1.221229778636426 1.0441404204171694 0.20694860767253392
P 7.756306664367587 1.5657692020692962 12.055177004564973 0.19407612258523993 0.4234815165993932 0.026190028131806507
P 2.2541510773796087 4.259953116396899 11.19979038643139 -1.2055131392321174 0.5159728390615952 -0.4065433460831579
P 8.99029678136785 6.126742406449621 11.826681331008455 -0.0023330190085508206 -0.21772821478654117 0.08109105104506034
P 4.529700935195291 8.898729038830231 6.695496420157691 -0.8531329094549241 0.5769146688522903 0.7413333735824136
Ni 2.419704659994501 5.509640027419611 9.05019190248288 -0.30839688221770756 0.0747154865360197 -2.166390183543256
Ni 9.18465892709053 9.669113131188857 10.653608213212081 -0.6028133909959232 -2.4298503531492734 -0.9819215236862637
Ni 2.4833877292032964 0.3815552800493788 2.2386250629829685 0.033883797231638424 -0.1336019764595828 1.191919973928715
Ni 9.063237412806293 1.1299731929965644 2.479003452252199 -1.1309449769072393 0.2489727746231196 -2.0888755369955443
Ni 8.544459303586345 1.7212533193154473 7.303661332103695 -0.4265496140017557 0.12351348187532922 0.8037271053282867
Ni 8.970820438249625 3.6557198687324988 11.25725259779514 0.13082801325887145 0.6828196936172369 0.0725084515823719
Ni 6.89638925342907 8.671097528844749 9.04964596761349 0.13903343188779926 0.07750384791443427 0.1660978922047591
Ni 5.871935471854523 0.9510185424766555 5.674020549981814 1.7077897117535425 1.0283829004725968 0.7665738933167573
Ni 1.8388206267439942 6.978158164977644 10.641643373963461 -1.4854090857966546 0.4368623087816735 0.746432899592508
Ni 6.9494522562897405 4.877139485406816 11.558206427016641 0.7415100083695939 1.9137155345885168 0.03992460410907962
Ni 5.839701984010564 2.9051294149717424 12.093844124869738 0.08988396674634198 -1.4579538177991795 -1.7055261125303467
Ni 4.57545680980413 3.1027111765908244 5.815169444101994 0.06146556350464898 0.0610439025861981 -0.3501377135999196
Ni 6.3542899264551975 8.680504406594231 0.6560858615924231 0.1588440388558232 -1.5270478443833637 -0.03399075512314791
Ni 1.9446106725457093 7.464058863174352 2.2295961401430637 -1.139587997294218 -1.8392975246882581 0.6140341994124071
Ni 4.4868287165632275 1.7568464063556506 8.064598418166883 0.13588228785332726 -0.7438543402320544 -1.176975951024373
Ni 0.7291739421067025 7.378099784850464 5.85279882154392 1.034987550273308 0.8735322990468827 0.6339872454955662
Ni 2.004458199338793 5.862603251864957 13.28941349217296 -0.47785649180584805 0.044324018728355924 -0.35205061435191626
Ni 6.342447339288439 3.317333571910852 7.507215714516098 0.5038997099471451 0.9991443153224534 0.14033183898424864
Ni 7.667762561106589 1.7952671560526916 9.841164738582485 -0.12288587559365934 1.5941081283669707 -0.5118426189433056
Ni 6.862289321587198 5.962430009093341 4.065250344644599 -1.2632853130455792 -0.16053968139069127 0.8017427279084064
Ni 6.932215645969013 8.455943196985315 3.393914702367226 0.427321973391406 1.0004038987611674 -0.6064792698832845
Ni 2.8476056109560606 0.760760707105385 9.54680692244961 1.8204929903872453 1.4214636932929454 -1.396439660444782
Ni 6.268060213751612 6.322205754131071 9.51561117746849 -0.2990874318913236 -0.016964138658164332 -0.02288487501797349
Ni 6.749164150873685 4.823413894926887 2.1272524831834954 -0.8283855273069153 0.43392430919927205 -0.07105886362003891
P 7.055195640991507 7.28025145825987 7.287502593191761 -0.7533067438942058 0.4091051932730632 0.5270599501136923
P 0.9838866212799053 7.292588653086075 8.23005867858188 -0.3892647615083683 -1.2589874570011736 0.5257653996719848
P 3.8527043682722484 1.8079869718984696 11.588775046814462 -0.5773913513783927 0.35975029698901917 -0.5052459395623944
P 0.9737051692712894 1.2672968101430213 8.98008266658927 -1.984306714543518 0.785384598265357 -1.4583160862346047
P 4.032573576351135 4.739339925040892 7.366572626719353 1.1406385500459193 1.519416553090351 1.048726240015639
P 5.182629706765243 6.312686889741715 1.3859429222023618 0.5303792442949123 -1.054040967360333 0.4333800066600278
P 0.7200722279508792 5.121904951293141 1.7559150508006918 -0.412535816221167 0.08087559260014458 -0.5032967862558235
P 4.7324434144686025 0.17457037356881092 1.8951919015909648 -0.5979038695094476 -0.0430261258525388 1.0137078149589251
