# total energy = -340896.3853398119 ev
CRYSTAL
PRIMVEC
9.05675690094644 0.00000000000000 0.00000000000000

0.00000000000000 9.05675690094644 0.00000000000000

0.00000000000000 0.00000000000000 13.25547919555689

PRIMCOORD
 96 1
Ni 6.283079741885022 1.9896336162365293 11.428847286961522 0.10786394826353037 0.46462148117281277 -0.5468615582206517
Ni 4.685322935357569 0.2681769083929035 5.899284276263016 -0.06292415032804648 0.12375208024869655 0.2531132791540544
Ni 2.809242935801166 1.529640938681606 4.893247052152965 -0.2570840908763443 -0.03659194019142085 -0.06067700616508259
Ni 3.513731819760356 4.1779724765280895 4.871070677467771 0.04597903783327565 0.31977761325082343 -0.3071704660097742
Ni 5.014409250215527 4.5605027132260085 2.5658362572391886 1.635087656103126 -0.12812192718161808 0.30022514504019265
Ni 7.325349427224177 6.061334108546673 2.5988825514282494 -0.81507878289568 -0.4110322350924469 0.47108214919649194
Ni 5.057990363907087 4.831752579199034 11.298479801293787 -0.09701774957764582 -0.3421456965333785 -0.33554696026993824
Ni 5.550460571324423 7.771874707426783 12.562058584293831 0.1403377525215196 0.464094147914433 -0.4116585558225362
Ni 1.8912681806995337 6.314198758228373 0.6205898060488624 -0.07993122640900427 0.8440533157511593 -1.2666408597813734
Ni 2.7808862302799127 1.615933717412524 0.283056254129367 0.5242157957966778 -1.1876665979689995 0.5880935682872452
Ni 0.515972491297136 -0.12927886350112705 4.647967436286039 0.7855956858348986 0.8760383532981881 0.7703138199751637
Ni 8.56802702689559 2.1883841440755294 1.3488771298350082 0.5345210343774278 1.2549865633718966 0.2351991178777949
Ni 6.980142085273332 0.6507678253613405 4.75920705160536 -0.36933125580923487 0.01687697826099674 0.01683918304452584
Ni 0.7392342257227599 7.345980719200356 2.7560924528813233 0.5188262493499904 -0.0517089983385174 -0.8637937316028801
Ni 7.744423677584907 3.9290927998356446 3.6808208315240605 0.13347342130151854 -0.8441044807040688 0.022960979671547553
Ni 7.5441153875773805 3.7351332963405426 12.520873888449902 0.7502813268043208 0.5579648672226648 0.30265895129266585
Ni 8.020210978711603 8.99156625835564 7.131925178055586 -0.3464366105992485 -0.11008615272582975 -1.0918562384358939
Ni 6.818741622451786 0.7154520880580331 0.35579016226435095 -1.0392864347589779 0.03212027757331242 -0.16161903049779908
Ni 1.8806808320076316 6.63552343251408 9.157759556872442 -0.17449357246762207 -0.07849012308710354 0.5639419107417062
Ni 0.2602911902525792 4.841787465726517 1.4697676251937573 -0.7286213253323839 -0.9739937841987548 0.487810003474134
Ni 6.315149717691716 1.9518125998657998 6.925908414240956 0.6539086670098416 0.3700658199824143 0.4329076950092996
Ni 3.2421740240563435 4.024868002929626 0.18584464940789577 -0.47273279742603747 1.3021861038758349 1.1088509732216774
Ni 5.935300281004749 5.562967952456601 4.904990948687431 -0.16744309337874388 0.7062460429609773 -1.4203277799162894
Ni 5.252502329566608 3.347105608268813 9.001848394343593 0.013554855866299237 -1.3795973920764628 0.3741926976665943
P 0.08569865548524722 5.485378717004484 12.473207271768677 0.7989903619742498 0.763628437535188 0.9303032852893398
P 3.8709212509493427 6.038746557103043 12.73053599687402 0.16084795665972945 0.7814968331751767 0.10376535271412451
P 2.2374083686001365 8.414705191134077 1.2720577187103603 0.04044191006513035 0.18363435842662568 0.8569504834288016
P 6.373982409823963 7.797414761585179 5.773927894129265 -0.32176199067070393 0.05316167162464392 0.43495249335347036
P 4.762468389726791 1.0149092230652148 12.57139066649412 -0.6194553704279784 0.1502652960478767 0.8701315008954498
P 4.0022442244588206 6.2037244388581225 8.143490646512547 0.8569900784174853 -0.01573772245023096 0.9660254212812975
P 4.772856489769231 1.0743124908754678 3.8022683174256255 0.03543468665852607 -0.37796142068040717 -0.3094376647773961
P 0.3009542169051898 5.504660552218393 3.74318837583291 -0.26599733420557414 -0.3592826133239812 -0.3213498428339498
Ni 1.472710165476049 0.9557142606612185 2.575194604034178 -0.26927909028063945 0.6981565810846234 -0.3196531718578172
Ni 1.939948248465978 6.429935053295794 4.869744768273166 0.32315809968728215 0.27585854327037007 -0.19842051559686472
Ni 6.301863455475274 5.866088545586858 9.07969846439137 -1.198618211884497 -0.3883401928115699 0.7507173859004749
Ni 8.587834154003536 2.365796952908437 10.324918295694792 0.22665379941094516 0.4164351512755731 0.32148174042612376
Ni 2.494475353434138 5.150650042664015 6.957986541128764 -0.5393431383564196 0.04725790454569926 0.3681560045542111
Ni 0.8001726138095545 9.26687355137227 9.2465184904783 -0.7975554292999361 -0.8693275169369157 -0.06339157688276824
Ni 1.5943876930001757 1.0449052015661384 11.436231260775475 -0.7173727490017581 1.2486099704215916 0.4993840814649787
Ni 4.138974081774172 6.982605523121234 1.6002673395106828 0.051998761664794314 -0.5460352056646144 -0.22626787682643612
Ni 5.725835609878736 8.091487654678472 7.958563446567857 -0.23451006223057033 -0.40699611734986035 -0.0752980985123671
Ni 5.5639551389471205 2.918648557869752 4.741736567750203 -0.2086573628335245 -0.0680244476690893 -0.2390524301856141
Ni 0.6175929252258082 7.357682048977891 6.910068146608674 0.7733387228444165 0.10697717478320286 -0.3339834724375603
Ni 5.179332791429844 4.554208267254348 6.897342497637766 0.11333371312884996 0.4358135558021849 0.5421021891587954
Ni 8.270738985140513 7.390739211275103 9.083793929813508 -0.020803567008912557 -0.15935054617859654 0.16772077252016276
Ni 4.527735367146196 0.40853943085823047 10.427582068006103 0.4453325510362137 -0.7856715333781565 0.015442045586683084
Ni 8.13851033595166 7.149340415694302 4.701400490017847 -0.15252118196158893 -0.4143656703410541 0.13859145925437422
Ni 7.249363237724555 6.144810235914733 6.871282585639409 0.4524239106653563 -0.169976658433875 0.9132650988601304
Ni 2.77875789243338 5.074355923433406 2.546218416348231 -2.382358221105581 -0.40833540498657417 -0.028956020912717876
Ni 2.2777833903867055 5.129774218254405 11.55228273097932 -0.937343994186205 0.3312971838546488 -0.7231860132494256
Ni 1.1012110585529264 3.2056934076910895 3.9003321629613894 0.07452162535765876 0.660449810562469 -0.41705298736523017
Ni 3.5887489362830465 2.60572855388865 2.648696525145272 0.5103706623834695 -0.358618240267105 0.2145143358349338
Ni 1.179343699412669 3.4693174844437715 8.237988846898608 -0.8071294461416163 -0.19689353742937704 -0.3332365669692067
Ni 3.7257504963022106 2.7234754489642863 7.179989386360056 -0.47173572362009075 -0.03992691810192479 -0.9537391477147767
Ni 4.046178551665337 6.9432991986363275 6.101325123845187 0.5178983382190823 0.03370793377540646 -0.7603574800934002
Ni 0.5536603733429974 7.499284441448283 11.351395714212671 0.5102691038085986 -0.4512409461008487 0.16148584735404445
P 0.2505624221047253 5.612698604011121 8.180645085583256 -0.5640385842205706 -0.319152835182631 -0.2552251832907346
P 8.612658724375224 1.7079775367074774 8.204744209735763 -0.18982223240489246 0.7180090970341763 -1.0447767684495877
P 1.7477910395728333 3.2039001698459257 10.36593000748396 0.31509357751159284 -0.3118223629594888 0.9741791607366835
P 4.020140375883285 6.213967630791862 3.8347838856665724 0.20305672881729547 0.10027148062825311 0.3495011084571852
P 6.779851908779394 3.9065052483920146 10.361025773680142 1.0043785671381993 0.7751546930072327 0.29665182586663746
P 6.366709834118576 7.834411613087677 10.219788368508537 -0.8756449745145113 -0.6387191037535968 -0.42755183001402497
P 2.3802334232376863 8.569602902577703 5.947627432676732 0.18943296738627374 -0.7345914268728897 -0.7817261755771634
P 6.933880171570821 3.989229664946192 1.4938658436705863 -0.149580097055394 -0.14732806779642368 0.21465677495006902
Ni 5.124204312826245 2.923747511944637 0.5239705132217028 1.4255134378822867 -0.8206999857371996 -0.20014109783239725
Ni 1.3342776378834718 1.0637794827243283 7.01062441161408 0.5886826080214959 0.6824265719438763 0.017128175039854372
Ni 6.922676963416943 0.7765924418213286 9.171333823954924 -0.8781137477699781 0.24227839332207954 0.7735775783280999
Ni 2.8443016413498 1.6194477390485016 9.13560944678195 -0.7499604531297923 0.3762837758676681 0.6067312379930906
Ni 6.394061239635723 1.8850371320254287 2.4397372210483494 0.1649457808781869 0.5092293496901745 1.0782713006626077
Ni 4.046712900316169 6.967118469003909 10.427806675574589 0.5574624736649496 -0.45775149352585676 -0.23070611510344785
Ni 8.114654838556904 6.9867354042191865 0.6840532179297566 0.18367755295973529 -0.9432958408942658 -1.5789437619217066
Ni 7.607956466216574 3.840563002176669 8.264883791873348 1.0075101707886454 -0.03587408818878983 -0.49793500772327787
Ni 3.2145509158353844 8.298262469036741 12.54053157907075 -0.6280307708018151 0.12678983863375584 0.12044332759043774
Ni 0.04336375152850901 4.882724006434299 10.368740319117064 -0.3476103191923755 -0.29673898626380507 -0.837752570344112
Ni 8.720153370760327 2.36264520154421 5.761799085431066 -0.22611721018118475 -0.024647109124718843 0.24241569023089218
Ni 3.759912582928262 2.764747089673438 11.332122030079876 -0.5106799660937722 -0.3771263263736214 0.07502067648126434
Ni 1.1355452235580594 3.1184587262536216 12.788873284409647 -1.445252311072111 0.8921694545320957 -0.6721529579320102
Ni 3.2109644401450566 8.378242688282409 8.07901559489779 0.06418964730403139 0.4443588742690347 -0.02013405174571371
Ni 5.586270987686938 7.876154205150103 3.5746711135228306 -0.15258520243030496 0.10594976195995301 0.5415663712599834
Ni 3.0275288880443 8.416308237086572 3.5931097646792405 0.32119737641648555 -0.4407750135725183 0.3098827227346147
Ni 3.259418088991657 4.50110850217255 9.360409924186834 0.17794450713069998 0.27403485979806996 -0.1410095817775636
Ni 7.2522342296281765 6.286856409468019 11.567897485367435 0.3599657554339349 -0.4585307948940426 -0.39920798876400926
Ni 0.23476109852665727 -0.21675173764227126 0.29730434391730576 1.6813484868428785 1.3308675309709272 -0.621212205218085
Ni 4.508915426528768 0.2866563149548855 1.6249225485303278 -0.06093308803994668 0.7990600388699206 -0.2276549869819499
Ni 5.881412578081894 5.561935482182113 0.27835308032636896 0.2676677799294616 -0.3397712827639309 0.8761368265492653
Ni 7.646701271780267 9.018011988193411 11.452866711654247 0.9540985879367245 -0.9586031606752976 -0.1482472371765834
Ni 0.13294775567827805 4.942226898569284 6.010988503205857 0.3029705689958137 -0.849743424157401 -0.39732388436741894
Ni 7.939814148653422 8.8191346657593 2.3215646584034064 0.12034485433936049 0.38706672541578496 1.4298886841318472
P 8.53447174297472 1.5781036442850005 3.547828697737493 -0.034936406865868866 0.02103650895532506 0.15031723233173466
P 1.7274405070572612 3.134806172266353 1.764861214777707 0.1589229717228747 -0.31296264721151906 -1.4489832388694528
P 4.773771222205401 1.1204385532260728 8.302039136619738 0.66963327683395 0.013154535104087024 -0.7328790721674733
P 8.536192526765534 1.6207700255403903 12.454596542233185 0.28133679277612195 0.08990273579941936 0.17084826240555093
P 6.238185398458368 7.834846337413778 1.4405523391284558 -0.12184586436491918 -0.6901123706239082 -0.23542871739009777
P 1.8664617238414327 3.2121871023122135 6.007396593461453 -0.18688886080818135 -0.21577057683953804 0.43702531672209904
P 7.170397375239787 3.938403145819627 5.906429151697611 -1.1689844481784641 0.4005125665080457 0.5942709007425506
P 2.4430873153863604 8.484478445473181 10.422107258524276 0.11082457355375107 -0.8744496686548294 -0.7731649162707136
