# total energy = -340875.09833095694 ev
CRYSTAL
PRIMVEC
9.19250791864665 0.00000000000000 0.00000000000000
0.00000000000000 9.19250791864665 0.00000000000000
0.00000000000000 0.00000000000000 13.45416453187772
PRIMCOORD
 96 1
Ni 4.310541509440553 8.677635326136897 3.853555294327352 0.8294931585487973 0.5264757954754481 -1.6127684237806357
Ni 8.971565759248717 1.2319247244111802 9.31921536874893 -0.7709136583426917 -0.18160961468711304 -0.25030743427414315
Ni 5.723724100312995 7.20244927095361 0.5184537562262211 0.005646656762816082 -0.6050996159269386 0.5695669702379674
Ni 1.2675181141534468 5.594854335127863 1.516472364932626 1.3978131437535413 0.05227104148957449 -0.4141980344149383
Ni 3.3351337118780155 6.537205875068193 0.8533046372816621 1.1582997147711083 0.9792115809542684 -0.24458801529186266
Ni -0.1575733704202117 3.5866039520095856 12.54689601983787 0.5952587185771168 2.289142361772529 0.2895224139107078
Ni 7.496683056818916 3.430018776165121 9.086511633048877 -1.2514225001697223 -1.0958910706268998 -0.7172735044197325
Ni 5.824529139546904 7.512503362538554 11.641592124355 -1.107710688969647 -0.875836264589711 0.20953565167341978
Ni 2.8027496295114456 5.723705715297633 5.345420235447717 -1.3686200671293527 -1.6625228694959435 0.326638859147031
Ni 1.1671083527498372 7.313439608698477 4.803755397326035 -4.341509005208762 0.3802872406001063 -0.7111583926609301
Ni 8.838963835944948 6.3250244127668 11.573958249089316 -0.391509591678487 0.06938327568982888 0.3044795494411724
Ni 7.768386006357182 1.6760515405289125 3.0189666026849595 0.143221758937534 0.039055828350881124 -0.673280386668234
Ni 4.7162712209732005 4.662853558836757 13.133470854236887 1.1486945875811765 0.19897510254875408 0.7724550346878826
Ni 7.758936108460733 1.155139707748693 7.113808677134459 -1.128986310518972 0.2924537286248899 0.5415892540781188
Ni 3.347433287155689 3.289474526224648 7.194533602589182 0.3887222587413369 0.7572230482294766 0.4853373735639254
Ni 3.600981034023249 8.013495031173244 9.479817670450153 0.7813667353552156 -2.3383067393123214 1.4139717557912745
Ni 1.1831492786538285 8.584506030816932 10.30773260151587 -0.6618176374442731 1.783706160576199 1.6717886110685853
Ni 6.171040716596163 4.667284347539178 11.076114095084728 0.4287525351903455 -0.4231580718217035 0.5439852651141212
Ni 3.51472773444895 4.3136761545599 1.783874140126779 -1.766908629402886 0.5511547862793669 0.43580070028637846
Ni 6.985671554811533 7.523231019002714 6.3695372927123 0.9316325456237246 0.41449731082291197 -1.357469449829172
Ni 5.290085935459707 -0.05336986109650059 5.988972990208172 0.1436346781052365 0.6442096945545228 -1.2449980847006172
Ni 8.567168961329868 5.049518009438243 2.4506756660641886 -1.8751086208495964 -1.4549008899054685 -0.4096361260758688
Ni 1.6921751990020362 2.6267314924285636 9.039731880709152 0.8407911000601197 0.7343458865209869 0.4558141672938279
Ni 4.45218886030279 0.9100748069695016 7.911721101629719 0.7799724261108504 0.7330168832969183 0.8505237539668514
P 7.125121896337922 5.509391591214162 5.785546472222516 -0.26015887314692615 -2.054503487273578 -0.1481320517549578
P 6.680848000097288 0.9936733103254208 9.061083318300671 -0.21846997804857213 0.33161548642601596 0.6942801288483528
P 9.203906390895355 3.4067709242389355 10.329757849920433 -0.18400613994374762 -1.0121522975463473 0.019615974458714606
P 2.908031419986181 0.960699785272345 9.839608744095921 0.11794035866292592 1.0619777057089064 0.7667145326596795
P 9.11332342020313 7.1099634511713425 2.7262578538439937 0.3476329449001948 -1.0722209807034695 1.0370858275632333
P 5.368792186227601 4.347449427781256 8.603951861566104 0.32068007046043484 -2.2013106495695247 0.08340170145610798
P 5.354635724398291 2.6357861124947135 11.93649420552874 0.5039200216621192 -0.19819708673214897 1.0104360861861887
P 5.274090972094123 6.898802357222581 2.724952517753239 -1.1229498745169049 0.1992959762232826 0.16554999012108906
Ni 1.6207861843485134 -0.05503094723452423 0.27763303624351865 -0.4469124939288238 0.14330017758395322 1.1631529290983516
Ni 6.686731205013365 3.6180239432645096 3.931697125123609 0.6930526841991548 0.41802923523557034 1.0868330741896897
Ni 2.389445291649348 -0.10243395159504727 8.069565651026531 -3.297483513102901 1.2362301087 -2.444305352232339
Ni 0.19778691452313488 5.122083665074981 8.956975411056845 1.5599795621143777 0.536491013619605 0.1886058434992881
Ni 8.564558289148358 7.767696568281079 8.826618298128867 0.2605967320152931 -0.18871691515585565 0.28926556070489534
Ni 3.725943983443799 5.810501372825133 11.381186766757136 -0.510006079955199 2.07865360215722 -0.2426298631242273
Ni 1.5201925727912764 4.740714098897965 11.075670096963718 -0.23029191038416466 0.8059986749712829 -0.03608260465517012
Ni 3.006786530007144 4.970765796131942 9.101648016197023 0.006440613419021166 -0.2115233715274099 -0.5371132205846363
Ni 3.400621136600098 1.9685755199654833 3.4173983823693677 0.44727604791582964 0.6181700759576515 0.5373119668590036
Ni 7.321253240227642 5.712196695680557 8.019098783855808 -1.9730985045325242 -0.4045425136030452 0.8807501569515606
Ni 1.695567234336462 3.2515186620082694 5.136288847195003 2.7079645252230393 -0.2629914574997148 0.4602107536996268
Ni 9.10493985319772 6.235057340089227 6.596576605179092 0.42697847400905825 0.9203153208386924 -0.21805705888086963
Ni 3.9173044158468873 9.136405806991052 0.9510936147453128 0.06326225039375556 -0.44203948210723865 0.5277934858456071
Ni 4.698410178548298 5.637195025508255 7.092725660767235 -0.5278094266852071 -0.5829400491107638 0.2512836821444833
Ni 1.1515546297529584 2.2801555678255347 2.811463207542616 -0.7783544308914531 0.43605601083029416 -0.41848174939195665
Ni 8.324054710680665 7.126932820351152 0.6256963085893933 0.22226466920431398 0.0926982962666855 0.4219627659620217
Ni 5.786977745668506 0.6967222191895022 12.988179593329754 0.21382348041549626 0.05423819251827433 -0.44554595259860047
Ni 4.954688100197225 6.708756453417928 5.192593875994166 1.2999852395697742 0.3091998377349772 -2.1467608393481026
Ni 2.9531758252093914 0.9494849259010731 12.063246016944085 1.0988920622367526 -0.6830829745809526 -0.13588228785332726
Ni 5.451432830283121 1.1172573835937651 2.5314952743480292 0.5122683936268144 0.40701437218230546 -0.9024469251987038
Ni 0.07250590433680948 4.686928736454266 4.585892046026787 -0.9286174129464846 1.2599822168142751 0.21591430150625399
Ni 7.514966954597162 2.253855803349134 11.507010134896664 -1.287578895485621 -0.5562106035357195 -1.5638783829481517
Ni 2.779097307247279 6.952201634343663 3.310544673081117 1.2321700796980135 -0.6042336683822174 -1.6894330636232258
Ni 7.144554857576339 6.530624039568331 3.8746511802053285 1.000389243473148 -3.4133716172224893 0.5542982170043551
P 9.124850824835569 3.181379828399413 1.196807506566809 -0.2426969689167369 0.2796630046181248 1.5649677593575886
P 2.471525192736305 0.032484483644426916 2.765718531567812 -0.5887990789947021 -0.20378872188731356 -1.367397507576161
P 4.24572513777921 7.781227939588057 7.349592822158538 -0.26607729551389014 -0.1917186780966569 0.3051714333018744
P 2.3729539328689695 4.6345498276858175 13.137439259802935 0.757549835441276 0.5499659081775883 0.23776944970813246
P 6.752641485088791 -0.19406394891217985 1.2134367529624082 1.1037987555097506 0.716451008518437 1.11979358827611
P 7.183898790452605 6.618201060248748 10.347449750203998 -0.027947634252861543 0.2694842643129101 -2.527435802304931
P 3.175276003298983 1.6580801880118332 5.885241975779283 0.7625807129969641 -0.7673588511118977 0.014910341452929162
P 5.130706237280106 3.2531825058985975 2.482091061065272 0.6340175845128694 -1.1474694569248238 0.59298586338254
Ni 0.1788393176902941 -0.03158545639318888 2.688209145300033 0.26025220419168077 0.386418807419141 -0.09057379372451499
Ni 8.39424869933561 9.083980935684197 5.212869790186964 1.0335474753926714 0.0687906364111525 -1.149723285956007
Ni 8.920381876478846 2.254931326747854 5.032274703529528 -2.1982623496615044 -0.20758187038115863 -0.6171092387933049
Ni 1.6461942755798211 0.6977159292698583 4.733861084421503 -0.5494264907343506 -0.3709379381747225 -0.27417935579573427
Ni 4.134826725111156 2.3899968421102304 0.4677837346357391 1.8019967313552707 -0.5167138309926779 0.2828961668434418
Ni 6.248634673934612 4.99946480511318 1.8986784493086466 -0.669229356527312 1.043523869879093 -0.3425496168400165
Ni 6.892266484261127 3.2869373941045903 0.22110003325385846 -0.5851527404913663 0.17833737169374447 0.21870060600213947
Ni 8.453669068987988 1.4459538807565286 0.1415591027884962 -0.09128316108671376 -2.283978815293718 0.4819427460600796
Ni 2.9984397330324595 8.052783809003422 5.540815259472159 1.4219439753634737 1.6302431835266311 1.984386161631202
Ni 6.806307344932632 8.579284686453914 3.6024334502369055 -0.9873218687662286 2.7963441395097135 -1.0329810613662402
Ni 4.383272630215556 4.238748024449049 4.694090619188822 0.32016507849722925 -1.1724225273257356 -0.5576275384879041
Ni 6.179222048432583 8.005920404843794 8.339388732743958 -0.6191722919699207 1.9859221386597543 1.9296633161670254
Ni 6.255381974572737 3.468507805827019 6.55990033803196 -0.5611093263889175 0.2992671520022975 -0.07173660641335389
Ni 7.449507107398123 9.021471883450877 10.956990226543384 1.1466649587456574 0.023797873750546112 -0.4539310913385022
Ni 0.9148236564376977 1.542061548565257 6.997039929061083 0.7178100936494929 -0.0857303495892846 -0.14392007055613926
Ni 3.4621741680345552 3.4636265842482117 11.419652815149831 -0.8752215138238475 -1.151540284560088 0.0668024023365301
Ni 4.892712213409426 2.535698088859952 9.74210657287193 0.5004017240962156 -0.05373502762961069 -0.8608796432798788
Ni 5.191257285377294 6.192918884877825 9.47817588857826 0.09877227037490731 0.789905368953846 0.6266547163898949
Ni 0.8017052531645934 1.681346424953382 11.53553264773042 -0.12775785897397998 -1.016050861269805 -0.4995710006648042
Ni 1.937725464186804 2.508773233861218 13.592607196896761 -1.744868104663079 0.6545578705580662 0.5030731002807916
Ni 2.1264476468853393 6.818331144979864 7.4147778133779045 0.06364534476478717 -0.8407587041602876 1.2935734225061593
Ni 8.620807243650665 3.8902049032022075 6.849703335194845 0.2217591903228052 -1.0742179565288403 0.381328280270111
Ni 1.610132067945805 6.779980002933186 12.71530184130981 0.49560455981788837 0.49188237377129485 -0.5135865982176059
Ni 4.86215631787655 0.29762030569512243 10.783849344364771 1.0431261202200424 0.5863367334971386 -0.7169593156134233
P 2.0209911987646576 4.5618003218954515 3.411720170374585 0.3374462341751801 0.618246951942174 0.16452000619467794
P 6.626538664715751 1.463263372720549 5.167327349381149 1.1806176615420183 0.9234950041182546 -0.7823339843644913
P 1.4852886211251128 4.633042256426072 6.901192409219737 0.5243119550549099 -0.055390303844846535 0.7775499327122867
P 0.2219567749697622 8.531952464402538 6.979589791729537 0.9112784074474047 -0.056772014683721575 0.26210108447496144
P 7.178089125597978 5.458097398352115 13.24652582920699 -0.8749931998631253 -0.31313671089553813 -0.43500108720321856
P 9.189612041450825 8.464911505882304 12.581567401059694 -0.2612474782254146 0.7374083274963945 -1.5306121646958544
P 3.8697607661188393 7.909104913943601 12.474983951497276 -0.6491783514137077 0.46460399767131605 0.678092977565529
P 1.7453354709234017 6.727444821534155 9.836151441956957 0.40388045453901406 -2.8146555362243912 -0.1798234693209677
