# total energy = -340894.9893589482 ev
CRYSTAL
PRIMVEC
9.04594722059446 0.00000000000000 0.00000000000000

0.00000000000000 9.04594722059446 0.00000000000000

0.00000000000000 0.00000000000000 13.23965813570287

PRIMCOORD
 96 1
Ni 6.363941516478458 2.0303538235001675 11.372310743028349 1.3453592968291992 -0.014827551931135755 0.7255113189484924
Ni 4.749755544044451 0.37352344634729584 6.176525771315676 -0.24324101434566492 -0.5681037554288797 -1.4891094174663773
Ni 2.561776088999966 1.6688777697549213 4.653674014893921 1.0093058292364876 -0.9496796329334225 1.2793292538823193
Ni 3.1653216922502865 4.282161482629398 4.891921651668581 0.7113098306371298 0.33931465484248663 -0.19138340624442524
Ni 4.986587490068081 4.574074201707453 2.8673255736190866 -0.7060398404874421 -0.9569034043753714 -0.6621426248838596
Ni 7.025073620182788 6.031521045431654 2.413311288277166 1.0494587473062893 -0.33865105311655874 0.6910762771990743
Ni 5.141246050900976 4.860912144355301 11.471316826938034 -0.22472830025345814 -0.8319655313486898 -1.135731085441973
Ni 5.566468895205349 7.836757424649933 12.325989686715829 -0.026335552570735287 0.40843156424480626 0.4861932938063175
Ni 1.8341653186546496 6.457476611466591 0.45991495675978894 0.5327048071042955 0.8276476206996263 -0.17022554121988748
Ni 2.6666367099963346 1.5179009094694322 0.31683973143292 0.41538485563418787 -0.13491529595436766 0.3479129380344589
Ni 0.40361569460527724 9.133059763333648 4.612604509598407 0.5612728485499753 -0.8071885815143259 1.2397499489278005
Ni 8.660969866115007 2.1989702810029548 1.3882308734329807 -0.09316726548330406 0.933009114256277 -1.2029705753159219
Ni 7.056517332966032 0.4620796519465065 4.775452366513773 -0.8343497153101502 1.2853780311795606 0.1059065674268434
Ni 0.8027029879967189 7.4575151304253176 2.7633152716680645 0.6611100698542872 -0.7916776303629205 -0.7021009104443521
Ni 7.426035233852908 3.899346039224867 3.756818998303828 0.9639366570730687 -0.5026023312919602 -0.705971449143352
Ni 7.434357505360556 3.910942943651829 12.752743105301827 0.9787366982003789 -0.35274172688166994 -0.4024699473447326
Ni 8.098872793351692 8.97021462020247 6.8901695990438085 -0.20478528147262798 -0.010111120292072909 0.42430889759669504
Ni 6.744296462219857 0.6903649869696741 0.3554026047341208 0.3029348306618719 -0.62261782731636 -0.40685984888231225
Ni 1.9635585487039988 6.445038433941573 9.35050895809702 0.4081436006907423 0.7503067807256175 -0.6686133202098679
Ni 0.24103017016134762 4.832209353601206 1.2687746164827092 -0.9714252521406301 -0.3386824205751264 0.3598127747958384
Ni 6.5633865623487075 1.9196495205538633 6.934085863951777 -0.41569055980006475 0.6990682942656153 0.32293415660193414
Ni 3.5192715178494853 4.347147567967382 0.7585207722383973 -0.16060087364592987 0.19362180865664072 -0.6896117768384059
Ni 6.0091866015703665 5.75209173361507 4.677213378934359 -0.4175163001548939 0.9035627839707019 1.3538071704862362
Ni 5.349881779218803 2.9839775869091723 9.460516723101923 -0.045461217656592674 0.05543298415732389 -1.1440658305599134
P 0.2670508375436849 5.534138679587595 12.340076035837251 0.4523835443457241 0.2677976206391065 1.0636466087708973
P 3.8896306918344163 6.174030899052839 12.822357097273846 -0.9508610548360333 0.3695521135707893 -1.678431827416716
P 2.3772930399489014 8.616509035180126 1.4702504775197711 -0.4290934634695319 -0.8216834326963913 -0.9310920997392221
P 6.401237957158929 7.742055402461271 5.835246604086872 -0.6989603079328415 -0.4347869143098834 0.5710201577447263
P 4.654338892019805 0.95181457395082 12.572868966395486 0.310263246002485 -0.43348542188964057 -0.48956452427139563
P 3.997168913228898 6.176428075084933 8.409156022188151 0.1720317411906908 0.5313071554258204 -0.4727875619233729
P 4.75083201177207 1.0547031784377676 3.822316179663749 0.05972518377477455 -0.4954472083044177 0.22773751939342715
P 0.08820703203378108 5.477321084653313 3.5944478628106933 0.6990191861952348 -0.3544386549681186 -0.5167955920732068
Ni 1.3053301940800546 1.0775984710310913 2.6751263315288654 0.6852887239830198 -0.04144078364328992 -1.2412499305120945
Ni 1.8672644397921334 6.4830947341944825 4.864144261322347 0.29742469947692 0.0899731840260386 -0.253564250648544
Ni 6.093892852002561 5.6593255441466646 9.045969905790296 -0.2686489128958083 0.3433330319732603 0.9253315431063612
Ni 8.73684727199126 2.444811990528344 10.1639133017389 -0.47977582031574784 -0.1663550025208877 0.5867257414054412
Ni 2.3910700176729756 5.218444165081705 7.146383391732969 -0.62260985689656 0.16090015005390354 -0.28362841702377606
Ni 0.7073008094877384 -0.060209825168377286 9.007072332439332 0.8717127293396407 1.3984266089678237 -0.03311580871736232
Ni 1.2485759207768095 1.0242816576983966 11.405171051157355 1.0173680374193317 -0.673424368445266 -0.9396142782776205
Ni 4.16072868619606 6.762695919009593 1.749090898167715 -0.19005697412351785 1.0508527994403385 -0.46454383385734194
Ni 5.737419207109195 7.970248468822071 7.987459288137779 -0.5307489689295053 0.0009119702913081067 0.06279096718429186
Ni 5.2281052367884095 2.969721173978679 4.679888265548285 0.16050497149801388 -0.4537853097892572 0.5405045056543724
Ni 0.6966075951951394 7.333712295801758 6.814968830024915 0.6849007445159817 0.1826840786982144 0.294553291466396
Ni 4.897738195776645 4.738601891034744 6.964960586650423 0.9832803517070035 -0.831356179899465 -0.15134850180972642
Ni 8.369075238931535 7.3134131900809285 9.17736048100148 -1.7955455764132886 -0.32280354456134086 0.8927790630916366
Ni 4.876525449379432 0.41412165778895416 10.362998318906971 -0.8681121564725759 -0.4467713403652692 -0.5611247530078852
Ni 8.190553469145186 6.990165309587119 4.756148314994945 0.20981873013147737 0.6891286665544003 -0.297864615227816
Ni 7.50826289472739 6.114083406355899 6.998046138866971 -2.036199546758067 0.6294844725292063 0.2948196577539052
Ni 2.312478827609445 5.288396475482405 2.6820636685062733 -0.48072687137510756 -0.14197400257336193 0.29704546176063035
Ni 2.411658593707114 5.124574370043807 11.348942347391711 -0.14831382874846072 -0.17055181421105467 1.3354942311096614
Ni 1.0899733269250729 3.3197088746644536 3.7880917426832745 -1.199302125325399 0.9764304186647055 -0.2545510400418455
Ni 3.497687887613345 2.395909599473619 2.587148161961544 0.7916323789472818 0.8513439358753015 -0.0626762959832985
Ni 1.2303211991437286 3.419802281438506 8.356740185205632 -1.0298761971886714 0.18412286802727 -0.11207053014571022
Ni 3.75977611847323 2.5561404638377216 6.810308357980632 -0.766657454169499 0.909105568165802 -0.07812811176199448
Ni 3.979900199850528 6.8949114846137105 6.321234694723286 0.4068917305615121 0.666150203381356 -1.2805387008093883
Ni 0.9960854399925927 7.460789763344631 11.319643428711144 -0.7953411952574367 -0.2792331161695578 0.5005269368201702
P 0.24635009176313888 5.740603380555599 8.240177726793727 0.6971296824820059 -2.22395435511097 -1.3173674396019637
P 8.630168415589418 1.7171378985519907 8.117856618336422 -0.4346928119341804 -0.021088959459815294 -0.8736166312305729
P 1.9832877597454999 3.0304194803007656 10.54452696157282 -1.3528370932634832 1.4356219870711984 0.8331940044391521
P 4.014148156293959 6.254367956943518 3.84890131415704 -0.9590019387756128 0.058626551393957095 1.325090262167518
P 7.029307123514939 4.053271878327196 10.405881536634316 -0.45420722781802425 0.09328939288346513 0.2779455077063859
P 6.39221914770988 7.6571863249778405 10.157187639928098 -0.5265752971677898 0.06768891870654149 0.22566161070100488
P 2.284816320793805 8.578696975504071 5.697674028497071 0.399045495044216 -0.18751852397238025 0.10879803004202553
P 6.564083100290108 3.9602433563873545 1.5153580936859539 1.3624535333073244 -0.7484208765568142 0.9112899774116306
Ni 5.147921960001677 2.7373398340221815 0.4220314341001364 0.2856768149123725 0.017671192027517952 0.09117646030552039
Ni 1.4122623370060443 1.260227100887517 6.8457775173083375 -0.009140785959003613 -0.23382537745871987 0.8821784047576549
Ni 7.1099607895608 0.5403904176440189 9.268926273264382 -0.09846913731219172 0.8777689628360497 -0.477480596523668
Ni 2.776572107422911 1.6618400227625842 9.224890601852172 1.0368544282787175 -1.3924256541893827 -0.9086358276182351
Ni 6.47276426238825 1.7867193251137632 2.4839456631036017 -0.7117579739181419 0.6469744017838536 0.7533221705131736
Ni 4.154514120407197 6.980187629725233 10.522099344454439 -0.10999230746044285 -0.11783082966825513 -0.5811089094392959
Ni 8.280768701477554 7.146922530191508 0.3807276387697862 -0.7648193725194957 -0.7101201812044029 0.27779098440639255
Ni 7.612128461521757 3.84601113399759 8.197228473651158 0.5815441972045017 -0.10254407871251371 -0.2202368401410078
Ni 3.0074337282345325 8.349653590097924 12.378629863191161 0.6116345888319789 -0.0747234569558197 0.5791391873074347
Ni 0.09382185151725642 4.832326950915987 10.272479142745631 0.19134921057238014 0.1514094369546489 -0.16156915109647013
Ni 8.591062785450761 2.262843714824155 5.656789965121019 0.06572073923657713 1.2720761718643319 -0.15734200038899998
Ni 3.921626207402408 2.7486291762412525 11.487150853076063 -0.6641285449656369 0.0038623111688836716 0.10621458558556546
Ni 1.0508586508391258 2.998912445886484 12.648454188174243 -0.5644641017937634 2.0083676121474636 0.02660680395425095
Ni 2.8810437526857697 8.552219487783542 7.820812133360225 0.6831112567157267 -0.16867182357952243 0.7339031425566135
Ni 5.710995995072412 8.078908387680627 3.566711179227268 -1.6696774782628536 -0.8370820266396486 -0.21599503414551832
Ni 3.0437803444494578 8.347075495120011 3.5267805586956795 0.8220721834943777 0.15629736117456952 0.8791930968770858
Ni 3.346919084115547 4.27904967676132 9.285157416488483 0.6645453207880814 -0.17955221793745207 -0.27020083076396045
Ni 7.340433434638912 6.141139834703047 11.53348962266854 -0.043065977951538735 -0.22160492413312802 -0.7746397010440272
Ni 0.543922860061124 -0.0493555930139999 0.21924481530061998 0.5099011789462186 0.4173874878865135 0.6467602288905184
Ni 4.539048293797003 0.35179327176504294 1.5667815902506588 0.05086927604604142 -0.7595470683769628 0.0254822034315045
Ni 5.816779302692454 5.592331258510096 0.3155895815173146 0.7055217632004429 0.6480084994753228 0.6126771711638803
Ni 7.914335468616882 8.703938115746887 11.414226948990295 0.1900250924443179 -0.24844518425442372 0.3588966907394722
Ni 0.1018094229751406 4.890637127153271 6.031815943313337 0.5838988134796073 -1.2159811286429767 -1.0285685341208415
Ni 7.86840919422087 8.54150908619109 2.554711204165756 -0.21664937990006558 1.0444785204828786 -0.5888787831927019
P 8.41141931820034 1.6615776902911474 3.484678006219541 -0.27442335348574026 0.3030762413357425 0.4048903838607672
P 1.8174393621137348 3.2879123699368624 1.6037596135864898 -0.9040852321330751 -0.45288722345502 -0.4611965146516638
P 4.79291375856944 1.3023993071577957 8.165916831698361 0.6107275036366773 -1.2193616150794355 0.7473284148235839
P 8.386416319888232 1.56722846004683 12.317476545720343 -0.6268084683589399 0.5189776873261901 0.9199859625237318
P 6.217370032523647 7.6772140522799415 1.287928505276508 0.4582024650203463 0.7333899503656208 -0.08974229896215513
P 1.6795700794527915 3.3072887890340175 6.130729758560654 0.2526232268915133 -0.41129345917363364 -0.6400954152758331
P 6.813832659045175 4.08695898603859 5.847056992869899 0.5010378150183178 -0.7084201677941605 1.816799343585742
P 2.565846765280881 8.66757340763738 10.17225456973586 0.01312033943204192 -0.6287465659219171 -0.033221481057291176
