# total energy = -381163.987532985 ev
CRYSTAL
PRIMVEC
9.29438816247810 0.00000000000000 0.00000000000000

0.00000000000000 9.29438816247810 0.00000000000000

0.00000000000000 0.00000000000000 13.60327656693975

PRIMCOORD
 96 1
Ni 3.936749592329402 3.7943874505279434 12.0993525762415 1.473614921375204 -0.24551566931245458 -1.5122637440956535
Ni 0.10748866838935102 3.085662478354108 2.0380297285471958 -0.7465691680600561 -2.039811689589358 -0.4231896963905873
Ni 7.171930891285459 2.6766536377120116 1.5794083739192009 -0.27167124466189985 -0.2808022604288906 -0.7272771525996636
Ni 2.0688936029534175 1.5200878716123762 10.089795276054597 -1.2064374508185998 1.4282339221372435 0.4971657336574212
Ni 5.025354792988529 6.677041905037469 6.172241383370201 0.844120935764301 1.1275264381439936 -0.6915642725790864
Ni 5.5376242848948545 1.7539160862393333 4.290283019002028 -1.1972812382406282 0.593785733576016 1.6241938920087577
Ni 2.12996702684696 8.822307494618986 12.505056332492098 -0.3565996671751794 0.26924052373322016 -0.2407773832965208
Ni 0.6583177880094404 6.8151286283347385 7.4232669446870725 -0.797579340559336 0.28669445754360945 0.46743221114873046
Ni 9.254728898765546 6.944571570743103 5.179678812213665 1.0257336357752076 -1.1304451544526855 -0.9560168880053601
Ni 4.135844678803845 1.5130427254685161 11.184709507323818 0.7687253924421212 -0.5608187917316921 -0.6158429704863717
Ni 1.6182830813879465 4.667149077441867 6.944921969172684 -0.036936210904717034 0.24720539831005164 -3.3507961084831126
Ni 3.044339629072311 8.865321922526354 9.911686917802893 0.38091716087462135 -1.2469585508610979 2.596297401163335
Ni 5.9570056626036365 8.950988297207038 0.6964684626488898 1.468158012025691 0.042186146449746706 -2.5690539920663498
Ni 8.32560610270074 5.4209797148349015 11.3961308112336 1.1969356819757515 0.280433307125246 0.9939100635067077
Ni 8.57374767492868 1.4562818976313738 6.413387069710959 1.2740626061667413 -0.8892990749628361 -0.7216299816162153
Ni 4.437930879288992 8.622431679548125 12.365854282628518 1.3358367020507445 1.4440415785934613 -1.8908507141752016
Ni 6.918956237270176 5.048534996791679 9.756175075784634 -2.0905089588339094 0.12254417598352445 -0.2719661501944994
Ni 0.899179066075789 8.102550083826731 1.1694924010031718 -1.1264717716272343 -0.8302344075901958 -0.3636504033743737
Ni 7.825363548934461 5.171936586965861 6.691124761814747 1.3164241018520877 0.5836584153340272 0.7919805063153199
Ni 4.072456952285209 1.1124081284617997 8.735642902661453 1.1267502220996013 2.0438143829908477 -1.578358835952514
Ni 3.3871538380038904 5.721931999977634 7.94531970945755 1.4163577395249478 0.41625440272333475 0.7007631654695351
Ni 3.387135249227785 3.8035981890880555 0.5574718187612725 -0.23227731624530965 2.1619956540199867 2.2701622211255996
Ni 8.164525063361374 6.823651582178959 9.143184159430046 -0.1344563540400781 1.806853802337256 -0.07665101299583572
Ni 6.923036473625261 3.4987980272915524 11.756400810366742 -1.463707432453505 0.5296086846774749 0.886549280131841
P 5.257881793288123 2.307220301397826 6.93255578586872 -0.27346664599942583 0.652283729811909 0.8598833408048803
Ni 2.591730814075534 6.909922092083062 5.8114285919747894 -0.6959382332770659 -0.8568314413524339 -0.468912909459315
P 9.203721297132955 3.34387916723105 7.186774029005439 0.11511625895056948 0.8335650146253257 -0.8525173873581123
Ni 1.9892778748949667 3.5263465934794174 8.749192261564513 1.1559967776695446 -2.0732956802794162 0.5361670546212831
P 1.266388255328991 5.183312917942227 4.681540507902491 1.0998755091959445 0.916247578527222 -0.4630119705938478
P 5.922672193137385 8.723257201142577 4.590711100658595 -0.4660193899616038 -1.2269800508566417 -0.8841967207392644
P 0.6567451775509429 8.464873213280688 3.8799404336743857 0.24112833887803634 1.9717633306608684 -0.5307255718907377
Ni 3.6401842583474897 8.546859010292549 4.0245834183039495 0.24141707376304872 0.2694930060636585 -1.0694354475385324
Ni 6.957741718613617 6.142029045566465 4.6791323319580655 -0.6120737332519266 0.4674715490270981 -0.3219609940553875
Ni 2.0068349739263014 6.5513910729545595 9.530496180602187 -2.933999717213379 1.5217670556003986 1.005258141529675
Ni 2.630265346941555 2.0459550532396356 12.923275911694306 -1.983655968333397 -1.2957776292463297 -0.20620298775576099
Ni 4.046395488185758 4.6437458083254555 5.989699602017414 -2.2195086606347907 -0.7228527982797228 -0.9705677892363413
Ni 0.38532952820052324 7.490022027997161 11.429540418527427 -0.19719744182304103 -0.7279692935706817 0.5160278606692469
Ni 7.662358571268209 3.161922932325576 8.68882056396894 -2.3518577385238784 1.359393149214446 -1.402503607250675
Ni 5.011208734372493 3.3539449894920006 2.1000874281355064 0.04183236265475376 0.6152775849012048 -0.21705124332417458
Ni 7.821181074310797 1.9576583667400693 10.505660586763085 -0.42664397348777494 -1.2564178965017845 0.5312549620316463
Ni 3.218609405058297 2.5287055686909485 6.528076100524649 -0.647283191273524 -0.45709226267530306 -0.24846652441066241
Ni 2.499958026444301 8.019225894935298 7.9951627242671535 0.182691277787066 0.7286964015446934 -2.4850419107197523
Ni 7.704648036907475 7.86831291612546 6.480995377844274 -2.572205650321454 -0.5657817921639223 0.19679480706798363
Ni 7.3898842911186 0.4994302242504839 8.510835821078336 -0.9742007580032385 -1.149187725167511 0.39762110389286354
Ni 1.6663908339481315 0.827355752960626 5.052487900030442 -0.478710098055395 -0.0951596133229845 -0.5647780334897564
Ni 1.7427999981284403 1.040255794009575 7.591171923734648 1.216973574463233 -1.3277966053550876 -0.937987798417791
Ni 5.447942734575452 7.726647853427945 2.5493493339945474 -0.7549221680104419 -1.4535358912371419 0.5274795541496142
Ni 2.9956370356767605 4.898616517503467 10.2803636909296 0.9268454086477262 -2.0891059078387957 1.3621475720311316
Ni 6.359322543847872 7.159690182220204 12.598661044008496 2.3619382626883323 -0.3824811629276316 -0.6494035800506365
Ni 4.192066432133937 6.98460250008559 10.734644566337035 1.874895476397526 -0.8128115841280581 -1.40146591001478
Ni 5.956708242185955 4.682977420295421 0.1801661357665467 -0.6665255844429038 -1.2829624797595323 -2.050388179553624
Ni 7.951925231046523 7.900741036040933 3.140520744956886 -0.757357774035128 -0.7966403736848344 -0.016469458409932927
Ni 7.018722198626633 3.0800114904181357 5.815917781404188 -0.6748153352555216 1.2879133960069045 0.9082709880796487
Ni 0.6367009002767361 0.8020499226098502 0.13447957129406057 0.07943166106476643 2.0578544060236816 2.028732548957061
Ni 5.275215827006196 4.14420033366312 4.222334536265988 0.37115313950932205 0.42620457195751116 -0.1895286124238736
Ni 3.731631742396883 9.18206537297043 0.7159653004667994 -1.985090643897394 -0.3948556253325845 1.6944883666589463
P 7.180611849726575 1.382949175896471 12.957419775644286 0.43343734226052444 0.14737511898427522 0.011321595660406308
Ni 3.480432316499643 9.1334371346793 6.132697479961669 0.46261550648637745 1.1138270862800301 1.0943512369436057
P 7.692658276319639 6.8991498963301146 1.1096904493952235 -0.6352260029986737 1.5123038533049695 0.0790195132280123
Ni 1.168202339941473 5.94267371622655 1.0742741837208447 0.32461000164246034 -0.7693380863254558 -2.1893915295344355
P 2.465392197276733 6.761286238346107 11.904349808826613 -1.4215580527789646 -0.7109943562792399 0.1703013887631454
P 5.358670137330365 8.99221820260831 10.120497428108704 0.3555246889434458 0.6893235561740259 0.04753558368711813
P 5.741766224081852 6.423286522425768 8.32647048078963 0.7705567892239051 0.22626093484790064 0.17544770885077526
Ni 3.795316889333202 6.07921757110709 3.8924144318797613 2.0714583699603617 -1.398872438255991 0.11474576298502819
Ni 0.01862316534096643 1.7308567094808673 8.662457961696587 1.0360738413589512 0.11783622898489382 2.3328426308739565
Ni 0.12847539661209006 4.907604190750318 8.80697918984266 -0.5524776188558485 0.03185776794054514 0.9914361480449184
Ni 0.7136482095252896 8.697325858475862 9.525340583549418 -1.1654820914521606 0.8069556395679136 -0.7747554006862851
Ni 5.735418157041936 4.522221684537895 7.415663205821252 -0.12492758861403647 -1.1001112793558345 1.1103111027069716
Ni 7.593951875201176 8.806358324720748 11.10971401956631 -1.0561014494337875 0.3487778571379155 -0.807496856783364
Ni 3.088599504978725 2.711265938819842 4.004192460355381 -0.18550097932171924 0.25483180450705784 0.10505373250824487
Ni 4.389497823146968 6.493868105297105 13.248353639905135 -2.9321834899402472 -1.0910026321863469 1.3910465144536688
Ni 6.437804356563907 0.5278264386287445 2.61240060366568 1.287272677099112 0.5236136434363047 0.8190290257926798
Ni 6.380727519532977 0.6225343940069845 6.253263352341008 -0.3809696113791116 -0.2267183341002934 0.8365220403711207
Ni 1.7387755281016706 4.707895674664403 12.612073775407183 -0.39368320229103815 0.6611067274201775 -0.25103917023384503
Ni 5.025187494003582 3.4032888956631795 9.961053130505398 0.166539607727868 -0.01583773836320498 -0.5797655080375241
Ni 8.315205682469896 8.42566948447488 13.369110047239554 -0.302169413250757 0.7229029347913679 -0.40258179033224856
Ni 4.280911487528606 1.3199889912282539 2.5226326155373893 -1.4655285448226438 -1.7705706516355053 -0.7741956715280731
Ni 1.6955473292690935 4.381235112168219 2.5054110439147528 3.1764328909457684 0.014851463190535711 1.9611901831307126
Ni 4.807196916618231 8.336768662751897 7.845893922703818 1.7313451304759793 -0.11650388332671549 1.4035127652414796
Ni 6.408248202556684 5.370780724962885 2.1476310113408994 -0.5328755283542048 1.311135856869955 2.7779023878647577
Ni 8.261047283287478 4.94707745680965 0.8661672585906143 1.3159839289908755 -1.6886779306247561 -2.107845136119512
Ni 0.7110420631153446 3.525742458255999 10.78877229403888 -0.5284840841547285 -0.38552920572533605 0.005469764865319611
Ni 8.930317578178087 5.571204908928848 2.9747506868449896 -0.21048310318835362 0.05148196992937585 1.3240973021266293
Ni 0.17672163555425835 0.9753716710144726 11.594535324675737 1.0999649835859573 -0.5194271161587829 -0.7130697507510301
Ni 8.793309003894917 0.6629138629014442 2.513328003657945 1.0611976330097723 0.10460507500660049 -0.7472548812731711
Ni 0.6935574603108199 3.1611514981172113 4.854791618957914 -0.3220468689009744 -0.5315215854294717 0.448478295754047
Ni 4.932308674194092 1.8012524045911533 13.411892115445607 1.4642805313481557 0.4581965514830755 0.5159448140371372
Ni 1.9115396132231377 6.862018816060034 3.0949224771708996 -1.2783879730149725 0.9351487863070992 0.5341361402341833
P 7.367596348568498 4.214605323161458 3.7782012737343647 0.6254961773054196 -1.4223214133075504 0.17896652063731117
Ni 1.9379635584566397 0.2796625598694791 2.3462520840246603 0.9037844130632049 1.078981953576387 1.6549712824009306
P 2.488683933736514 2.230671721396728 1.627604423165885 -0.9591610900612966 0.543546892025122 0.28771081462326575
Ni 7.820307401833854 1.9079333906587344 4.133858468077007 1.2271119484488158 0.6002844539264823 -1.504682846424602
P 9.214967506676583 8.88062048526091 7.3760096286337 1.278550723845082 0.7383843182564187 1.4409925073544925
P 5.4081348705462275 5.320739739687762 11.672386977881809 1.3973655146931612 -0.968747448198151 -1.084106676397462
P 3.6078211991483857 6.473243858208417 1.6888879002294155 0.0692097262264421 0.06181497642426774 0.4390585451020439
Ni 8.949426840014203 3.139486279566633 12.987877485292612 -0.016529365113590887 -0.6398177361344142 0.21271610628393045
