# total energy = -340857.2481477759 ev
CRYSTAL
PRIMVEC
9.35871976875148 0.00000000000000 0.00000000000000

0.00000000000000 9.35871976875148 0.00000000000000

0.00000000000000 0.00000000000000 13.69743237546023

PRIMCOORD
 96 1
Ni 1.6005188666957688 3.424140249855559 10.985203294972917 1.1062132784885144 -0.32323086190674655 -0.023510681527430476
Ni 5.601408929132738 9.543554308661669 11.884659540813303 -0.3691145118127385 -0.20623769764843836 0.7777749042388993
Ni 6.606104912709168 1.3271506672782571 3.8064888672318866 1.135660637215354 -0.8971291125302162 1.4902694992127496
Ni 5.935056641472132 2.5228019655042906 12.139540525539633 0.15842957702622393 1.2243022469141625 0.8644560477772273
Ni 2.2494712009651656 5.267386868009478 2.459182325558371 -0.5799889369022398 1.8725364892470462 -0.03248460289126663
Ni 3.3687740647219058 2.9754645149540067 8.636573652265595 -0.5535268860559693 -0.09920395859568722 -0.8062182471812567
Ni 5.093932359005569 8.669627714008927 3.3548295725229296 1.1434032572752502 1.1133920556251407 -1.1621242307235211
Ni 4.12553884874446 5.415825519531599 9.438394120042197 -0.30756872988945744 -0.8736690817350631 -0.3428512072408353
Ni 8.126793901245698 8.299827267867757 0.09520625445649931 -0.8005458793868278 -0.20608471701034187 1.5158424625858473
Ni 1.1978973909292243 3.298564950308001 1.5508643081319382 0.3280614505261705 0.6408214948085803 1.087694136638404
Ni 8.892702154314158 7.484514334048697 8.059404569046256 -0.4161638998920575 -0.5734045988165029 -0.5538930111461364
Ni 6.8697868373441695 7.264649934565109 11.936599498702629 -2.0990856447593265 0.9465248893545248 1.7834115121539158
Ni 2.0301964008161657 1.4938575394529965 5.298755424353457 1.637489323566083 1.5198878362998147 -0.08495156244173112
Ni 2.9411648076323638 8.888612393850432 3.2245122097557606 0.32482108921200187 2.0925918095048672 1.2017243616136464
Ni 1.8131489759311628 0.5986464088216411 9.405505707635728 0.43056387736747137 -1.1686437770095939 1.3610335130313462
Ni 7.865554602425416 2.1219586464611058 8.004889091523937 0.8181350532235006 -1.6281528766565054 1.5180471835466502
Ni 4.325282001095298 7.715777654000977 12.589186759663358 -0.576512034097233 -0.16432537368536862 0.1969812120471769
Ni 1.9545124354382328 5.179583360753911 13.360489378707314 -1.4862783757754854 -0.5660995805146573 0.7446881489872595
Ni 9.230448985836874 1.4207472219641364 4.622677777205192 -2.524644098492407 -0.37716926379641497 0.646005610112681
Ni 5.080895662607467 4.03139012960238 6.782776949510397 -0.9301685594836885 -1.412566905023948 2.344966153610368
Ni 4.196842933351171 5.132630664537627 4.397231837354175 -1.6494814629309527 0.7538245640708888 -0.3584747727107052
Ni 5.981822163296483 9.016723906408675 5.42659366229948 0.6347012408434552 0.17439021412053837 0.9751654359093528
Ni 8.816550252956393 0.25713456440520016 9.23293185414586 0.1076456616051372 -0.9573556614214416 0.697491693807115
Ni 4.841995627464337 2.082998296780342 10.137414668281595 -0.7814886056450606 0.0067874552354786335 0.46269983867006764
P 1.9116775758444653 8.743121739001248 11.80289895880128 -0.22118969097258037 0.46322717192844737 -1.6290627900652845
P 6.4202594589593245 8.470286986600744 10.150961414897715 0.470096645354771 0.5213083923418956 -1.2034953374711401
P 7.784227329130717 0.3798648131953832 6.419890725407217 1.8009482354860984 1.1563898993429051 -1.9972856433016895
P 5.9414392882370315 8.69123699755754 0.3072673535404184 -0.8050010869447038 0.30368096479927703 -0.7304622351958645
P 0.19822891152010255 5.4003929909167585 7.278719833606679 0.38750329873257133 0.639551369846905 0.5795369369664858
P 6.427549901525097 5.374197934765797 7.878803741758363 -0.14642663902807684 -0.7244399402611846 2.432496789633185
P 7.756160529060429 7.58845227388885 3.3951413213134463 -0.797291377005272 -2.426704094210808 -0.13157157629311533
P 3.284452001156285 2.1550042853568 11.683717536482137 0.05815346841228049 -0.05804908162393229 1.3126106416432686
Ni 1.8369481998653887 7.323843836013782 7.065066816319375 -1.6462038206209455 0.6580396584590796 -0.3411033713117932
Ni 2.3775639960842168 0.8449080127994785 13.54696561015797 -0.21031803836539906 -0.25095303827794196 -0.722515212434646
Ni 9.04979762146316 3.4517016790676287 9.653813127717386 -1.183030898969201 0.490225297783846 -0.029159395172775587
Ni 7.042399061584382 1.2263572572225707 10.452510590764593 1.5582299264131227 0.8979266687308473 -0.6294163382954321
Ni 5.70718117801383 4.313134383058874 1.2251200344918964 1.0535475726636825 -0.08755840393695888 0.6284290346814982
Ni 0.16218754648152744 0.8473375364067632 11.69075810123468 0.290796395527125 0.7370720272028982 -0.02733365481794647
Ni 8.197630049872577 5.339065301400054 11.905849553723987 3.2388610754740026 -0.06737678678276139 0.15738416648084508
Ni 6.377125120338464 4.878616297245943 12.542149834970704 -3.5661077434083612 -1.2480795518394183 1.8227121095257515
Ni 7.826444513231107 6.023505900379865 0.7001501456947116 0.1412440663858729 -1.393104425423962 -0.9791280201015267
Ni 4.268025354603126 5.320871950504209 13.53109041410621 -0.5107840957718042 3.1973719550912807 0.600247944261592
Ni 4.7958009875353795 1.443292377472414 0.4456360227765673 1.018942323884987 -1.2472601412619164 0.8266785719181377
Ni 2.0579356457005717 7.634899599246916 13.501846287110666 -0.5933031375126427 -0.9458610305182806 0.5559570927640167
Ni 8.206633138124534 0.012813022999743753 2.624578976989583 0.7127337075678499 0.6032108835446579 -1.1244971643993666
Ni 3.7547183021672588 8.434583471339607 1.2574478595945298 1.6470114041239055 -0.5938901203643643 -1.2346630213231962
Ni 7.480798922368836 6.325464988165076 9.987578759923696 -0.35447902128775083 0.23069711624238334 -2.7443911434811894
Ni 8.402426910805593 7.22143136746788 5.321891115068281 0.7559156422719627 0.4884031569734428 1.3448281069160775
Ni 6.620966559428614 9.033129741861565 7.8582164303897 -1.4703707034062936 -1.009114796271604 2.489973543693415
Ni 4.815323276613946 7.031767556122611 7.984328920442105 -0.5727003736606265 1.6926258595289105 1.2644255972976093
Ni 4.26357060407513 4.177021165245512 11.608313396820144 -1.0810442354220544 -1.205728340566717 -1.1309107812351944
Ni 4.77792583310582 2.7381648208619 4.6131580876315015 0.32727572140008154 -0.5621351965502706 0.2726945437200916
Ni 1.0325475330959961 1.1126020205255545 2.6526719814747417 0.1618000361603536 -0.05245796068939998 -0.19243987253339762
Ni 6.304669913221368 4.739863920506333 5.197983539352842 2.429431777554616 0.3229508687724825 -1.2524450278969657
Ni 4.031202955210447 7.5994581281344855 5.645300388168964 -0.7338303803371492 -2.1776541864928496 0.09247769561544719
Ni 1.102363581286843 3.422876822710014 3.8568546884850616 -0.510104038985644 -0.9548501213907683 -0.6210191153706724
P 1.8496854172363997 6.742583120586797 4.727065871457944 1.6768914795127896 0.508454419197363 0.7249423338188998
P 1.1950897750502358 2.3093482889443933 8.513515848289531 -0.52723144269455 1.6765505512336032 -0.9661328933934393
P 8.596002666942253 2.879780965798079 11.743877257793182 0.1275763390907932 -0.5107840957718042 -0.31143772592656044
P 5.9706852869764955 2.5695581286090454 2.403953713602789 -1.949939549917558 0.824780069343844 -1.042139845047373
P 2.907155220618217 1.6554077571299937 1.829524863481343 1.0684502008071275 -0.20598110155294203 0.09636263249215017
P 5.027887874812164 6.205766964524201 11.196404327725906 0.29014539220668745 -0.5083019527798989 0.6387041913552614
P 4.228587710222934 6.074117855958431 2.0425882814340612 -1.3321137446732025 -1.1083827753360072 0.47084509348502135
P 0.36565078987202415 0.08606465715451282 0.8623891651340204 0.4965702661652674 0.23691995722364356 -0.432860643821448
Ni 0.2556624378126505 5.9097413049632515 3.7513837903749803 -1.142671007094916 -0.393461058977903 -1.6421463627221202
Ni 9.025549178988296 7.98001174309218 11.823746442574727 1.2353019404587757 -1.0014930180602881 -1.3432545917813705
Ni 7.416850791365074 5.094175685715083 3.046295048349128 -0.12595294455475728 0.032155244576305905 -0.32581507769415496
Ni 3.6277391946802062 3.5277131996314437 2.6543846271609244 0.9508232596195626 -1.1501986829305288 -0.29892262417868515
Ni 3.4785799217491453 3.2608493103335885 0.2099675535101534 -1.3034004358989102 -0.509446093686671 -0.7150417868757364
Ni 7.373154929568417 2.7221239754732793 5.977928935944285 -2.0504079770479655 -0.7141580987192022 -0.9530482922953393
Ni 2.7297513319445312 0.28322199528080144 7.205671283667158 1.768466460808309 -0.8740323786117528 0.5298223433501779
Ni 1.204822843430729 8.795801971610668 4.499935362079533 -1.8573356131368914 -1.0207870904032097 1.5802647947259751
Ni 6.4300206034986065 6.801215498859674 6.498692080282786 0.8929266444130946 1.4741162864916548 -1.5754450047398287
Ni 1.4891875383742788 4.6850873347072675 5.574251796607241 -2.333711149521839 3.773117286225818 0.4860426271610661
Ni 1.387832605142795 7.795635608319007 2.076887052883744 -1.6064705065870655 -0.6583862431652209 -0.33892101894849375
Ni 0.5033110040347083 0.3959824000846964 7.093982452257077 -1.1400759926742299 -0.06886699817504269 -0.5350807635356397
Ni 1.184083920804601 7.525561678199509 10.061996490540206 -1.4912354626704447 0.041727204535457176 -0.6988703193221965
Ni 4.0877764151720655 9.218151628286906 9.950156983744622 1.0056119253246683 -0.49682789070202815 0.10971617098092072
Ni 4.763859677552087 1.5258830779126584 6.90431396155201 0.6908680178430102 0.2501667949312208 -0.16485039295090317
Ni 6.005190886129264 6.955465915251301 1.7292733232903013 1.1080616445511626 1.363130504769691 -0.24221874372873767
Ni 7.2406167426409676 1.1873875488222105 13.496436011311856 0.2966849930974181 -1.0895239907582914 -0.004764511268178891
Ni 5.869714061248473 6.789535816803082 4.18582584864202 0.8121343555553754 -0.49969132829275237 0.03216630031989944
Ni 2.604849860207931 6.177653370855929 11.342268395486995 1.617150354898415 0.15448987565218555 0.12786610241707008
Ni 0.3042210903117159 2.935989435695429 6.509157000535736 0.5212186608415669 -0.009326419607248455 1.0258017700089819
Ni 1.0496271963598427 2.847643122703258 13.184627807023153 -0.8841486411101483 -0.5821856874432425 -1.9074153034021022
Ni 1.7084810559624724 4.6561314562753 8.936013372735394 -0.7465732818251142 1.2693006660017236 -0.6992811816073699
Ni 3.249085399800627 5.631291320804771 6.962555145345747 0.6916030962368218 -1.6596203511371677 0.264561373089996
Ni 8.172062027934588 2.3263062888534836 1.849564689753603 0.587637197476117 -0.491011026909935 2.941641035808721
P 2.876439902902083 7.864927568212442 8.91090579980156 0.8108444330993584 -0.49727037755608544 -1.4996789654521077
P 7.840192472318553 3.230826537867605 13.820845731537418 -0.5514147248089729 2.6471908455790922 -2.138225805293898
P 0.474941917321449 5.832868782196548 1.244690053040406 0.9525440989654111 0.06515638209267488 0.24608002645635685
P 0.6502410299578527 5.47649809867654 11.061019218297162 1.5194921435232929 0.2649136142230922 -1.562732956489799
P 8.146793485023693 3.300923347646351 4.155691707412837 0.6311698306514291 0.9514305541862582 -1.2263264764330426
P 3.8226064541212 0.2097532388313906 5.215694916189462 0.2328002786283152 2.302650937781925 -0.13677960285661603
P 3.1192144479582167 3.6649681812355936 5.713116477982012 2.785381469850622 -2.5822920880231783 0.57019174830616
P 6.246149839583651 3.0036436196594543 8.933245999350671 -0.12853484634932055 0.5065281487089276 -1.0469151549488294
