# total energy = -340888.64120228076 ev
CRYSTAL
PRIMVEC
9.09063537092825 0.00000000000000 0.00000000000000
0.00000000000000 9.09063537092825 0.00000000000000
0.00000000000000 0.00000000000000 13.30506376086072
PRIMCOORD
 96 1
Ni 5.10626436250811 3.045253720394417 9.536005468001017 0.20320328169748875 -0.13898458092773483 -1.6383946089891717
Ni 4.899406957444122 0.5365829270738917 6.222432557632148 -1.1312465673080583 0.17683250501344383 0.04896768814795438
Ni 2.91671213799034 1.703066879231051 5.011379038982011 0.6060894906440336 -0.809130278621729 0.18178007882670627
Ni 3.862429104090833 3.0093638924360513 2.778895380442919 -0.696800067056729 -1.3857497848311038 -0.13819859469132975
Ni 5.60201306511235 3.106315517353978 0.5358211318401249 -0.4787772038479045 1.0920655262332224 -0.8674233579356674
Ni 5.39857373890154 4.677004566106374 2.840737153906742 -0.4252586631044741 -0.030621324430282745 0.25525449386677335
Ni 4.928487899601876 5.072438108750997 11.604117714370302 1.1901816510813694 -0.7534720658274765 -0.43638588336588713
Ni 5.7091189296020834 7.9310610875078105 12.726013918763988 -2.4706223928603124 1.42128474451292 -0.8436344830461858
Ni 2.351447347646073 5.660984015964913 11.388775110366005 -0.9214039259171809 -0.5521942832874749 0.7605798805168514
Ni 0.27275178372128533 7.74820295949805 11.453930420377656 0.9769919475951303 0.16052502610267194 0.07229942089535935
Ni 7.8323549699870565 0.04027696852896075 7.080782155556484 0.39559713148429937 -0.14941066135706527 0.45021276194665044
Ni 8.888277707196789 2.586267546732333 1.5848195321815972 0.404816078979406 0.047188998980976796 1.2249000283991613
Ni 1.9175240553622102 1.276388823239695 2.7954339731492652 -0.8951218522922003 -0.5548322351309541 -0.16974654470093992
Ni 1.9443596106137542 6.4861591586794045 0.5784798468040128 0.5468052510614195 -0.00413947608967029 0.17134499953631135
Ni 7.612279781272749 3.917881979102493 4.134814535211632 0.7466838392610495 0.1350752185709996 -0.252322664931959
Ni 7.767166024624989 4.148256857552573 12.429151043174926 0.20472228944517645 -0.35072803888575077 0.4987379632405475
Ni 6.588901518250188 0.8610231537507177 9.400333191308556 1.0365700642690792 0.4433144921649204 0.18801808931661815
Ni 7.102331506411424 0.9154996945367625 0.4990276947381262 -2.0389938216737526 -0.040190970396588845 -0.05335553280300489
Ni 1.79340052168857 7.057369224475741 9.370157736666965 0.6844736842808922 0.05934003252121393 0.4267897550370198
Ni 0.12449079533765182 4.96937757694654 2.0092240202974754 0.41105948878595655 0.03002045762149023 -0.6195160484625847
Ni 6.475350393369754 2.1691073858454377 7.36471178437848 -0.8611748059227944 -0.08125225921327298 -0.26417750738801604
Ni 3.57208330491093 4.413521594083759 0.5592876976688298 0.12526723134164233 0.22467559263865175 -0.08101726038433145
Ni 6.057635703732742 5.836124194649281 5.0660755731410525 -0.32886003516806595 -0.19788084104331083 0.00873455165952044
Ni 6.048308711968486 2.625666359896355 11.48163140410479 1.3263722142037353 -0.7671094541052531 1.2926084874897288
P 0.3595600778297023 5.788343815786774 12.615980869724456 -0.8379839696286278 -0.29333690256079165 -1.1356580661121924
P 3.8778286402006286 6.390262047450224 12.891436208368443 0.7866776060451678 0.7000064898091687 -0.2319165904717812
P 2.0216391008554138 8.580259713095137 1.3617862507576513 0.05429629944971939 -0.4339173672207366 1.2254319896432313
P 6.193895235462213 7.904207350985771 5.814672113591491 0.4428807470616114 -0.2493640965242673 0.888236952246909
P 4.74182988605853 1.3887308936321694 12.922503454327842 0.25197119512981125 -1.0185800554495619 -0.3283617553754087
P 3.9566171758934248 6.450587502954712 8.375111347457738 0.9196746019309 2.3676155155787675 -0.2655579326753104
P 4.987713388241378 1.2675981789550599 3.676375617791466 -0.5445401091763267 -1.076300807199798 0.029629135720342523
P 0.08610831519433532 5.603094850706839 4.07128281265524 0.37091994045259347 0.6079699954961981 0.18398865644225088
Ni 0.39304543276502185 0.286271376461833 4.982719902299754 1.2347571236988992 0.047795779327040266 0.22668902352425474
Ni 1.9687225130778936 6.657872167875347 5.098460052147862 -1.1373177132028027 -0.8140012335607851 -0.17366310614652672
Ni 8.297195512748731 7.726849057300938 9.052791842339987 -1.4930501472816804 0.24566607884738983 1.5543627301482328
Ni 8.49448047889677 2.6593653447599985 10.353787197068462 -0.074234176024227 0.7069656947358213 0.3913733232109389
Ni 3.421842376170323 4.28332551606458 4.958385180804884 0.8703346180451914 0.3915964949653385 0.3979260367277921
Ni 1.4812371979139156 1.1597741542807485 7.355398428567096 -0.38504198167627235 0.8995117538297799 -0.5780526391114754
Ni 1.4316296013665994 1.6024880908492467 11.814564102230124 0.26615185750556747 0.1271032561091166 -1.776306011457386
Ni 3.9300361584288193 6.864002322119509 1.8032484068525256 1.206690190259354 0.56641685464476 -0.626850891561101
Ni 5.57511387541407 8.222115956237044 8.163428633204212 0.8026035332468049 -1.5748143131343653 -0.07861687847295493
Ni 6.955890463204404 0.684603922686983 4.971822957828201 0.12151984848406812 1.1179868740846746 -1.2853374077496122
Ni 0.9104725732447218 7.780301992558079 7.300408266889549 -0.06094260112164344 0.9578781095838149 -1.646404880888158
Ni 4.902097785477475 4.797037313918499 7.240868242270473 1.3157998380045275 0.8059020014924185 -0.2583786413180518
Ni 0.4209809548815515 0.5354138713810229 9.567285434825218 0.060243003951457534 0.008837138675655748 0.05694864947090191
Ni 4.453493117268393 0.678056847181508 10.820090423041512 0.5072879096930876 -0.5230729404414862 0.2536295566688406
Ni 8.172062918562585 7.418176537461443 4.991794174404123 0.20511258290505965 -0.1497814144329227 0.5082515591579375
Ni 7.379523156387743 6.454078306889872 7.262608496465618 -1.2720576599215705 0.5295541772904557 -1.8873702118257691
Ni 2.500970116202103 5.189325496767378 2.7269396728110924 -1.1603563401898211 0.2556332173624307 0.6672226105099284
Ni 3.586664683848422 4.711848971011242 9.376836626383533 -1.1814555840622813 -0.5620182113564322 1.1205114402787413
Ni 1.379803889818817 3.2231756334646153 4.074861795752304 -1.7055194276621273 0.9941774582354813 -0.4393909887407982
Ni 0.2994173440936955 0.24114091777406482 13.352030515405865 1.221372474861877 -2.249629905500203 1.1636185558808605
Ni 2.392827919294118 5.497652572467454 7.260466742801233 -0.7057853012744749 0.2725654743413951 -0.38430741750309294
Ni 5.36893826799367 2.7488353768689753 5.188202803314273 -0.8812417518759985 -0.1677382560216595 -0.9103445827792257
Ni 4.073050032147415 7.034215376499561 6.036600882832827 0.9214754025850647 0.357214675051359 -0.002178495708557538
Ni 0.7769565952330411 7.418285625084417 3.139183618155971 -0.05880935682872452 0.6764233031725899 -1.251712006385683
P 0.13360779342768359 6.005355460422569 8.20841273266449 1.0329070135951954 -1.3650724589874104 0.5300712261361904
P 8.487589777378929 1.9071516405444553 8.249791486185485 0.0011868212192495688 0.18883929966633284 -0.22641108727251974
P 1.8833069042894415 3.6559080525310153 10.585774754211505 -0.4081330591677809 -0.4409699031921438 0.2535686215239181
P 4.092303997602283 6.016191497637962 3.8809003658508647 0.16231528523387528 2.3948717801915596 0.9191182152067976
P 6.833703234838548 4.49715543836364 10.379492786358703 0.8576403104069746 -2.4510974354535078 2.606337044787524
P 6.3928983316720895 7.880080805038076 10.616043842396147 -0.9510109501503363 0.36927186332620915 -2.1276251469599163
P 2.480379827365806 8.740091262022187 5.80989589383229 -0.29167571280828475 0.28128974158827036 -0.24157725348999687
P 7.183192706940722 4.2909707403079915 1.7557498376827025 0.363336985899013 0.5289455971721794 -0.8982454855228466
Ni 2.753980676419238 1.386312784656251 0.5336193799831046 -0.4309243460306837 2.16386690290077 0.36063115693207565
Ni 1.2287084413649152 3.7678410443373376 8.480301815100757 -1.0198908038411854 -0.5268864006503055 -0.10979536095828832
Ni 7.617079636683594 0.32589654644352556 11.386167007113407 1.0913476742305914 0.7157619528712125 1.3361616894903312
Ni 2.757907830846293 1.845435317847052 9.579365980006036 -0.48775189654268897 0.18399225598667668 -0.88187655724652
Ni 6.520149043870978 2.4004185997260423 2.459813174181154 0.4400697599753776 -1.8554877612948755 2.1121656178717365
Ni 4.064350294215258 7.233818454635793 10.617760154330934 0.6615877808216543 0.3880308891012672 -0.4284033793810428
Ni 7.276917156345675 6.449842070864391 11.9078858364936 0.5219632523170752 -0.7704310622793182 0.005159946934384662
Ni 7.506810231127621 4.210464074553358 8.302918067637231 1.4612096057323158 -0.9014477945102282 -0.451765451145751
Ni 3.057698800048674 8.61528593070496 12.519798312548494 0.047376432401434534 -1.2478831195578959 0.4739221897484483
Ni 8.971684285595472 5.570523104613924 10.389325217442739 0.0648265095570819 -1.52095073034669 -0.6407294493154062
Ni 8.600204566828838 2.5869038911996802 6.058780214710442 0.6929148730697099 -0.16781744599902712 0.04579186152313404
Ni 3.6126911725629114 3.0201362952047095 11.836370718062579 -0.35051412310273183 -0.0719896029644244 -0.17276270581944442
Ni 1.0782038842021215 3.6822981666554164 12.923859777106816 0.5842019465423229 0.6845418185146662 0.014335699896381763
Ni 3.2843556086823975 8.58153240202983 7.849255369976266 -1.3429221481426163 -0.11906135964124658 0.9997721787144395
Ni 5.592276994761941 8.162181398048212 3.497768270823583 0.3353369011416612 -0.3891387774534653 0.5421217295428211
Ni 3.140123589840595 8.163245002372205 3.6033169094953665 -0.30558255269736406 1.007333021780833 0.42428627188887574
Ni 3.7650411286810113 2.8865948634143352 7.161424271776309 -1.0736805959681317 -1.6292803053927294 0.592717954433134
Ni 6.1814956089841955 5.920858005794146 9.166602959388507 -2.2027512386707935 3.006325877581616 0.4677721109866525
Ni 7.825000646071575 9.123906972820103 2.69342340971593 0.6680170813867656 -0.4687339606792895 0.1352366838495284
Ni 4.681777149611476 9.364990619592108 1.6039116843290544 0.48517179452033865 0.27170184078951914 -0.23876086708712432
Ni 5.9656112031191295 5.803779714437561 0.7009670661330466 0.041044319535819634 0.04806600226929141 -0.5506135690639163
Ni 8.823734196937314 7.149848256851744 0.7903434646989707 -1.937462243386154 0.8641909670412987 1.0296481403382656
Ni 9.131270387370831 5.115682260624843 6.199734150481883 0.09641662565853718 -0.7881734738644038 -0.2993815660929747
Ni 7.215773543668885 6.333800111926057 3.037852125175648 0.8588335593841273 0.02406783958248113 -1.7515678852807575
P 8.741045778723207 1.799763966362039 3.6554735201661694 -0.554096128295878 0.11145757915205966 0.7923494596189644
P 1.9271237661839007 3.435669232382247 1.6498148470128866 0.253568364413602 -1.3068958506466781 0.5709569086069587
P 4.613906466851304 1.1246388490479509 8.571228166976434 0.07402103157215638 0.8082519897818338 -1.2537022973428344
P 8.618622193840908 2.033629648747279 12.907494815533704 -0.7498339548542571 2.0409123788527044 -3.5126036008426347
P 6.688680330730185 7.915507010598803 1.221256847652283 0.5673236827297455 -0.6286604339660141 2.258682759731091
P 1.8149725991316303 3.660289738720461 6.191804389355216 -0.3664631902328205 -1.423555799935284 0.7008076455542253
P 6.688489427389981 4.004106654428001 6.148509329923981 1.5626226561641798 1.2358747822431102 1.060961091518934
P 2.174025419514505 8.963302719896989 10.565617179613001 0.8754451997988794 -0.7429516259121269 -0.0702206839894597
