# total energy = -340898.3803153447 ev
CRYSTAL
PRIMVEC
9.00506060999394 0.00000000000000 0.00000000000000

0.00000000000000 9.00506060999394 0.00000000000000

0.00000000000000 0.00000000000000 13.17981644820856

PRIMCOORD
 96 1
Ni 6.417798496274841 2.108823057852293 11.375828972633279 -0.880063415297181 -0.6398411331731819 0.05971798468592296
Ni 4.5906357180490955 0.42222206863948564 6.037594940032741 -0.4476632560519193 -0.30718769240095484 -0.043804655889776174
Ni 2.65096371501185 1.506411531342378 4.68808668083644 0.4774152905033714 -0.38576369033364527 0.11125163378884066
Ni 3.2903590246417287 4.381187017881762 4.799377520973936 0.9021887864413107 -0.7605798805168514 0.10560523413634071
Ni 5.014927149571699 4.71301448907425 2.556225076421178 -0.2152815530182615 -1.2610330266762928 0.0661187460059442
Ni 7.214467186033809 6.0046193093030125 2.6566684207840674 -0.06254259861891165 -0.5803969709739358 -0.3985909240053006
Ni 5.165077526913379 4.589041822355832 11.314621576999873 -0.1012973507896062 -0.40063032303283264 0.13097250925653572
Ni 5.564920219412194 7.76661246531323 12.287371616068441 0.40447695047243243 -0.11565464795254274 0.241553599340913
Ni 1.93317935447881 6.19413080571393 0.3443012808778478 0.24807674517141146 1.6147175770872062 1.071708045622793
Ni 2.6284510639770535 1.508419659814682 0.40292242316037524 -0.0363541131490019 0.934652563396971 -0.7955227151406234
Ni 0.4952134863305445 8.900871864929593 4.737484840243032 0.38815815870775083 0.5136259360959735 -0.08675904796411511
Ni 8.405044233478819 2.208842263869687 1.5006536957137186 0.841615395733628 0.9028400468720645 -0.5243219823572389
Ni 6.747032510068121 0.7380232338133224 4.804122287306029 0.08634587168609646 -0.3239137469063841 -0.19861514810617406
Ni 0.6053219620356931 7.271027970493631 2.587646433723464 1.0752656810670642 0.0001984891640512711 -0.3551377379176722
Ni 7.280141091632517 3.6769552732716693 3.985549688596247 1.0723130261966436 0.725716492980763 -0.1753500069306464
Ni 7.616074870373752 3.851545384576724 12.520838613371778 0.5834326724764661 0.11220679861325836 0.4265131043368655
Ni 7.836725865696 8.803536166915546 6.838585158284348 0.1926051944666683 0.08859250162842806 0.15975523781618295
Ni 6.744880300629194 0.5919566513693552 0.3379067874779241 0.014813667974064812 0.06134086500132662 0.1796776877717228
Ni 1.779661084542325 6.6334426780069515 9.196862797698849 0.5740774565138113 -0.5115705962288415 -0.3766504151784675
Ni 0.2284466761225776 4.8661725565941785 1.4926797147171937 -1.3331565841154203 -0.7888545590918284 -0.566138918393025
Ni 6.425164635693426 1.9289649862050962 7.037968902427045 -0.17247885603043844 0.7946976481361668 -0.26367100006524263
Ni 3.234563670317089 4.158455853603899 0.46862424444636697 0.4706946839500862 -0.3793999528991466 -0.026950817557231006
Ni 5.819475267192845 5.6746198653745505 4.744509687871931 1.231651745300698 -0.4799231445268895 -0.017858625447975694
Ni 5.32724965990764 3.027177128984543 9.175814369487355 0.2585609325321869 -0.3401880585863754 -0.022728551945767308
P 0.25136725639412466 5.499093227786449 12.371273564957004 -0.6687051085927257 -0.31745102200017583 -0.10777421676320148
P 3.9714837842297057 5.959909184347906 12.604187651550925 0.5577578934181814 0.1596775905007121 -0.2258109917946756
P 2.2224128899134623 8.301702160168688 1.2971717485766476 0.13225651817528192 -0.08704778284912751 0.18817724060230173
P 6.296212170566112 7.6813435482538335 5.684638895591077 -0.39593394599842785 0.7798209881346505 0.0336948211492839
P 4.772691024437289 0.9863873025594051 12.445106955796764 -0.38983888884428347 0.6387008489211516 1.2267553364403454
P 4.060732937992054 6.295347684766376 8.141027568721263 -0.6148147863321735 -0.4781128307910282 0.5375068564786292
P 4.6873230517133395 1.0608501471220981 3.595730528844165 -0.7105014758032215 -0.9121903777387129 0.8606107058892082
P 0.12865529813365548 5.43567058729122 3.641978718117968 0.6416442478201917 -0.39018598777105706 0.5223589450935971
Ni 1.4115252097609177 1.0340600923906904 2.5491344918512584 -0.524907936767696 0.5078309266807511 0.3420775622996044
Ni 1.8841648106458508 6.375492722450252 4.868241919477296 -0.3356359204393188 1.0375383417196196 0.0753322941844122
Ni 6.029113073628872 5.507026686011111 9.053044778840237 -0.10342468154525415 0.8675493419905704 0.39053462935972744
Ni 8.54972853914925 2.1777207750791843 10.24146871634028 0.9641307753617461 1.2105224195212507 -0.7605695961042063
Ni 2.4696468235775986 5.125599342058759 7.076612318181294 -1.1086895079431487 0.24942837410329946 -0.33651832304427204
Ni 0.6964252577372666 0.18919631929643044 9.171095717830463 0.03406351734261231 -0.9193295598866553 -0.039945172934369916
Ni 1.538424521113859 1.099049613397941 11.332901849640129 -0.11960463373922628 0.23905371573719475 0.44545699242921993
Ni 4.2361425097947745 6.743835713621179 1.4942745109164988 -0.3569855897596884 0.5726368674125428 0.025804105547297496
Ni 5.67066664385284 7.7713671372117785 7.8854972728977835 -0.2747902499068558 0.8620561800864831 0.6038423464810697
Ni 5.134154149451982 2.7055253760597835 5.037470417811904 -0.09710979507081986 0.5150945502217 -0.44125015343672397
Ni 0.7196060842547759 7.423420607878377 6.932425091845712 0.7061200589060742 -0.08974898383037445 0.03515160820046849
Ni 4.951783665949302 4.759318509722619 6.834248321189006 -0.04710081014254469 -0.48601203103344687 0.6397866257861627
Ni 8.276109778472332 7.174610788641805 9.120761932646865 -0.2258189622144756 0.3371302455966581 0.1870115024289747
Ni 4.714176141867646 0.3815363051833599 10.342057042175833 -0.8368966501017199 -1.0293727751896917 0.11807199914478374
Ni 8.157909355479235 7.032546955551824 4.683091573824839 -0.4831287959483808 0.28743930612943397 0.5999844061875603
Ni 7.351488185291995 6.296212170566112 6.997783820329933 0.2338037801921651 -1.4829997050242136 -0.4588190155584227
Ni 2.323386632334732 5.236217504183336 2.7069625837018445 0.35502409515794336 0.017880736935162754 -0.737375160265614
Ni 2.27801913796941 5.247212682948731 11.31335636601172 0.22848391064114842 -0.6451005817999083 -0.3027358272771883
Ni 1.0864605389392827 3.399464336616767 3.836117014569557 -0.6962290250446073 -0.33533741536229345 0.06664787903653682
Ni 3.528020579085869 2.608153657804081 2.5794878489884536 0.26793646020981593 0.6019628700701698 -0.09219564559865412
Ni 1.104704791337882 3.1909161424908254 8.299554453259969 -0.24329757861521326 0.49120360253671524 -0.7207144117804813
Ni 3.643195301779888 2.780456483764 7.105357371528564 0.47429114305209286 -0.3827709262539085 0.1426113790470447
Ni 4.168163308730103 6.920920226660889 5.92292990375815 -0.8626984416561724 1.0163455096920881 0.3836350740264167
Ni 0.90861059576439 7.366004342679231 11.456687211101938 -0.45723753000391576 0.40591085470548155 0.12424856026914086
P 0.3014074766082291 5.51403262301314 7.968516725865783 0.6127900425926608 0.28524821201538614 0.12745215480810307
P 8.454319924063782 1.5301668807142954 7.992780861151085 0.3470739870729313 1.0276120837448433 -0.3831239387179531
P 1.789854812930881 3.284532750553923 10.336692727687263 0.22141697649203804 -0.4778194679203254 0.2507357800608133
P 3.9705292478258305 6.273033145060686 3.802864928485121 -0.8645912878035109 -0.388516313378118 -0.8787045872764415
P 7.073510975374741 3.945279058425203 10.31244209999258 -1.1640129631058018 0.39517624189679684 -0.5314938175153299
P 6.4071545148655895 7.825334464272394 10.076681513801818 -0.2409823002184753 -0.85711529114144 0.9537046949324156
P 2.3667369931673363 8.477255812938033 5.815975900715997 0.5989788477411813 -0.36805007510396615 -0.26136729163273054
P 6.915463160050055 3.9329241155373067 1.5983694072772325 0.08706989433631457 -0.010467475190227135 0.5097911357309156
Ni 5.282125302173493 2.9583694623617904 0.5021194671619787 0.0036864477126517157 -0.7100178512985836 -0.5486667297501906
Ni 1.551265737264107 1.112233021843918 7.005006779287937 -0.47815216866939597 0.10559109306895362 -0.3651912654989323
Ni 6.772390760193716 0.7653157709158269 9.15853545956513 0.26992366584317384 -0.20443972520775114 0.17628923091546414
Ni 2.8041668078338478 1.5847825721247122 9.119022154974896 -0.11444160148104805 -0.1475944340839329 0.5846102377243351
Ni 6.370792080914186 1.955737030815676 2.6638382498856297 -0.6645278372865846 -0.13675697714879675 -0.7712898107351879
Ni 4.064190881190998 6.779360676954089 10.507569152077616 0.6113846776047019 0.119995955640374 -0.9378903536079782
Ni 8.285754198175638 7.046198627139326 0.42744680469164126 -0.014182462147969123 0.090163959880606 -0.25508505816844457
Ni 7.743388414505734 3.9593359577313296 8.023674521913117 -0.043506922143699264 -0.7174768786797902 0.3260953279387352
Ni 3.1762018737744824 8.292147791069521 12.408164595954705 -0.22339466904369917 -0.08413009498170027 0.5353083061654136
Ni 0.023840897445849576 4.919275397855055 10.152676119140919 0.4063289160795067 -0.7447786518185366 -0.2603367934856871
Ni 8.586469185638038 2.310311284613722 5.764627245223751 0.3388919654827712 0.4855014099456155 0.8989774785928647
Ni 3.653307984624719 2.579598611231545 11.197268530191728 0.5252308673247535 0.4278943009551083 1.065883725631532
Ni 1.0785631009562762 3.393169799387438 12.523540131495954 -0.236786774079889 -0.48117398621485513 0.10869904257031601
Ni 3.1696551948535636 8.369294143635562 8.00888641170138 0.11428270730568059 -0.16870036282461268 0.011970799208630997
Ni 5.595447374215378 7.912539469320781 3.5544513319067614 -0.66462245388292 0.16328433401536396 -0.6070932493181995
Ni 2.847220001672793 8.21546069658459 3.444756188474612 0.9673227999364824 0.09878615433197825 0.30959347362897005
Ni 3.4434450516783452 4.476613643088058 9.211281700433616 -0.11156556548483365 -0.2828367743604161 0.43101150642785124
Ni 7.288245646005044 6.182964530800672 11.355149751898756 0.10401732082393053 -0.06198929721860291 -0.24039968824212793
Ni 0.4417153229174953 9.157335985517996 0.3888042894434336 -0.11720759426195944 -0.23975948355496776 -0.3910326520420685
Ni 4.295278741532978 0.22170188587255255 1.4153280467737155 1.2387924701105373 0.005356893436539161 0.6551086008552137
Ni 6.137975248972734 5.509692183893631 0.29770819779019136 -0.7792972544206966 0.6391837020948411 0.2999531223257286
Ni 8.089723038025044 8.85329813076286 11.212847284707808 -0.5838034255523236 -0.10115516878478707 0.17403180233985513
Ni 0.21016820449440554 4.844893598836088 5.856675171762744 -0.49999677534831305 -0.7878520859692432 -0.001202504948533413
Ni 7.850602663793849 8.776962233634073 2.499565236296802 -0.23399944114273893 0.6446028162278834 0.2576942136565175
P 8.46872802072605 1.6066018335076369 3.739272092348069 0.06824864786475342 -0.18436995104106957 -1.0967310500296918
P 1.6044045987666407 3.1894483176433566 1.624675890264413 0.6824630816087666 -0.9569910789931713 -0.29833769820949263
P 4.731736009674786 1.062984346440197 8.227671558505865 0.24825595106175308 0.3500502960924359 -0.9574412791567124
P 8.400658769057241 1.7085841426952653 12.398582311168253 0.360189955629599 -0.27383045709674775 0.4407940397359118
P 6.385137142153559 7.553534725799087 1.323675442386893 -0.9036959671144565 0.7470792749272553 -0.1006139515693364
P 1.8681448081694896 3.1266830465583437 5.986536247485823 -0.8287300551305276 0.32615317775986413 -0.014136439401382105
P 6.79703761054661 4.0750509840501845 6.064006782226765 0.4335640976463759 -0.5719838072095762 -0.3829339341943341
P 2.4962387669799004 8.358911308978314 10.326240554064828 -0.08743216277173974 1.3303499679045603 -0.8609973998046656
