# total energy = -381177.2477890529 ev
CRYSTAL
PRIMVEC
9.21678550056320 0.00000000000000 0.00000000000000

0.00000000000000 9.21678550056320 0.00000000000000

0.00000000000000 0.00000000000000 13.48969722702976

PRIMCOORD
 96 1
Ni 2.723062341865821 5.835865665799899 0.1268404772531131 0.25182309958772114 0.4772556249970554 0.3214758268888528
Ni 6.672445614704724 6.958534629589052 6.642421014998307 0.5168950937655484 -0.9235618528004482 1.2462363279830926
Ni 2.6270787400293076 2.15504108225544 7.355162393613545 -0.8032128846960296 0.17783780634950663 -0.010886307895200606
Ni 3.178869240773345 8.265990921323304 5.0729352046572425 -0.03216244366515751 0.9316430871466859 1.004524091577128
Ni 2.9357949627596733 1.43614104772056 9.665449163655989 -0.31203653585282387 1.561315250206666 0.25117852402518676
Ni 9.172286634035638 3.524010198903932 2.2150488061345444 0.2575862273237434 -0.19778750999855615 0.240333868001199
Ni 0.4625452906208594 6.199956334452463 12.199407035354682 0.41905819072071704 0.18594680860988622 -0.4907839985007935
Ni 2.0235267731902185 2.1061736867362164 2.7083670994260154 -0.4475935791562485 -0.07085163270523925 0.6155552640426237
Ni 6.014542265108777 7.224042562958022 8.937180266890765 -0.32863686341366627 0.9063331476269875 0.10089420181391658
Ni 4.018361693824544 0.34889587645094383 2.848187575379567 -1.6824504616578058 1.9663817546339815 -0.546262234073756
Ni 0.19163724276024224 1.8255778758747963 6.535043623206897 0.5096731220958126 1.4079692583509362 -1.1911039057853228
Ni 5.3949530918940845 7.956721691476538 3.269524619043344 1.0430680132885972 -1.0837024989805077 -0.10091965573521328
Ni 2.588091738323099 4.800590259972512 11.429281029949133 0.9478495217032192 0.07381200088514384 0.4288867467753646
Ni 2.082449681442651 3.5844907438675584 0.8141306250145625 1.2007663685757515 0.4108031498007764 0.19749414712785343
Ni 4.708818729005912 6.412292633579562 4.973179172608352 0.6255033763942711 -0.9843926109345758 -0.42831956141798494
Ni 2.2499278866444268 0.006495068582119387 11.418678040170686 1.014307139105821 1.2137005601389164 -0.42780765477857285
Ni 0.4774211820520226 2.4498860431494363 8.869030434901196 0.37495425842296715 0.4231583289320196 0.881696837135546
Ni 0.8527213049540173 5.150136841463753 9.920013086191403 -0.3413483974430637 0.8278913612793162 -1.218520607235379
Ni 6.872191785148447 6.489317308108825 2.1128374224888375 0.08036342885041643 -2.2871083620616353 -1.163549650316138
Ni 8.781458071305128 7.873595505096327 8.12870229628434 -0.19046063731983973 -3.036676207738699 0.13006156740649213
Ni 4.212485625251532 7.232853809679331 7.149633612089332 0.48484989240454557 -0.8935357387520031 -0.677089218891363
Ni 7.52657432276998 9.03431135849381 9.9195679154627 -1.121411069274875 1.9066730259194389 -0.23040529603357737
Ni 0.262238739632518 3.8095277731013133 12.765407975633147 0.19600367862525597 2.019269089551316 -0.2791107316590806
Ni 6.189320164247034 5.199280740541177 9.913807424666865 0.5802247070621297 -0.7228995923572582 0.3750313915178057
P 8.256184261792477 5.295052356316404 8.136566979158076 0.1504290753192506 0.6631201583057806 0.5709201418317522
Ni 5.154865052308973 1.7546915803375744 4.518468149469827 1.3801308959824297 0.5857394662327718 -0.471082406306808
P 1.0757002260362363 3.4107727750357344 4.689598966675425 -0.01860167426158732 -0.2884844595644967 -0.4445365374974796
Ni 5.011949579860636 2.634544336100709 7.5538928743201454 -0.1279990284505086 -1.009502775738642 -0.05907032379959503
P 1.393513415831384 7.206244950595212 10.047072001255492 0.2683928310209442 1.1263141630034474 0.7788416549405166
P 4.115460526679132 4.101303544499289 13.026703838132203 -0.4241754573426243 -0.6153266929715855 0.7242507070685139
P 6.122544554941721 3.522498646119105 5.655110681411884 -0.44163247647680715 -0.1321151075014112 -0.5826109479061192
Ni 8.331384012837619 3.996342793806546 10.613046212856668 -1.558970147013257 -0.360591819053708 0.01347412322703486
Ni 4.306220331481352 2.9653255427754397 2.27677730382418 -0.6649723810231709 0.27099941540585587 0.2347843989378795
Ni 6.638325075622837 2.4489827981926493 2.209976809198628 -0.10687073111232562 -1.1168306489930444 0.891942169012638
Ni 2.869858080914233 6.97930926359515 3.3162122448454237 -0.896778928279649 0.18542127512371936 -0.7705853284689954
Ni 1.4046380756563 1.8165730766627477 12.927095274647687 -0.14236429603324513 -1.6448203100098573 -0.06580430008931892
Ni 8.16909485774473 4.211296659951272 6.159408930999479 -0.3710703499875287 -1.0950045542568883 -0.33242589814245327
Ni 3.343020186491447 8.644395257505359 8.650241464404235 -0.3487871131092961 -0.024232647295119557 0.5522793868021134
Ni 8.169555697008397 8.880132974441457 6.1661003171079205 0.6328366768308907 -0.846225897922446 -1.7796846981216317
Ni 1.805614318972752 6.6561964222678345 7.900416350241733 0.19127362013943833 1.7866261624364714 0.6541372380808799
Ni 7.267324586601604 3.3295728967776506 8.452968157449348 -0.1189556873013177 -0.20669098313577303 -0.5988145542491752
Ni 3.9419637606938682 6.034293835949535 9.39077145061858 0.07949465309221794 -1.2571501466821187 -0.9323866501809298
Ni 6.626269520485314 4.463550856097187 3.404610432401983 -0.4953610763485147 0.028939822962801773 1.0619715350613195
Ni 8.336434811167406 7.866129909024926 2.9383526206730237 2.05503930517239 2.0893637894858728 0.3287988429128273
Ni 6.6487031758406125 9.177890439481827 1.2779865425012902 -0.0703528386919498 0.4378804656335426 -0.23196107055647147
Ni 2.9377397044523472 1.4358553273770867 5.064005061405907 -1.0047832587757857 0.4030294193926285 -0.07689295380331274
Ni 7.890425355005438 2.6585079778113805 0.2928937674516312 -0.8235400262891559 -1.1121797804845943 -0.1171775123549724
Ni 3.8308185470827176 2.1285520413798746 11.860613677241842 -1.0393589398681262 0.201526151105382 0.08040739471447442
Ni 4.836250002195046 5.862704944515852 11.986580403251041 0.2775912096907607 -1.2057157421612268 0.15438446042257284
Ni 5.52799738731468 7.261720781155417 0.5074577635792951 1.5847279727036514 -1.19761651009286 -1.7022746954725845
Ni 8.568504247564716 1.7589681687044023 11.23482621593083 0.6037652133862311 0.5708844034978104 0.10189641782618582
Ni 2.7107026328142787 3.863068078754118 9.087105104539473 0.7979156408528323 -0.747482423902945 0.7853537450274216
Ni 5.439470164764295 4.879485941912262 7.319307255543215 0.3698884138642856 1.16168997139958 -0.11982960526583879
Ni 6.940045758330741 1.5351385383414544 6.326924003342349 -0.21645474739075624 1.774366371232512 0.12705003427367798
Ni 5.670617922634271 8.687935351136595 5.59807537078343 -0.5435870012344379 0.9782710714178702 -0.47576284250161294
Ni 6.037694829715395 0.24236182051204308 8.019800448208718 -0.5693736232802387 -0.37471617427023207 0.20029922067681635
P 8.481986284203916 0.6831665580301591 8.087235057661076 -1.1342066783776465 1.8771806728872769 -0.34682536139723497
Ni 1.574733847875703 9.081436781596372 6.781311517317779 -0.0001540090793610251 -0.4296035703367311 0.058010515076512996
P 8.332001537450932 5.068052151819429 0.9688445042912962 -0.8968997701282295 0.5136539611204315 -0.9756320911331262
Ni 1.3691073684275923 8.106844690008623 13.320360755404467 0.988496348690304 -0.08333999498023711 1.1805024761203928
P 8.561149252916595 0.5405340408897135 13.318755191409853 -0.10240883868623007 0.14761448868859092 0.790337314284942
P 6.596702073328455 2.15562173972766 10.225945839769219 0.011107422767071192 -0.5401082986572182 0.5315966616417812
P 6.825591718806464 0.5250461549164007 3.3873437068709165 -0.03232622293653143 0.21967453987963456 0.5213950385184312
Ni 5.871829561936453 4.316745900263502 0.9287551750663969 0.4194831940732776 0.7564087798582974 -0.35785385129725467
Ni 3.674041029583284 7.857622816217638 1.1677473388825086 -2.702643627230758 0.4355621019130112 0.8726745790322777
Ni 0.8356223249149257 6.21121924605648 1.7591783114086341 -0.4454153405580071 0.7021263643656488 -0.8533715078282915
Ni 4.911127165755622 0.10006940274818336 10.333863335177648 0.7183554246300015 0.931971159910066 -0.17274599364889603
Ni 7.989911335245819 2.5269107176786996 4.317067566069541 0.4315192993022052 -0.3448952342540576 -0.24913218301911935
Ni -0.19838853797296035 6.318023353803889 6.162093780549601 0.9523656644060178 1.7790725184589296 0.13487672940694834
Ni 6.23053762798939 7.653885777750561 11.690575970769661 0.4808662251664492 -0.12267658779633066 -0.5263554678474999
Ni 6.614020412857052 0.6671754355809225 12.20729844690571 -0.17593776111331635 0.5894837637665525 0.0795365620737469
Ni 4.282311990482321 8.972217876107349 12.630443823840118 0.6015844036848285 0.28281903374860323 0.7271696804875218
Ni 7.259241465916889 6.620665715039127 4.42625329113158 -1.0255382319349498 -0.5751668329232481 1.1771070772855985
Ni 3.817583243430208 4.026076143098326 4.473506827549443 0.8628933312757978 -0.4137174952340939 0.6208383668184341
Ni 9.320658443365788 8.804159013433352 11.486206660832831 -1.6772658321330727 -1.8260198337427456 0.5261407807335325
Ni 8.196219856804156 7.589183945131746 0.19487049103412826 -0.15771506745770256 -0.34622757991223596 -0.017521296713214986
Ni 4.740450736063998 3.2620230775093764 10.021226291992006 0.6708540366149285 0.11306451862786335 -0.2124050028014148
Ni 8.769236614032685 1.0002516217887134 2.222252645504183 -0.37186250687152084 0.7499794792931859 -0.8665934058352042
Ni 8.048622257436964 6.89786974891996 10.2221955298415 1.156159528499654 -2.2105411670288575 0.37042705997657493
Ni 0.5770647693205779 0.5611741098308205 4.349294055777758 0.3060276106545826 -0.25706223649947335 0.27679056816633624
Ni 0.9359829780777466 0.10595800685931728 9.31290897030797 1.082914970082206 -0.41483489666798884 0.4339232807580075
Ni 5.110882552984617 1.8234672320472025 0.28713327665579663 -0.1928129396021002 -0.16138428877917366 1.3601842776571735
Ni 4.432490289726046 5.472724326030488 2.5375468878841283 0.9218955208416186 0.14624229093141264 -0.40859225819238665
Ni 2.3417086343963 5.711687917812252 5.663838055387205 -0.8531470505223113 0.45345158059892227 -1.691444694736616
Ni 3.5549048631401523 7.476167724110109 11.013500786126649 -0.969415677909769 -0.6543110446545829 0.04212649685640487
Ni 2.1946824757160552 4.751658346956375 2.979793130618994 -0.12682686251927835 -1.2016474856291242 0.1560129971649313
Ni 1.5332122302193272 8.945977688434162 2.098794728446384 0.4928107991228351 -0.4962108259433196 0.5905718546244088
Ni 7.353897850674043 5.497194890931193 12.13429229075562 -0.13832252186370372 0.24140550379882297 1.573978447496631
P 3.2961343998059904 5.050438875162085 7.372105609981517 1.0054386329715974 -0.02638877440617391 0.4212893940440809
Ni 6.081170405849718 3.328236462913017 12.171470037512675 0.559934589354526 0.10290146205193246 -1.2032670235104181
P 2.965085906358333 0.7919190941843517 0.6473215584236308 0.35379279385400353 -0.16385383336558876 0.7316989358164431
Ni 9.18627771408056 5.290526914747196 3.919067422717849 0.18847805967217218 0.0013346596510235079 0.6425549325599191
P 4.092455430636886 0.6154010659864887 6.908492093947478 -0.1662866111767975 -0.5731695999875612 -0.6562337155985923
P 0.9398724614630939 7.602529850207536 4.480292224867672 0.05717979164510153 -0.23546496994467192 0.04069027863051057
P 1.3520470988866486 3.080212771207564 10.990784175463459 -0.28006461093191765 -1.1169090676394637 -0.9349695804167575
Ni 1.1861173136107932 4.473716970253675 7.583786595675681 -2.464017485949286 -1.1693721705351863 -1.915992246437836
