# total energy = -381172.32609952317 ev
CRYSTAL
PRIMVEC
9.19351446688357 0.00000000000000 0.00000000000000

0.00000000000000 9.19351446688357 0.00000000000000

0.00000000000000 0.00000000000000 13.45563771696734

PRIMCOORD
 96 1
Ni 2.736587397324281 8.34541249364593 11.138011376090056 0.2624324996724513 -1.2451909174377138 1.0223323234031425
Ni 7.410790648956823 3.448891682199184 3.8073265742066407 -0.005282331444861871 -0.12977386096274424 -0.6227376407236759
Ni 8.522222158286855 3.8037061683239664 8.582126177308995 -0.3345591424353722 -0.012730817303107106 0.7522145392712916
Ni 1.5911950466265499 3.6649392653450716 12.523753445307625 -0.6291394304849617 -0.794810005344315 0.3534284685360494
Ni 6.656674261607558 5.6701366423642 7.369463964030976 -0.2409753582399398 -0.56245401334227 -1.1500223052536644
Ni 5.825212839492066 4.779680439778617 11.92224663523269 0.4523156672222661 1.0910975058929984 0.21304186505446535
Ni 7.801312744142822 0.1815976468240037 13.266827502779591 -2.0397306998397773 0.24978524322208598 -0.43127838693599274
Ni 2.378674696922045 1.51341791669403 5.572705617825329 0.435189806175257 -0.00894229679495234 0.10849978207531637
Ni 5.477422198198068 0.23585133203331543 10.782903616863045 0.061065756963069026 -0.7638696070117167 0.26796242835174494
Ni 8.167039931595017 8.348777319834502 3.11713269092603 0.18602471303567317 -0.6746410144611865 -0.3149215707101028
Ni 4.361421512322354 2.148524263029528 7.222555284897443 -2.2846550154251366 -0.8642531877378019 -0.8641297747860602
Ni 4.757211491131445 1.8773615623959983 2.628867911070577 0.6488217394052375 -0.6225934018363277 -0.5145013967223914
Ni 2.371053273669792 6.958028462796453 0.24219853422071633 -0.0093421033365323 0.6516324693811552 -0.2680339050196287
Ni 5.541363089295075 1.0777464733876276 13.383811293268876 -0.3135601715862019 -0.6465110889941897 0.6267056242324883
Ni 0.4634459689847874 3.58922148258807 4.677138740709072 1.2550809228579158 0.0859298671946004 -0.6134608434074402
Ni 0.28668043321191045 6.919912153021013 1.4848702164734087 0.3714418743943345 0.3168807513190026 0.7244319698413847
Ni 1.21472064110212 0.08819797825149242 1.8504190497505795 -0.09527942673030043 -0.6375567080143794 -0.301525609019171
Ni 0.7655476028762259 1.833260274891708 9.500406550549515 -1.0746157061878912 -0.08604273862338084 0.24567173527434463
Ni 6.315650046747407 0.24345712631146832 1.8409460527431958 0.03918772594305509 -2.701009176951129 0.6824070315598506
Ni 6.451144058679496 2.847451984777739 7.690407705226988 0.67598364453201 0.9656801221267369 0.33657848685824615
Ni 4.609830265369244 6.0695120917020935 5.945184522088685 -0.40959884508003014 0.5621956174745607 -0.1232118914745104
Ni 7.669211138941833 8.722852218158884 9.507592201229807 0.9410060164188246 1.2319471650539298 -0.5601631604255644
Ni 0.2727007755552451 1.0373042045255527 3.9422193303115916 0.2663261782999026 0.7342864940379612 0.13786049462562064
Ni 2.8656643363612284 3.156436802733064 3.2800537137006347 -1.3767990033957191 -0.18016439760015424 0.6489245835316888
P 3.2975020842560636 0.013661562066161226 12.960914237910607 -0.12205669482414462 0.11304240714067629 1.1606589590319043
Ni 3.5770124957617835 7.184951973213046 2.4700113409133673 -0.22338489885168622 -2.2650598669020283 0.6245590102031308
P 1.121590342494978 2.4071378168122437 2.2433645552734847 -1.0787040173246518 -0.9953141429430857 1.8916765525106065
Ni 0.024601843936101913 7.463515452758595 7.277508596535579 -1.8881279159273996 0.032476375361150514 1.1496281551390393
P 3.0818590157339387 3.332014536474347 10.876500945990351 -0.2511759529220255 0.9988445246938474 -0.3558093100634001
P 4.533441356077363 0.8430994917114233 4.714559101461357 -0.3975192882076767 -0.24547273188966112 -0.31906233235135373
P 0.6375343534294906 5.353052338419449 13.450215126813744 -0.3471243806948925 0.7944821896912511 -0.20511566822885322
Ni 4.530471850998379 4.924662158340771 9.894603293351832 0.23632474684180588 -0.19974540505587535 -0.7061989917731257
Ni 2.468017267688502 7.340184460081911 7.452727783223983 -0.23252208526626406 -1.024740932844635 0.5287766756944828
Ni 6.811327557083307 0.9171100388858632 3.977903955587369 -0.14669660486001188 1.8168785335631095 -0.595145075817388
Ni 5.69456380953095 0.6109126944288291 8.376968311705077 0.755522263488286 -2.1228686061115374 0.25349123131876344
Ni 3.371500679862074 9.12941699558274 9.210168227351332 1.2132413611143105 0.796981301964021 -2.0025803160417253
Ni 3.170015623171637 5.425809809611643 4.122026999925446 0.17920691878289138 0.4222116487480341 -0.9997482674550394
Ni 3.5836134389404535 6.24824320080589 11.739976023170975 0.7123084471049732 -0.12404287201623797 -0.6595265274172513
Ni 4.877646526842556 6.994811713016313 8.15457352637179 -0.47588008480576754 0.5890304782792177 0.917953248364419
Ni 5.925054403447994 7.905125906222966 4.382191499549724 -0.27429608387925664 0.018948773188360912 -0.32227929662675464
Ni 6.276513256898383 2.3247915103340433 11.620436435740645 -0.025463948599059375 1.3133588326632026 1.0558775063484396
Ni 8.100074374333968 5.073008703091497 11.208774774057385 0.7452882444651036 -0.06273003203936939 -0.019645027924437137
Ni 0.010803298508712018 4.2181589809111895 1.9449991655433434 -0.2877779204157753 -1.813148377096716 -1.7136639111461327
Ni 3.8021248838856216 4.299052712149516 13.078152688742579 -0.556377468130887 -0.25519741537659274 0.2961664015897867
Ni 3.297952566450708 7.799924523502183 4.762515229459821 0.8857941471333713 -2.0167537793286296 0.12865260287410749
Ni 4.835264426489257 3.169574334491169 4.561232430081265 0.4403338122700417 0.4273970496037155 1.0485434345808715
Ni 7.785334416504203 3.817799825556419 13.373073268710815 1.5281449341022844 1.724859779861952 -0.735561761205959
Ni 8.222918110759302 6.688042531977505 5.009385907584994 -1.346512950817668 1.2718961946430418 0.9712501600153468
Ni 5.893152909255815 7.713643392956474 12.489536104894405 -0.18924167731107408 0.6296770481559866 -0.8758210950810594
Ni 0.26365435760564704 1.7669290701088323 0.40314662885306135 0.24301064350241372 0.5525323833531839 -0.42008560354396685
Ni 0.10785922766918583 5.681913534024195 3.4739357341671715 1.077438777458983 0.6235637361693971 1.0620067591746292
Ni 8.128657009908459 7.516819447953482 11.399400451802633 0.24256250022140163 0.7104387408860862 -0.14044651018524199
Ni 8.641360908499092 2.5101787237015674 11.71102013092092 0.7565951848374906 -0.5817791960334432 -1.1144636914227646
Ni 6.0410581653260715 0.8984177858623645 6.190588834702719 0.3597685518214643 -0.3430977760340026 -0.24384290959572197
Ni 0.9374718340837999 2.8340110670518115 7.091322466786124 0.2644302468287704 0.22478383608174193 -0.5493632415965829
Ni 3.877511700132272 8.732450246959068 6.674763420101083 1.8576994242342137 2.6430279724506542 0.328664374217492
P 1.8730773847897861 0.6492027616222039 7.601735341643993 0.23802038937667397 0.6654315800477765 0.5411048582425325
Ni 7.2969197823676755 2.17425690920933 1.4033283424856449 -0.11585596533007143 0.8152793289422604 0.7840213993692432
P 6.563240577032593 3.823702061657681 5.739515497096559 -0.3336302028631996 1.6287545147962466 0.49336795717788584
Ni 1.099737359297626 8.49773063652087 9.262538161505894 -1.196037081420882 0.15948655753582855 0.6636588044180699
P 4.9688094134159435 7.334594803462647 10.371739324296728 -0.4059825884836814 -0.3124491979102103 0.20749933796968134
P 7.084145090268593 8.022968370936328 7.4349392526440266 -0.734796086684528 0.14227585008449692 0.1608754674635552
P 1.3407453334324957 7.439318123446256 3.9580836583744237 -0.5043961899675893 -0.08047295784508722 -1.1463955071343546
Ni 2.708859758568196 2.4270785490609 0.9284336902969607 1.3755085667190698 -0.6322887747472207 -0.3431790228938993
Ni 8.782141191082623 0.9165667021980366 7.706581854717566 -0.5627661452660501 -0.6770092575830469 -0.31782588884109136
Ni 4.63100292851754 6.438254751804154 0.3951868842791163 0.844870669446132 -0.7938388996802974 1.5174781984170573
Ni 7.342372516455899 1.8706135229905057 9.700895949654647 0.6437466388751751 -0.11974398753056796 -0.577734079429792
Ni 2.741588669036254 0.335532928842575 3.5366934199896725 -0.2473270114895805 1.6748482238305153 -0.26995631885332216
Ni 6.967084074260227 6.626363245367898 9.461600727210845 -1.0139451277807119 -1.6401894961060655 0.6137511209543494
Ni 1.7829257847758042 1.1752161106860404 11.515496148822473 0.5667554689311013 1.4882612105334692 1.3093548537101323
Ni 0.5718834686956701 8.501527557875733 13.07803133435545 1.9413932030094434 -0.5241211792003425 -0.6839494363463059
Ni 4.684205795056486 2.1343754447120165 9.739755095375543 -0.3890205067080461 1.8416572831696865 0.21454698884508208
Ni 2.4887118680996254 6.466451259783236 9.489816541569697 1.5177975294296893 -0.6415519452167016 0.2230617111843126
Ni 1.4491736396292019 5.957011058725233 5.949073378585311 2.29755475420594 0.06170699009149373 -1.7063095276635905
Ni 5.916421693636336 5.523141544197409 4.083166934853134 0.14650814299828963 -0.6438911348728396 -0.22446964727543278
Ni 4.505437911895985 4.34900107467001 7.503441965475373 -0.4404351137345963 0.7792216639877547 0.403442338560331
Ni 8.047937955439485 9.026348508150887 5.61043580000536 0.24936538207584796 -0.8879603015467546 0.1758832537262971
Ni 1.2854555391755014 8.561506044362702 5.878767817623969 -0.21514862698482304 1.2278447128497822 -1.7287899681542935
Ni 1.1534550626304523 6.609419598740755 11.424979566295688 -0.8077876485509056 -0.7283999533501972 1.3206047155923384
Ni 6.957458464917515 4.94711271995959 1.938082884828422 -0.3066405616482332 1.0665403853789246 -0.08592729609143912
Ni 0.15834816882325328 6.047631527962213 9.269493974331773 -1.4532972928637746 1.880606410739374 -1.198298366651233
Ni 2.257357083849997 5.087267843579125 1.8272890874341228 0.32291101667348254 -0.20932944919988467 -0.5983725816157501
Ni 3.926981999915592 9.072067854150227 1.595367982711227 0.14462892369770575 1.564782897040292 -2.380624783354242
Ni 8.798055164122006 5.263912024964873 6.650583558465678 -1.0719854676538956 -2.9948235333689714 1.0949125087637144
Ni 2.567537058648256 2.9717758769854767 8.785091389781837 2.176663540444806 -0.33286787077587837 -0.1985063904424517
Ni 4.62550520704004 4.180787345784039 1.9768620469759823 -0.6696049946991758 0.9365135278651096 1.1138584537385978
Ni 3.87921250025491 1.9679176770337425 12.233879185270826 0.28825331739029714 0.48073407046395916 -0.4433504876091784
Ni 1.1571048877584913 4.432331087165088 10.302833016193038 0.9798281314923448 -2.0834327687134184 0.8762887787460973
P 5.773480935221346 3.677166639199711 0.3286387125616771 -0.1096953450453143 -1.329417171677646 -0.01753183823617626
Ni 8.139018100385286 2.3282574651785533 5.861934493166943 -0.2820955253190174 -0.5246672815117996 -0.106593566191539
P 6.642313992463989 3.9926788522202945 9.913588819477559 -0.19342049127911204 -0.1308097584264263 -0.07403697241175637
Ni 2.7547997489077707 3.81427870962685 5.620432827320799 -0.04403656939492416 0.21655707729657542 1.5939070680997582
P 6.227879566905118 7.233907436202487 1.8043475921582823 0.054002422358384414 -0.5628982999685402 0.29893496547385934
P 9.137167128033461 0.37179306810579604 11.196368126676305 -2.011360633337517 -0.6632998784167544 -0.7401434670393705
P 1.6853642123356276 4.744055572344986 8.164907955657505 -0.8667402158257137 1.4760384432150322 -1.631456744218758
Ni 7.750215192350276 6.60188091711609 13.402003419121176 -0.2479510182268246 -1.206450306334406 1.0712809853877034
