# total energy = -340859.4855907528 ev
CRYSTAL
PRIMVEC
9.40646940265492 0.00000000000000 0.00000000000000

0.00000000000000 9.40646940265492 0.00000000000000

0.00000000000000 0.00000000000000 13.76731879128729

PRIMCOORD
 96 1
Ni 2.4576658789211843 8.574514189165397 9.231276702718375 0.2902672624965324 0.1523337485411312 -0.7850711807899964
Ni 0.7165566174153534 6.4191063906019 12.491501607883915 0.23340577342279803 0.22103053968689676 -0.9610709054894996
Ni 0.7985499889976474 7.355924894851835 6.94323016082224 0.9945667232541 -0.16025531738105306 -0.3530736562997919
Ni 7.60408636984628 8.901915762156705 12.803592270677038 -0.8231322493277761 0.5866874319683381 0.12043021496431518
Ni 8.3700551708772 6.7075369609815025 0.3620390151629409 -0.03307415684614949 -0.06359546536345823 -0.6335974662563153
Ni 3.079386472119496 3.660019607097212 5.0794520728720505 0.022054665807194274 -0.8474129762520116 0.08161015677332396
Ni 5.480538283048616 3.273733535831884 2.7486173830927094 2.2915540565378145 -2.4455217411379433 0.902591164086052
Ni 3.6266548602317243 9.14575026123964 13.454828483473468 -1.232675301469206 -1.640606014818194 1.0323758236820735
Ni 7.885650217583705 2.540960165217743 3.9805582200340903 -0.5482152440350688 1.3129186598019904 -0.6161047087881906
Ni 0.943327781055945 0.8456491217944289 9.573104977786816 -0.7713494603285297 1.3702917984048208 0.5848192684113477
Ni 8.92912867805235 0.20177347128225107 0.980308374748355 -0.011582819741592955 -0.31255589869140366 -0.06133675123626857
Ni 1.5108106718504217 6.438267368714389 9.122665844751737 -0.5036953072458229 -0.05388569427486204 -0.20377612348182322
Ni 6.835850609696506 5.013093194034365 12.27302789087711 0.8098733274353408 0.013389533933028554 0.6065975406287036
Ni 7.152143142358481 1.5596490608342426 1.9732148339277635 -0.2883888145268969 0.08227041606514218 -1.7999671025197517
Ni 8.261259946110851 4.156935164656592 0.6078215940529932 1.3883720529452992 0.1490892734619045 -0.3359596223273247
Ni 3.1742789351527745 1.5619254264224713 9.1856788424335 1.8370768628878555 -0.44117173479030475 2.799233802352682
Ni 5.993971600826715 0.792713274751796 3.9404819572710763 -1.0915531053731782 -0.5003631575487963 -0.9500449866926411
Ni 7.884982358258233 1.1791950005800793 9.273858848922314 0.10172209703185062 -1.9176534361903426 -0.8826933967208604
Ni 4.051140603620183 4.911898396521279 9.239687967631575 -1.8351693614524975 0.8637299682444801 0.05501646544519557
Ni 5.530608919520279 7.598019197100794 12.637971623782386 -0.05851650817865406 -0.5371353320718233 -0.5989042857495039
Ni 6.290087256683933 2.0847840265121627 7.385905194036972 -0.5273183459814015 -1.720916736053804 1.4630312323220866
Ni 4.2950785738662205 5.989889193118899 11.315084337709637 -1.637631248460586 -0.4265298165074138 2.087275539498276
Ni 0.9836156893798479 5.5026999248910435 0.9373161064797585 0.2603195670945065 -1.3612101478185268 0.2894169986810951
Ni 7.1924310506823845 5.127174854588252 4.850198541963965 -0.6705416475808323 -0.3098282153475954 0.8309270627818465
P 2.2567342866478026 4.682013691518276 7.993842487663252 -0.22575442752512734 -0.23249611712433507 -1.3949353079851137
P 2.147515770759678 5.456636444372212 10.86380520695956 -0.06386825940887064 -0.6258661590503286 1.6076598989094766
P 2.142078831462173 3.0516467939389704 0.9554301445510496 0.11238574739328386 0.5224057391711325 -2.4931516843110804
P 4.772908405068095 7.514950666069184 2.8660251712168345 -0.314348214705136 0.4320556314216495 -0.23277533892765073
P 2.2995431287636285 1.021373257442455 11.472182723352487 -0.3484184169159677 -0.7354244642971464 -1.148489670659222
P 4.9642359921117984 2.7088280176455672 11.244691964804874 -0.40060975420754236 -1.1679837748280917 1.6197577106142749
P 7.539557989948552 4.468618527325872 2.7623019147363275 -0.4860220583357759 -0.27755984223219293 -0.9925152400417099
P 0.13697982894820748 8.438176822075356 8.647266645235806 -0.48739939829927664 -0.05529388747629832 -0.2802543583452206
Ni 6.222417116015673 5.743392663203448 10.227410521539607 1.4821653820483764 -0.27414233191021176 -1.5468911043615359
Ni 2.505996318558871 8.044318542964886 11.660808772392311 -1.8012601102995622 0.12349111327782603 0.5512612299502442
Ni 2.0141226285833373 3.5442918144030777 2.871242939777953 0.23574676285114882 -0.0177048734789308 3.0208739505991202
Ni 3.7987556238773306 2.9765267295274156 7.46659482896419 -0.0814944571310661 0.8671189393213712 -0.24979809873789235
Ni 0.49012690861299624 0.2897709922652332 12.57366429591492 1.0792128386402704 -0.4907873409349031 0.23085215376300888
Ni 9.294344257922502 0.9239965458478073 3.2737307138910725 0.9768147985873178 -2.4401967293806037 1.525971066379417
Ni 0.49844222753859285 1.7359074839426465 5.657748640857552 -0.36853395671892014 -0.20390262175735852 -0.11008435295361686
Ni 4.017155029776088 4.469521548385665 1.750060457761032 -3.9547680385635116 -0.27010338595414773 -4.947390236496731
Ni 4.564968993111942 0.4555647181963451 2.2152856200032907 -0.8639544255504603 -0.25180793007906954 -1.4710543597368793
Ni 2.8823773775745916 3.2585797136722277 10.972993622145692 0.38944268184712927 0.20619373178438036 -0.29631912511756714
Ni 4.6896611511184 5.2739345897434085 3.460483934878762 0.9980045452910554 2.967824379072308 4.6731851696693845
Ni 8.949286741918362 8.574137930390483 10.676940989633271 -0.07683998907819026 -0.6422332875544423 0.1587008284097396
Ni 3.2562092833902705 1.8940302341002018 13.189820962479192 -0.6561365278990958 2.0887752639722543 -0.180775805931908
Ni 0.1048764896256185 2.6121106995539565 1.9180487129968287 -0.7822229127079238 1.6384694280911654 -1.3993241810814288
Ni 0.6168508640039888 7.558417961041109 4.5288142874304675 0.12369243065535472 0.08295150129256683 0.1758914812564132
Ni 7.522551093322444 6.71552305347905 3.1835000970789764 0.562328029287367 0.7040392651176456 -1.3033297305619749
Ni 3.50435194544597 7.102919088130373 7.5603368807931695 0.18344229702047765 0.2638761740975133 -0.23276736850785074
Ni 2.7837599526696652 4.606865407698602 12.952789222046698 -0.6481637941062643 0.02375802165154618 0.9557932020303281
Ni 7.820858456543536 3.331291721924334 8.512595163871696 0.5688169794458203 1.4858669992696798 1.0248890283867254
Ni 7.1140375349290785 1.9490204540538643 11.265452983357685 -0.8120965603389046 -0.9065249519228195 1.7452535130269557
Ni 2.525646433078748 8.299111578867187 2.8298996255904165 0.693676948046715 -0.1197848680708324 0.24074190207289506
Ni 6.312794473749986 7.721290978231953 5.044180634664688 0.8203246046756517 -0.1512705973839395 0.25722113067484087
Ni 0.6192466917532529 2.5456728063735388 11.892348075357999 -0.4885286268077134 0.9047730022287191 -0.053176069802347126
Ni 8.220821534276983 3.173752172867895 6.094489132544957 -0.41825472098281513 0.8956453288958381 1.6478195018474977
P 5.048122885978847 0.567787660402157 8.475877010674788 0.11996715928496758 0.4211940061167972 1.725345718359435
P 1.5297929270448265 8.425101829647097 0.43306914669118185 -0.7527920090413165 0.4343086891218843 0.016927886103590202
P 4.554828819128013 5.698683714274307 13.708835138536202 0.09638371553807272 -0.13113423164538063 -1.6179363411348198
P 7.013745758475786 1.1195015459399933 5.591982369590356 2.043792528613977 0.146223007657703 2.4823083138386735
P 8.418526707555477 2.1103319973288146 13.380154285710187 -0.011397443203664242 -0.9904984667219974 0.5743880457756947
P 7.710774545473109 9.022751267720295 2.780062269559199 -0.1512086337977525 -1.5686356951274791 0.17830574712486066
P 8.280270420713375 6.656572709919419 6.016441774864572 0.9988740923802023 0.9408376091617604 -0.6450833554087277
P 7.810313804376574 6.990502372655482 11.74111368272218 0.12356258994570977 -0.6497864173113519 0.02852407558162184
Ni 5.438764152563803 4.542910822432616 7.475984366692167 0.6990767789060477 -1.204155339652642 0.5782750395349266
Ni 0.7465510263045501 3.6967424635288064 9.759679475856423 0.5382769018754342 -0.017183967978454277 -1.2881717918746138
Ni 6.151040826414512 6.763552486096806 0.8918123108886119 -0.5108668852935976 0.8223796874324675 2.4352113603508703
Ni 5.208126930010972 9.370611911597543 6.519568424150842 -0.8254626972331655 -0.4314395951042053 -1.722601837065711
Ni 0.3756050252924606 7.427432875024217 2.1665488208886967 -0.3433970524419763 0.694144888822069 -0.3894707068715873
Ni 2.138748941304185 1.4295481829383978 7.272063398452095 -0.6826633705450307 -1.2550634393564193 -1.4202563032484057
Ni 3.986621630191827 7.284454540556945 4.9083794363288975 -1.2133917706492459 0.4753010723738459 0.2197115637651571
Ni 5.747409225625654 3.21341925421319 5.568976967445185 -1.1736435442170305 0.3436634187294856 -2.4691226683863348
Ni 6.603219215636632 8.258438005298999 10.107056627207907 0.7659203188931584 0.5521161217513718 0.14548458682978171
Ni 9.058768638948925 4.959673854465969 7.546748295137156 2.378001229688466 0.9360378737802718 -1.1017637273575929
Ni 8.691596513449221 5.582363314009683 9.814845596787357 -0.7235889051147989 1.0571867120781664 1.2286247855489163
Ni 2.9726700770845484 6.91796908732146 0.8549286038307422 0.5116402731245123 -0.79567569577872 0.22770383794201426
Ni 1.7600821102308628 0.9612376987418453 1.6188580823016268 1.1893429572301581 -0.4798732651255606 -0.035166006378171695
Ni 5.67212925123476 3.3437176679658647 9.41520798289421 0.5356194096479292 -1.2054604316173112 0.8189089552750478
Ni 8.573780484554314 8.96071560220637 6.055913201646911 0.6002050068387985 0.6931262177495676 -1.557078586417499
Ni 1.9984608570775473 5.869881456860119 3.2484122609271178 0.4934625737742211 0.29186340333905864 0.5109591878970877
Ni 6.09311578801652 4.354772028506307 0.6409596450065952 -0.5285984982454057 0.3847391057238729 0.8466997522350709
Ni 7.188875405259449 8.532749465149957 7.680387886811065 -0.800672377662363 -0.2310709546420343 1.645743336044759
Ni 2.4050084633719875 5.664491198104009 5.916119897709285 -1.2087851251151698 0.10188201964848262 0.25332848048865403
Ni 5.407497048368461 2.1945010852770483 0.27051124622432926 0.19661971494270009 0.28016874060994973 -0.23177260869474922
Ni 1.983081279652943 0.7731741565705186 4.295610039385787 2.2770334943241366 -0.3885888184872663 -0.05765955949499747
Ni 5.183105721479199 0.4134914619854758 11.791887923102932 0.4289813633716999 2.2844359574357944 -0.30285204114007847
Ni 7.008750923238804 6.036178428902678 7.651352937797899 1.246509636249137 0.7320974568064423 0.0497251351392692
Ni 4.377996601387865 8.180900478258621 10.51657949976498 0.41300401410683707 -0.47081295469550527 -2.008249855622677
P 2.902704757889314 8.991653479973664 6.231832051210955 -0.1596606212198476 -0.6616134918532669 -0.26463490664040873
P 8.078219458584625 3.694879982592983 10.844434464580056 1.1371415926362545 1.6095422035338536 -0.9038294073685273
P 5.0606523031834785 5.62940506734329 5.871086425586782 -0.7620801192114617 1.026590327348548 -2.8782890539146364
P 5.656420447382106 0.12595826878404284 0.13858551327015242 1.0757601042049796 -1.1698285413463143 0.8064257352063724
P 0.6110103871703881 3.7870163501000174 4.764621305550617 0.8818662728338748 -0.09953331691064793 -0.0008962865620242629
P 3.9582799379714397 2.1169729647060445 3.834046815670377 -0.24955512948915087 -0.47184833793855513 -0.08859481562127322
P 5.404712733434098 6.923688220700151 8.659478123775637 -1.1399209551536045 1.072567565409611 0.5328382473583662
P 0.18766470786991807 2.1540908928512983 7.941196359877303 -0.6571053195702683 0.564535321351331 -0.09657500561327238
