# total energy = -340890.4152336217 ev
CRYSTAL
PRIMVEC
9.05124601357435 0.00000000000000 0.00000000000000

0.00000000000000 9.05124601357435 0.00000000000000

0.00000000000000 0.00000000000000 13.24741345483292

PRIMCOORD
 96 1
Ni 6.716712383885124 1.7497144555996977 11.439300423114966 -1.7872987630234638 -0.370495194210349 0.021225485037679577
Ni 4.24097033751497 0.449941961415167 6.006112641823334 1.573574270079677 -1.6260096050612578 -0.24887301582046173
Ni 2.896271984095787 1.814249839168363 4.579193675388807 -1.337917495839173 -0.25544295572849557 -0.010287497968937121
Ni 3.050948726003911 4.349205136493105 4.909332440386974 0.5482664089879784 0.3948414842651974 -0.25138086984398
Ni 5.010851214875916 4.626037493638636 3.113592399170634 0.7123220739517281 0.12656692398967234 -1.2813912786176704
Ni 7.155815478284376 6.271472544736987 2.5461399219356537 0.17568399323129746 -0.906776148701677 0.09763892810141249
Ni 4.9293537964113625 4.794354463181819 11.150930442766775 0.9634514899065343 0.8448315886780805 1.194307243213969
Ni 5.787303296790977 8.052703438707805 12.270827526339794 0.012764498754519953 -0.09760653220158029 0.11353323073416575
Ni 1.9584452382752926 6.213092008409093 0.48537487390552525 0.12891819783066832 0.7174660800465128 -0.5040534619161899
Ni 2.892189872175806 1.5375351482200827 0.48063745177932055 -0.5653004816521296 0.25026603951324644 -0.2561212127424428
Ni 0.2694528763287655 0.033767483236973345 4.7645912511497235 0.9024705793477877 0.775149036580278 -0.3969459322027099
Ni 8.569176583421918 2.495455660032504 1.4063454844076575 0.985630854217051 -1.4518793294703252 0.2182324081164693
Ni 6.788905121520984 0.6947582514135608 5.154700856387849 -0.6742031555928195 0.8609799163031688 -1.8305076943107699
Ni 0.9770548457344632 7.362627396820201 2.464230671780725 -0.6533887899506295 0.2548780843639611 0.14035240780953892
Ni 7.576834183290893 4.005828019179717 3.731094645968208 -1.0485236370865296 0.49098634431958665 0.6989870474057188
Ni 7.423071617222942 3.6002235860129517 12.76760515988344 1.5588400491932959 1.0174911932607573 -0.7024739775130547
Ni 7.912762125193762 8.719191933669752 6.953567197952664 -1.4571824868507937 0.2523748583261331 0.3142445992477362
Ni 6.891600557982425 0.8699306346334498 0.493671245936246 -0.40991611921013277 -0.4292878388685252 -0.5584891151572511
Ni 1.630545751523253 6.532736758861746 9.146980970641117 2.581106038134877 0.1206623855797793 -0.8027346595080305
Ni 8.916889247541672 4.769870842907872 1.429912213467648 0.8861435600529901 1.2532942632711384 -0.4069189842550218
Ni 6.13712490121529 2.3104662954635864 6.927509566009349 1.2727868247781111 -0.5039462469143643 0.42394405805810864
Ni 3.3671992592281983 4.289539323241402 0.9299548772244682 1.5018348354528457 0.0498122955364368 -1.4788427454330466
Ni 5.937237185825332 5.793376682818267 4.926143319475625 -0.28035745958198816 -0.010801204380562044 0.49510396603238604
Ni 5.461277417948996 2.8958375242905565 9.564566538061717 0.560086541551358 -0.7906705292546448 -0.058111045210119276
P 0.16475711451407368 5.757895798724415 12.588023009640459 0.05950098357911044 -1.980559845906576 0.37325321657146043
P 3.968482578421748 5.858237911240855 12.800975293423544 -0.7898704019508526 0.7285341649352163 -1.3334067524530133
P 2.5858776069961737 8.30885369887516 1.3183121612481628 0.6410294970543282 0.5433520024054965 0.26044580825972563
P 6.243205503659155 7.78036049954966 5.822516264004937 -0.957370316709461 -0.38729992447251366 0.9315975786207311
P 4.789331021683838 0.9654692509283073 12.634998976081041 0.10235304574763018 0.953295632419455 -0.7071029916446339
P 3.893999875562485 5.928837629590868 8.364681783847324 0.01000004863550536 1.8231533108282278 -0.5926001979083472
P 4.909060903008705 0.9074688669299893 3.7175023899366417 0.08408844311048744 1.7852161694628224 1.196297277060804
P 9.053056191497772 5.604875434823733 3.534793939345186 0.5879927810433228 0.40847887254297394 0.356900743355366
Ni 1.5990112106602477 0.776103608946283 2.5417147677944585 -0.6333691522955931 1.4013137007076317 0.09591808875556385
Ni 1.5239763817985033 6.623113449595704 4.763385625190208 1.3293238406328913 -0.0027299973366533632 0.1718023987887041
Ni 5.934304582140023 5.40708760849239 9.172628581143245 0.8201374283655102 1.0494412638047927 -0.10358203305872482
Ni 8.80513351389198 2.2879739492969478 10.519281098561372 0.1673819011235053 0.431762782771579 -0.9778905481499998
Ni 2.2982923696711803 4.896298646230049 7.223258122049711 -0.3610487040854686 0.39154018780610633 -0.39958671225966663
Ni 0.6521440803925743 8.92557844364629 9.259239953565203 1.0945808364559084 0.9926437951997744 -0.9439962093954001
Ni 1.7628568647079306 1.3676704156207637 11.476843181034479 0.7379469736086839 -2.3755455690591214 -0.18832019393806923
Ni 4.44258684087991 6.98881999064877 1.6391027994371126 -0.8280584829847998 -0.2655304218714846 -0.17229502215440648
Ni 5.393420227119503 7.768295188708563 7.9748636287285395 0.27024376818675394 0.019385603615463386 0.3466752089726159
Ni 5.179222491894754 2.8607277412803382 4.848222048282879 0.37644909780093877 0.28821423662224555 -0.8427045150327487
Ni 0.6728777694726222 7.590239078531454 7.012889063858558 1.7184587614316147 -1.6007940250275785 0.07575369799254696
Ni 5.024382827559668 4.533588067583888 7.055916876819109 -0.2328113343719087 0.1352045450600123 -0.5035268999887587
Ni 8.315506364642756 6.981063072876211 9.117717387385037 -1.141593200649705 0.5349966884622658 0.4844431438844301
Ni 4.584781914633589 0.5383391446615424 10.483459887620088 0.6285671029212594 -0.17129434880403402 -0.4724977985970959
Ni 8.174487952861577 7.136029454654488 4.935919570217914 -0.5934422341936684 -0.553228380978944 -0.7414331323850715
Ni 7.285411217686361 6.24510626530704 7.1012228883833375 -0.23307075868088248 -1.1988290423437225 -0.4851142018095258
Ni 2.1179191405328406 5.207643404153604 2.7162363664310956 -0.147520643423204 -0.3383443205094173 0.5504284496363036
Ni 2.256376049712346 5.267173448716173 11.202899981593733 1.2086979647180023 0.08482686393840876 1.301632802475526
Ni 0.7453728187229545 3.2669567104171224 3.728815542239934 1.5206565961450393 -0.28959774723333354 0.0700201379428794
Ni 3.855025210534901 2.714079454523043 2.589246480735902 -0.7033147282467952 -1.1403428731823717 0.14130602997205988
Ni 0.9679673948083847 3.0517452356468344 8.226087295729496 -0.21944571169828014 0.7361677702210742 0.5260852449052489
Ni 3.6646865596140787 2.5046245721720637 6.7520339660503925 -1.0165200875967397 1.6612118639940037 1.0750761907640773
Ni 3.6222090624068213 6.834930707137626 6.213633272916442 0.8925522917928111 -0.5439073606883343 -0.6006621489808752
Ni 0.6853712042467919 7.146130645126105 11.151394771683616 0.898421863199711 1.038118639703122 0.46214473749754603
P 0.22911780903605253 5.457466843407285 7.883112053735944 -0.07487155249790975 -0.5126494311153171 0.592012186615361
P 8.523648816332102 1.4098220679740985 7.909633109471505 0.5782806959618815 1.286754599812113 1.1053825550571028
P 1.9395281342558661 3.184002041355858 10.50632514511955 -0.33222046699986657 1.2615888991797628 -0.9733178411776527
P 3.7868874310811966 6.285492924701624 3.7239142925621738 0.03329270061485879 -0.2525242394198038 1.3441771035956398
P 7.076064950286688 3.9273989730896064 10.620941072487012 0.15766081718099945 0.17288251922676032 -0.5581430446717419
P 6.409567404078801 7.675628532751199 10.157096397304459 -0.37291923027080937 0.35670611084605663 -0.6678854409049078
P 2.2365628723446305 8.514190264322387 5.791398080455278 0.13486798765619998 -0.16323214062118985 -0.901293528320551
P 6.747034057791861 4.164315335629553 1.5277842409664328 0.23966666673084527 0.15174239481403545 1.7400951087544676
Ni 5.440821602119377 2.7964367413521156 0.5427289989435625 -1.914429015715774 0.2687694976340726 -0.5683973754098985
Ni 1.5061544785380963 1.0649877000639982 6.964231375921892 -0.6732045391249761 0.45214340331046005 -0.30254762252578216
Ni 6.942921122475319 0.6129892955707384 9.100548984081664 -1.3040722651549541 0.08260003149041904 0.06710527828892959
Ni 2.813081982640022 1.7297021508212516 9.036987514576392 0.14709666851190797 -0.8673153716028933 0.7804429379893656
Ni 6.47556908949012 2.2218545976883783 2.686151835168048 -0.8223115531986934 -1.0298288888905038 0.039963427766815045
Ni 4.141795835725087 7.063212181048609 10.416652641319905 0.7766351342075012 -0.9921414016420591 -1.2384973074676218
Ni 8.075159579890675 7.541235632999791 13.11568077896548 0.18388606942611557 0.2363697411471284 0.6464997761402802
Ni 7.634463466205577 3.512507961586032 8.409219344631051 0.04787728329725303 0.5860091749543909 -0.05351699808153364
Ni 3.304465073602053 8.035768557549746 12.375587552000676 -0.9962834488348907 0.6977763149270693 0.7786807038826202
Ni 0.20463780926048275 4.708883547748592 10.123527136353621 -0.8142030651589461 -0.12918482122849365 -0.20574867382716178
Ni 8.489308389226979 2.3218075066293 5.862351702521635 0.27436653210587586 0.2960396462039353 -0.23925940399009762
Ni 3.8592068861602478 2.9487239543314696 11.759874736525894 -0.8168155630811288 -1.3016253462763583 0.21279889580572386
Ni 1.0491027634352452 3.434631041498403 12.578975384196525 -0.27819387627176606 0.577831781349921 1.175068706699331
Ni 3.0563704223233543 8.544602450688547 7.923371090562742 0.19073523113746507 -0.532767542021431 0.9926185983887937
Ni 5.802645158663192 7.957927842445885 3.637501142426353 -0.3681444345899853 -0.027312828882340056 -0.33010367776717986
Ni 3.322549462994787 8.47558670037844 3.777049631866501 -0.7252351824689703 -0.9050038872926027 -0.23799107880063528
Ni 3.5849179291245066 4.07650919874321 9.283085461000217 -1.2929314180467861 -0.1281926325185534 -0.2040129220829777
Ni 7.396623876579515 6.12101368343798 11.320669363047495 -0.41766028193192584 -1.2793652493265775 -0.21510157579697145
Ni 0.9411304505894376 8.985968356573377 0.03856645383558574 0.42059133953579175 -1.1369860408949968 0.30996319826356294
Ni 4.770187636515853 0.5732461797626525 1.5591413774089693 -0.22592694854724962 -1.7737819594839517 0.9456010919886748
Ni 5.974926573929107 5.637912482513162 0.17175282250288457 0.6225296384779279 0.5419162984002345 0.021635318881588546
Ni 8.250808058647129 8.914735051007401 10.983867975911195 -1.0354243807004102 0.021713480417691635 1.3432602482083253
Ni 9.031903429730598 4.810592398402322 5.779197000925045 0.6785622038924637 -0.09760858908410931 -0.1354400581095861
Ni 8.250083958971745 8.897067018928015 2.0713522904088473 0.5834632686040855 0.11341418865779823 1.2796077043546865
P 8.387527128605711 1.6062884123978642 3.4949992314352287 0.14121886957489227 -0.6969589612320964 0.959705649710857
P 1.73749527357758 3.191930932801321 1.6812028596885757 -0.5600549169824742 -1.176446046662832 -0.0957100865098158
P 4.8275001258225565 1.2706139053813812 8.20202998913943 -0.5287090556813411 -1.5528681478805773 0.4166246415785599
P 8.632345228853294 1.3819442304717857 12.621963371674928 0.24873314780848774 1.5074236423945329 -0.9750242823457981
P 6.4945405009852 7.850616270553866 1.3066360539825839 -0.8511724432944436 0.5433895405116512 -0.3982384257618883
P 1.5729888785761081 3.0958519571237075 6.060863628528362 0.7484357889551497 0.08705189661418557 -1.0925440085315379
P 7.015276782538139 4.166677710820495 6.085649560416782 -1.4036606036732535 -0.19323614318244786 -0.4213968661562227
P 2.6616546380251878 8.595506657868095 10.102305585117284 -1.8401943254709148 0.38136736103816254 0.7774275482018094
