# total energy = -340888.6569331818 ev
CRYSTAL
PRIMVEC
9.12802026662867 0.00000000000000 0.00000000000000

0.00000000000000 9.12802026662867 0.00000000000000

0.00000000000000 0.00000000000000 13.35978033464241

PRIMCOORD
 96 1
Ni 6.4458700084813705 2.3129763794748803 11.495329123151416 0.5847737598853928 -0.9377761966276174 0.3107797806275873
Ni 5.040209691973596 0.7540757755046008 5.671226978245057 0.6212494862139236 -0.7074017538319752 0.7231603022178126
Ni 3.2967487382136977 2.156540372199855 5.011026499135516 -0.8044819812164402 -0.2959013208538582 -0.34488494984141244
Ni 3.954696421979822 4.731107549695956 5.252771156007399 -0.4923235750737715 -0.5426655178614332 0.017488129482434396
Ni 3.973317582841127 3.2192427201385296 2.66002552662145 -0.12716701946751646 -0.9725709357092992 0.33604909671733735
Ni 5.478026044694993 5.063814751771309 2.717846969501813 -0.42618246047032415 -0.11783905719837125 0.3095947591805507
Ni 5.59763961916879 3.1690751220533655 0.2561860973614269 0.11832293881332524 -0.22085519045129703 0.8065134098241723
Ni 5.672909272336596 8.201306924520695 12.644350592504274 -0.24788288399305047 -0.7339748763348133 -0.5909909444396982
Ni 2.409067046331234 5.400072753638352 11.792958257053286 0.3974167011915414 0.2336158325510751 -0.37268011767680975
Ni 0.8250424800302403 0.8249156005518227 0.4776227352704501 0.057833366068700404 -1.0770358855936095 -0.09701543558480065
Ni 8.23911518348517 0.08028641297632239 6.845818770108099 -0.03987421048711842 0.06354147219707122 0.8399066405726374
Ni 8.968608288246838 2.787697317177777 1.5788590197659875 0.3075265637976123 0.7828615747331872 -0.7658041050302682
Ni 0.8055340756220138 0.4727857974565257 4.316531135971069 0.36303976637356833 -0.0970894833558457 1.8269685708092602
Ni 1.7991601319832724 6.804957188443573 0.5158956104544538 1.831245858028375 0.9860617711068824 -1.3355207134722225
Ni 7.479234900043458 4.4196229941904726 3.786923413827472 2.2672820713643276 -0.6245942343164405 0.09138703365442971
Ni 7.633827047272414 4.319059597519394 12.571699768283091 0.9049686631792931 -0.7589310320595188 0.7019690128521782
Ni 8.159226752182157 7.3909943304129495 9.038800023871927 0.339925291843292 1.29529811850675 1.2625538341961933
Ni 6.8168783826028205 0.9429792372245167 0.41211002271276637 2.3967054909661885 0.16156015223540562 -0.8493883548108275
Ni 1.9313064779583302 6.462373468695704 9.546738739266184 0.2586213534564772 0.8003041956896668 -1.4635349114313827
Ni 0.0036868072901378654 5.810395510029235 1.4393956529348402 -1.2454148605230615 -1.752334331133137 -0.1298175697164861
Ni 6.574438170604648 2.375932333622147 7.059468294129485 0.04868512391052906 -0.5340420378584803 -0.05155036127346606
Ni 3.9866536201050327 4.771307349908303 0.7592897005457662 -1.1321117435218309 0.0983521521183532 -0.41515397057030434
Ni 6.040960167968309 6.081534217001888 4.894008020756264 0.13137231579811567 0.3683951171482107 0.24770110699954762
Ni 5.543647380691034 3.0362715586361437 9.394316322398371 -1.3666338899372594 -0.7625740281287448 -0.6041408515580949
P 0.29856658155895377 5.771692705101815 12.549348898437508 -0.10152875007412193 0.8501146914538907 0.13628466549806853
P 4.071498566284363 6.525530239283632 12.853792099291807 -0.06430817515976667 0.026598576424134834 -0.3385178699728041
P 2.5231581686868503 8.852116496623319 1.3710742486139096 0.09323514260676201 -0.09074528630537275 0.6586883477866721
P 6.6982597623123 8.04684256957216 5.706990560722799 -1.4184081942960736 0.8725889612970069 0.039446893141712715
P 4.81493015763192 1.2096725984425363 12.629066635765955 0.8749340644904158 1.1304628950644984 -0.5663798307592375
P 4.131935186903335 6.3881352817912935 8.113047186048123 -0.5784529598736876 -0.0060256373687896225 0.15928883970272567
P 4.755853611997425 1.2203341258376366 3.4256482474640664 1.3767277838381515 3.5940679760667136 0.21291768077177528
P 0.37526659546546887 5.99689921528325 3.723984802918263 -0.8762458413233039 -0.11775575345594558 0.15971564282749912
Ni 0.9284383013166445 7.856879344726757 2.5650110533266397 0.7619045128655458 -0.4701452392045194 0.18637746838940158
Ni 2.0359318435427824 7.046749311019611 4.7918992502940965 0.4646045118919483 0.015275438101831755 0.3065719131938269
Ni 5.806853838257574 6.018706055135043 9.495089663530141 0.16188591100594057 -0.6528876819444949 -0.38303266455572743
Ni -0.42250318631898315 2.7475979251857603 10.454548628116916 0.23623347267958025 -0.2191199529277452 -0.5780109872402626
Ni 2.481671317650265 5.537066078249366 7.015835445583836 -0.14216503553824547 -0.02645999396374153 0.6382671038178427
Ni 0.32395799487654847 0.4430850458827436 9.587966354533917 0.21810950938535986 -0.9280669397596533 -1.8638443607896866
Ni 1.4141585031557535 1.2319814793959825 11.39204466370938 0.30842362169058496 0.5866640349295703 1.5961033044201287
Ni 4.114117291804674 7.207895376630144 1.769743261832425 -0.12047803748311509 -0.38087473767246016 -0.07293679736904213
Ni 5.67724508185087 7.936922952370279 7.751665221850366 0.7147944467516206 1.1442517213184744 0.9694035937249111
Ni 7.363838470823546 1.126781048549637 4.832673202966335 0.10882811194901257 -0.025476547004549672 -0.7990250718669272
Ni 0.9094739269022092 7.639714620191797 6.942890699117683 0.4479239659124738 0.9283178794281947 0.6601225091300372
Ni 5.457049854665934 4.618102661723916 7.510026450010832 -0.24791579411351497 0.707407153148614 -0.6578154582634155
Ni 0.5986684960869622 7.652402568033569 11.202843628536485 0.22340983855235075 -0.7066443068406604 0.6569232854664493
Ni 4.665048068738471 0.5687002935262996 10.483365787351786 0.5726762052909106 -0.10774490618716283 -0.2094747165284973
Ni 8.60502099440982 7.707106792073668 4.8928186397463485 0.28281080621848714 -0.06593619768149289 -0.16344682773515723
Ni 7.377932133749946 6.316535092675569 7.178383575070984 -0.621432034538375 0.08416557620532601 -2.041368235443201
Ni 2.188817051026118 5.625315775899906 2.739930388360517 1.747493200990752 0.1283623253271983 -1.2486197406136046
Ni 3.4429978751351857 4.568081111959232 9.493098842361588 0.4857153257286344 0.9402400847870775 1.3257428081498523
Ni 1.4470285032839694 3.7400875430532774 3.914816102468526 -0.3188941822046057 -0.10557129557461173 0.40783172587727823
Ni 1.8672369053673976 1.54432406878429 2.560775652032696 0.6010038485910101 0.9709771088596181 -0.38335533800246885
Ni 1.067558454594662 3.6211768261217943 8.207888226962362 0.36790069401029546 0.22184995026439858 -0.09145208256441023
Ni 5.646173301668575 3.1447945887734283 4.589258118428953 -0.2704885372077084 -0.6461956146363 0.5464859200487879
Ni 4.286910710973552 7.516760190387002 5.889912430917023 -0.7946896777163668 -0.43617093914160365 -0.700597072205316
Ni 8.192836121932807 7.742870374551411 13.263255908997863 0.40595790589333314 -0.46480300105599953 1.6927276752140974
P 0.24212620810913832 5.882753324807454 8.041197801985577 1.0090800863789267 -0.2024095821515998 1.2163943049209953
P 8.81357799605644 1.8431937006082415 8.01339659138005 -1.2266123831045779 0.533200001573159 0.3282828225083572
P 1.649451475470395 3.530517331183321 10.337370409387136 1.468418464775929 -0.1771631488799852 0.6566741455701206
P 4.003184464379456 6.391448753062202 3.8712234172110085 0.09157986639152614 0.5926973856078438 -0.12869271208342353
P 7.014226175652537 4.176452540589897 10.314872578419067 -0.017191167067305876 1.4433514945049721 0.6518263305595161
P 6.266139294089653 8.068640281403924 10.05001486202909 0.41366350206770697 0.2849216819139029 1.2220733575836435
P 2.4695310510102964 9.046433787023059 5.755286001899799 0.3662518455529628 -0.49943293242504305 -0.08503743728731807
P 7.322981453169034 4.3504873704828615 1.4318613852020354 -1.011548345413761 -0.6693931357986859 0.5345601151454794
Ni 3.0692784790648107 2.038369024890806 0.3210899709831062 -0.5111571628405068 0.7435388658741646 0.9086157730135771
Ni 1.7009700205200067 1.3109662367160193 7.222336817119688 -0.5728587536153619 0.6811585038647301 -0.5271769353075307
Ni 7.134643015888979 0.964567004595589 9.271994464381658 -1.2456498593520033 -0.21068493478651457 -0.5405844669626884
Ni 2.7337963589003222 1.6138978374533437 9.471389672324117 0.06333604105448447 -0.01729786784849924 -0.9001293328091208
Ni 6.706438468259225 2.2606819527227144 2.5121196540645085 -0.15845425961657228 0.09723989289078092 0.2868140138406093
Ni 4.039970385100564 7.289271675198054 10.759231895898006 0.15289990545724635 -0.36026040385621827 -0.1476880222390037
Ni 7.3334056520433535 6.330993876403171 11.407822446331323 -1.2478862048816897 1.7267533973402391 0.31540339544252777
Ni 7.848810175020191 4.220650413575407 8.184160851696246 0.044083363472459565 -0.8916351792951807 0.5206540465873484
Ni 3.0591555048514834 8.975490815349497 12.621264917046272 0.35342641165352034 -1.2651419066383436 -0.7113836212978587
Ni -0.08426349130341589 5.24423006766528 10.421109039538825 1.2790338341290874 -1.0920215603691645 -1.242096080562474
Ni 8.988899876773644 2.8907526633170604 5.944527200360827 -0.6980367676773075 0.010604257878407543 0.020017580772507457
Ni 3.5514478811122294 2.834706620332543 11.4881554122098 0.28927327401437924 0.40762758028627216 -0.37980233054388784
Ni 1.0915925313337878 3.500477017264421 12.491968338924595 -0.44256475848308946 -0.3018151152351318 0.9705986424742766
Ni 3.249611642778511 8.674476098818483 7.880413205968235 -0.3595376667575808 -0.8524258560855706 0.7679987986887419
Ni 5.800738064837439 8.528519058537958 3.457765185939803 0.7648890494151666 -0.9330867615717477 1.1544075788055537
Ni 3.3582076970760357 8.879254100172663 3.6195922018445774 -1.610976621987535 -1.2238870137536149 0.2707186509406434
Ni 3.640227003924512 3.1936660080143247 7.7912096302245555 -0.5340842039503254 -1.788268583135901 -2.5080399142768224
Ni 5.2445404203463015 4.646846796798549 11.670155352380986 -0.47733558630537143 0.7035584688264851 -0.21405796502380553
Ni 8.540020363775822 0.2886672438363627 2.4106653626384964 -2.242899528754905 1.0925339812292088 -0.32283928289528274
Ni 4.7803897298382045 0.3942510515239703 1.2704807294767313 -1.0996554227653386 -0.13449723458034255 1.806112039075225
Ni 6.072305788751506 6.013147090936742 0.6592219553623189 1.0096315880070224 0.7119307520505803 -1.5044367918520671
Ni 7.939843918779896 -0.061905319041807357 11.425657684668042 -1.4069521299403318 0.9137219838918909 -0.4798573242859606
Ni 0.3605303199289534 5.53395342341912 5.893773583389734 -0.7983658410163734 -1.8576495448328845 -0.7946680804498121
Ni 7.522319154585303 6.699510301056415 2.957106979321515 0.08308417021568917 -0.21506532324239733 -0.10023162852925317
P 8.927513942071545 2.363737298861998 3.70931607472997 -1.2416571932528424 -1.4521721781203958 -0.0741513865024336
P 2.1857865483761407 3.8048873572466135 1.4953869277991771 -1.1608790454625104 -1.1321073726464566 -0.060315766170921936
P 4.706507535714967 1.1212403403913958 8.19993863431819 0.9432868420332012 1.468898489736141 -0.36684962703796176
P 8.650551558319718 1.740631267550581 12.481668281122685 -1.6555940035865937 0.6964305995324522 -0.05432663846702257
P 6.6440301953137615 7.978382419346774 1.5626805170647238 -0.2107049893911726 1.5799822304885498 -1.9209130807782209
P 1.9492156532572917 3.4984779808778397 6.071178478277796 1.3159780154536045 0.9107305053637347 0.6230901389670882
P 6.987298516563885 4.379423193978125 5.950526135124578 0.15118292276613962 -0.7520391900356919 0.5503939968539424
P 2.3220678874248115 8.644399272819463 10.316195228521421 0.4850411824797453 0.024449391291615958 -0.4499690213669606
