# total energy = -340893.2595689636 ev
CRYSTAL
PRIMVEC
9.06029815460364 0.00000000000000 0.00000000000000
0.00000000000000 9.06029815460364 0.00000000000000
0.00000000000000 0.00000000000000 13.26066217823820
PRIMCOORD
 96 1
Ni 6.317745828616171 1.777186522341733 11.384967575982387 0.9308128779359067 0.3964036865459947 0.2931191301230307
Ni 4.7712616754613775 0.4701062486188298 5.912133499589824 -0.5116122481000545 -1.212934371396853 0.33583595226526675
Ni 2.641040639693531 1.7915017932569968 4.8087269139181545 0.7900976874703103 -1.1715848619157887 -0.23951317187211651
Ni 3.640980433720813 4.54077675342758 4.995994214264731 -0.2381134633111125 -1.0692372154847973 -0.14230876020496136
Ni 5.226614134739438 4.55882486713847 2.87397003014058 -0.4646842160899481 -1.3436186599890085 -0.7904399013010774
Ni 7.123124782368529 6.296318223733512 2.7894202347898513 0.5449134333553454 0.010961126997194025 -1.2642736451007774
Ni 5.103294418013072 4.4553019016461874 11.322656282189579 0.8537795418999876 0.9921061775287495 -0.1849710749601782
Ni 5.669445262115667 7.849135525223602 12.561228018255091 -0.37122847283194776 0.2125245590984146 -0.09361206633020652
Ni 1.2966101932990555 6.699718934006431 0.3343793597460324 0.8555636303836041 -1.0736764822030733 0.7712458448711298
Ni 2.56536903039968 1.5969047117898836 0.33792918452109594 0.5327125204137793 -0.12122699983399765 1.3593399273790072
Ni 0.5527397909324838 9.385834556486948 4.806990054782423 -0.5485913964275649 -1.216367308337802 0.4564134914407236
Ni 8.52485255361625 2.4828840769740075 1.4298174132848056 1.2993177811891041 -1.1951582783603547 -0.060947229107333745
Ni 6.948288210943308 0.6229897178746298 4.616301585893059 0.23836903096534431 -0.19773428816311753 1.2477913311750382
Ni 0.5507401831533707 7.760607353000156 2.571998450481135 0.8548730320744825 -1.3721375933643079 0.2736985595045738
Ni 7.729014093708052 4.052018975247888 3.92009016331666 -0.5908086532255632 -1.0281810688744355 -1.183422220870349
Ni 7.463429577037715 3.7467865943210987 12.743045549326014 0.3817939070526199 0.021181262063305457 -1.0380862438032896
Ni 7.9444589209827745 8.78011739081033 6.778213732171925 0.03900389206702315 1.0636774620088325 1.0490648543019803
Ni 6.816225306600975 0.8417787011587343 0.4447718432180317 -0.10343856550232508 -0.7667122186668344 -0.6186393022845862
Ni 1.876260881492626 6.383849763171718 9.278206369949283 0.6838422213444804 0.7199235404480698 -0.34326129819506046
Ni 8.913720545820762 4.776208598195386 1.3852751760230206 -0.06691090288993637 1.425405451549513 -0.3034120274086065
Ni 6.436789084664052 1.9027984944741503 7.007530781787382 0.4554714392424285 0.5280914767020002 -0.04632279432593958
Ni 3.407650578100058 4.379630292352337 0.8811248574902005 0.6959153504589305 0.489435454892699 -1.4153051298907176
Ni 5.96871596692711 5.701980792404725 4.7446379896484006 -0.06852015635858523 1.3534479873746046 1.2832663841531964
Ni 5.3625639069442075 2.9435186900138386 9.258792869322614 -0.6272193306441133 -0.8240069386232454 -0.5394552384542516
P -0.037418124906929466 5.539864879438384 12.150691417239855 1.1593744358925258 -0.5500258148812462 1.50703334893465
P 4.201622616610444 5.965943515724535 12.620782263352005 -0.5741044530970048 0.06063998227956007 1.2910311157002798
P 2.3244557053130546 8.608216355952544 1.260648964318186 -0.9114750968392432 0.035505134885145305 1.4949712755637932
P 6.3254561422547075 7.765065019639593 5.746706953716878 -0.6355440484597249 -0.32967224665671613 -0.06713407464433599
P 4.738064743414841 0.9243678480119549 12.823616967804027 -0.6484455870127412 0.460901094898432 -1.6620248468136023
P 4.0039631544032295 6.245662097349182 8.14431369340693 -0.074306166912743 -0.589938591915784 0.4934805714963501
P 4.454631439590663 1.0440996867114567 3.803661709285325 0.324249532979248 -0.19557636127985029 -1.168693913521239
P 0.016681820765306315 5.759993880803734 3.592088347366358 1.1611112160779744 -0.2065305462985088 -1.0449382337281166
Ni 1.484149302587061 1.096078616610741 2.8051335096938654 -0.5875978595977494 1.487763444961444 -2.003873580931852
Ni 1.8037694368134953 6.51078453881909 4.706646347875056 0.3107070184081229 -0.5923713697269927 -0.17133162979987265
Ni 6.112774705884514 5.566828326428147 9.190845164114371 -1.0590700451438084 -0.5762502957954141 -0.23603678328774189
Ni 8.634228471647305 2.2434657010652415 10.015248025677352 0.6901002864390503 0.2174165970833933 1.9325866604614073
Ni 2.3151870204103235 5.432455046083667 6.849105128215844 0.097094111341536 -0.7875872623436307 1.0426648643129075
Ni 0.7582672159642644 8.874942470176883 9.105871346815015 -0.1481657332063706 0.28124449017263176 0.015283665631947873
Ni 1.4497473509001892 0.8558439078478836 11.652581599415395 -0.2811640146436835 0.8517617401390105 -1.90941047945526
Ni 4.102756644314646 7.0526900253462115 1.4567364648141352 -0.40640502073308077 -1.292381201970271 0.08561310728512997
Ni 5.761715337432785 7.636843681669456 8.005170166140369 -0.364918728563836 1.1940028245996726 -0.2606926341632091
Ni 5.313185282584594 2.620528124913684 4.883862153567586 0.42675838757845214 1.762091924740533 0.39852073288899753
Ni 0.6555252481636884 7.278427351203048 6.929345845815117 0.49096063328797385 0.5870502146243955 0.24283040917080756
Ni 5.224484964698243 4.769703304197185 6.982388454705194 -0.664450704191746 -0.13483559175636778 0.23600438738790971
Ni 8.217799052781887 7.103545478287589 9.176497276126137 -0.2576435629242401 0.1536828063698579 0.051066479658512055
Ni 4.776625371905578 0.2658907547443468 10.220085055997902 -1.0375414270434131 0.30626106682162735 0.2102095378119928
Ni 8.265447160214402 7.211281482372022 4.889590980023105 -0.3014677591980421 0.8998375126003147 0.02965921762732957
Ni 7.331257949118809 5.979932615910084 7.0946401113365685 0.5919070284960645 0.7461562488923535 -0.5787422089793323
Ni 1.924724415749428 5.410665029279104 2.5164361727040108 0.8210756239090633 0.780469934572559 0.02738944775654638
Ni 2.533902615280242 5.070867611300585 11.502244979940786 -0.9653931870139374 0.06216310379230586 0.579475487600931
Ni 1.1461730045161174 3.5623551672634326 3.9483093676158245 -0.00911018983138431 -0.507368642332352 -0.19955900007668212
Ni 3.587642459114383 2.717246806572192 2.625253070345526 -0.06486893275924312 -0.10149018352670262 0.2452431323773583
Ni 1.4777617924634778 3.165949007083288 8.21293820287933 -1.376284782763462 0.8276759028344004 0.35639757846670234
Ni 3.809800967242403 2.9369046724390655 7.27407025387194 0.29967030097798714 -0.7111771617140075 -0.14958781036487787
Ni 4.081763933738276 7.043548184616147 5.968677007645506 0.3623180577161954 -0.12175356176142904 -0.6941688000814691
Ni 0.9254913249698616 7.391699197394585 11.3522934231332 -0.1874802145352771 -0.4013530601314701 -0.37617501820394567
P 0.3206575383528885 5.419480699279453 7.9651626080514255 -0.12913082806210666 0.2890339043100635 -0.010171284106046998
P 8.78245494770662 1.5418180996602602 8.039926375480903 -0.5397293180512447 -0.9875003033256219 -0.9968375215661477
P 1.934491417044779 3.0337864394624305 10.383283674580936 0.1876951587595606 0.3023375633975051 1.440161012592133
P 3.966417279293829 6.109467697097127 3.6229721853213324 -0.9950498335381056 1.8008371638295306 -0.42209106400976987
P 6.97498890928969 3.7332233281437888 10.318001509058307 0.7349629512796956 0.8366081723270237 0.2625363722401672
P 6.240814837893698 7.82688343321861 10.283510766450568 1.5261176192596104 -1.1327149243234687 -0.4028962362488739
P 2.2364077288861335 8.330617884071042 5.697535810182555 0.6852725260331036 0.7550458380724997 1.1861540179792154
P 6.89605559269869 3.9359112557674405 1.7256098696757636 0.030227945646606 0.16821596698902644 -0.5564440597027642
Ni 5.391420956225926 2.7525366674677323 0.5369558457036981 -0.967797939800688 1.249194639280468 0.4603344237616846
Ni 1.6875982952467141 1.0166379233290739 6.958731110473013 -0.03681871149024627 -0.19828553268089721 0.2254667210813794
Ni 6.995555785857823 0.5921529934695026 9.123759999280265 -0.11763542582799741 -0.13744294747222782 -0.20077590320291874
Ni 2.836217580235693 1.38924268053808 9.204702889978229 -0.24806774631034695 -0.03298468245613674 0.6001954937571018
Ni 6.450841606935934 1.953327776685813 2.678003937638469 -1.1166473293376444 1.0109701043127877 0.3520665551915163
Ni 4.143373960462196 6.93882019948353 10.697840008228546 0.35187500800600047 -0.8066139399577785 -1.54855049434183
Ni 8.022776137306534 7.10205052910973 0.22145995914854752 -0.48562610844893794 -0.314210146465375 -0.0670314876282007
Ni 7.856102894422233 3.674349511430254 8.025578487492668 0.17608508532445805 0.2903294831930355 0.3002223168267152
Ni 2.980095113232143 8.080671441830924 12.594924172724053 1.41317908468665 0.12437017344866967 -0.8135404918742828
Ni 9.144196407556512 4.837356549718878 10.030365132969832 -0.07125375323966437 -0.9899613632716047 0.8020875128423347
Ni 8.890136590002767 2.4009427414311926 6.025273971459671 -0.22844174454930335 0.5796498083952663 -0.5510740536401025
Ni 3.839573106626933 2.774190779801581 11.841625624209112 -1.5872880201213437 -1.5780665015230757 -0.46856632475317367
Ni 0.9827161674387269 3.249258447631296 12.457264722277694 -0.3099151186344469 0.46806315986451 -0.04231881537286905
Ni 3.153364253095123 8.302684985190183 7.9457889727361675 0.18361096138785798 -0.006192759074273206 0.11861090236738928
Ni 5.466422103464252 8.137497631185694 3.505694781362935 -0.10603409414364318 -1.0126667752889205 0.7549699905292417
Ni 2.868472241285275 8.38699105852343 3.500721583764588 1.1031863187367323 -0.549577414489918 0.1507365792573404
Ni 3.405738855212007 4.432977327256815 9.366018778626964 0.607755822602863 0.019672281617946766 -0.7112818056126717
Ni 7.120071461926476 5.925543646730129 11.231157238236312 0.18501838325834585 0.5084266512832212 1.2934104145657337
Ni 0.3227015415924351 9.025506503132489 0.31625242144212823 0.45403599234748265 0.10747674012744073 0.7543431555785202
Ni 4.54330457658287 0.3079205713575227 1.6289790729083178 -0.14614947410729023 0.9169775147147111 0.010928216876729567
Ni 6.013057065572239 5.578081216603311 0.5371533602011366 -0.07567990733181805 0.09818014531686317 -0.2799455688555501
Ni 8.005199159094122 8.607989848501353 11.368856553994082 -0.5905913950084345 0.8183505116684164 -0.0008988576651855487
Ni 0.09043264687305855 4.954886735992805 5.687709916949894 0.08839786911911873 -0.4203902792685792 1.0774418627827769
Ni 8.03467230864308 9.306556948570138 2.3565255362824646 -0.13426686373709135 -0.7815341141710154 0.5645553759559889
P 8.525858246699539 1.8671009201664668 3.754637342579375 0.12225286999535076 0.6698183962615625 -0.31218848804965593
P 1.6522178313706977 3.3773167002365745 1.682499159505505 -0.19341689173468626 -0.8726462968975035 -0.6633885814758188
P 4.690244490319421 1.0742614189120352 8.058451060869098 0.6395063755415825 -0.47516377546503324 0.5015013849182975
P 8.469430710458864 1.5731033088187454 12.47628047582007 -0.021412918458137316 0.5441775836305853 -0.98832794143324
P 6.432113970871471 7.903388589932843 1.4451465315516 -0.5817596556494175 -0.14743245458477192 0.5611869737043884
P 2.064805683863919 3.272017916326956 6.129449278411383 -1.162439705081411 1.2568868657184031 -0.8659385458600247
P 7.010414674655944 4.112115932197854 5.948242411428869 -0.16825581908802634 -1.318399994631536 0.5771609805351415
P 2.5691290540894487 8.433416025719515 10.341088960543292 -0.22099942933864522 0.7102672483052284 -0.6147001151311801
