# total energy = -340864.52525972715 ev
CRYSTAL
PRIMVEC
9.33115942724507 0.00000000000000 0.00000000000000

0.00000000000000 9.33115942724507 0.00000000000000

0.00000000000000 0.00000000000000 13.65709502982152

PRIMCOORD
 96 1
Ni 2.5730205814122384 7.590636995784425 11.869231174991874 -1.6138883963176915 -0.6620410663089888 1.1567776216996273
Ni 4.468393696276327 8.187168692638776 4.300837797267508 0.2329370613164956 0.3311462600990813 0.06302468046165276
Ni 2.688269732624491 6.646855528610848 7.432150050711577 -0.5650698536985623 1.3040190433195156 -1.4014129452896573
Ni 5.486619154088018 6.502166569117917 6.034182792021499 -1.8705845077269976 -0.2715876838091581 0.22812241353667165
Ni 7.6440205593894195 1.03516151233766 10.738232122588173 -0.5904677249463766 -0.5332048866691655 -0.23799930633075136
Ni 7.457509342934842 8.213249283492816 8.290361985753204 0.6160879966176421 0.9068136868078318 0.21815527502163073
Ni 8.52814792376161 2.9557100955824995 5.545203906008592 0.8449159208617708 0.11177793860595588 -0.43152392728789557
Ni 6.879649296276889 0.8362725127818706 13.202723853873339 -1.414568251724693 2.1232660986602725 -1.8681599574459054
Ni 1.7194620956224573 2.684061379681674 9.258800108838308 1.6899974207671282 -1.1012844737283292 0.6490084014947467
Ni 2.993669252503514 2.9869041618526446 2.2462918971059653 -0.6760787753489776 -0.25039485178162685 0.6314099716866932
Ni 6.278162753718247 3.1942798509904553 6.098152556100165 -1.2933893315198113 -0.4941791402252715 -0.6733318087314597
Ni 8.416360632730699 4.321810511401153 12.466127720183398 -0.97829498267727 -0.023765992071346168 -0.08215754463636173
Ni 3.496861360694909 0.7287262337520903 2.9150113102268715 -0.23556241475448464 0.23638233955261873 -0.002450004202389329
Ni 9.00487686355871 4.5574409515608 2.5473486953451063 -1.424922084155191 1.3174075488112795 -2.208152869302339
Ni 6.3518789139139225 4.558765976212419 2.3227710136350512 -0.31430450595139414 1.4058684099578496 2.4241548454263926
Ni 1.158902018711693 7.378166493549546 9.56476043140439 0.40625666808067457 -0.2908131076976734 1.42821489597385
Ni 2.969837471093418 4.601278738978431 8.435290756045758 -1.42646757426544 -0.1824277397130342 -0.09533959054427452
Ni 9.111140108154705 1.9738948222117612 13.472355173086276 1.0109261384487298 0.9169937126646273 -1.4322906087051204
Ni 5.771396811431288 3.2396666108881473 13.543167476439816 -0.24332097565398095 -0.03870461565904947 -1.3069580713431814
Ni 3.5614049910839585 3.8810625227071576 12.463765070593327 -0.5928794197116628 -1.098066995232296 0.5884951746010382
Ni 7.320266648737626 8.969707723333709 2.569910505944742 -0.5556246491252624 -0.23115040172971804 -0.05380341897370089
Ni 4.240508118516985 4.502741694463705 1.2670865490525343 -0.567336538245552 0.26110169667616967 -1.7077516594267557
Ni 5.970225158450209 6.87467578825356 10.021617733891018 -0.12864900332968165 1.0724953174107787 -0.05132564685716968
Ni 4.7386520694089045 7.966617406260928 12.980946453134768 0.03891210368416524 0.002463116828511887 -0.15269653119718862
P 4.6669421085096925 2.940957532383846 7.335416719331764 -1.0086196018027405 -1.7204662787799465 2.449642448174536
P 1.5365340444229598 3.0859730824599216 11.497567358908602 -0.12719067361660033 1.418251614113551 -0.07065160087929123
P 3.9101290846070986 8.206362887768206 6.397079050621246 0.1950791099284576 0.6542490810683957 0.33383923355021217
P 0.2689660075392738 6.791339202594373 11.443785354792169 -0.31958658028593995 -0.12959928305809293 0.5476861110044762
P 8.39045733390751 0.36266577895964097 0.7842904893365451 1.2986359246307313 -1.855697049092204 2.5885966900849677
P 7.196992700339515 1.1896015335273604 8.182675739330646 2.330732526509489 -1.37425335415573 -1.579506576403712
P 0.34481153833705785 0.19955524434540603 10.1536816345555 0.38031577984519666 0.25934923276143723 -0.41080186424919574
P 1.235716123867491 8.503718948142335 2.715071622109306 -0.15092298423653364 0.5686040921040659 -0.35673002210545657
Ni 0.5184401559604783 1.50477077742219 7.402896865621268 0.06660417028279497 0.4679122361089425 -0.13619570532868805
Ni 2.6961918870556465 0.22267785763210035 0.3964081848942718 0.5248308036728575 0.49199910185481716 -0.2833396821387636
Ni 7.051949156784884 7.906636712876396 0.15526582880708242 0.2618889684641554 0.679876551828513 2.4551476942634816
Ni 6.493693876275173 1.771240699790281 4.239817612712621 0.2454555054984805 0.06770100289139953 -0.5309731691251695
Ni 3.577874487634005 1.835560382350888 5.122202849602718 -1.1990195610879737 0.9496192120091321 -1.5104418603955665
Ni 4.649166249627065 3.7966155290652757 4.293708791395419 0.43978025375941676 -0.8971879907926097 -1.2332118906989664
Ni 4.262576310778096 8.501330171305614 10.636172565355237 -0.2807539236894584 -0.6150428431825794 0.5187146634727906
Ni 1.925606071703834 3.547986783696442 6.2726359079354745 -1.2099297802425744 -0.8598702281787578 0.6623367431725368
Ni 5.112504975515203 0.2887434001386074 0.9885645010504263 -0.05198179238392983 -0.1486393304086795 1.262113147114349
Ni 4.040504045398742 4.5965478411025815 6.396560238152021 -0.08516059312874366 2.0845622543321713 -0.9910983050895253
Ni 5.347696851177483 0.8769461040067987 5.952417573625217 -0.35907486818854933 -1.4849213475269587 2.6295397081562326
Ni 7.5814271413397245 7.170352239914369 5.95707475534087 1.4530175568398267 1.8123814170237045 1.0288009618466216
Ni 8.42119417336125 1.818745632898659 2.9978010899382785 0.2610677581144407 0.5185462562157264 -0.17310491965021155
Ni 3.179014074018287 7.769254051286403 2.2412521378500556 0.26670850133998586 -0.5809649276622639 -1.3663119878214662
Ni 8.88578327462486 8.821239644235812 12.313810537784141 0.3145418187731808 -0.33822784953621104 -0.1051429497879415
Ni 9.25670619664237 8.598122288990393 4.505434667100726 -0.5009568252687372 -1.6378094259096632 -1.0230483756335607
Ni 3.1455338736661247 1.376234055055679 7.346725151552162 0.15790430065037322 0.14712443642604983 0.015867048939243643
Ni 7.705494238296903 3.4391388079138387 1.1058618417769763 1.2416785334090807 -1.5132225084644972 -1.6406132139070455
Ni 7.35798319551116 4.695682079826488 10.07221687949571 -0.34960600946616566 0.8685896103296268 0.8345219792219563
Ni 0.8979076207490223 5.035289630500112 9.755126349856035 -1.0942990435494315 -0.8918817480883479 0.9201690250688154
Ni 8.780182542354675 6.027826406157539 8.01335531805689 0.03422369706956042 0.0776156909019502 -0.6151210047186825
Ni 0.8700933004564564 3.5159995688672296 3.782659846889497 3.094991912760457 -2.060357889171826 2.3696004072192802
Ni 7.429889110760259 6.711044574938196 12.015717315808056 0.5447643093719907 -1.0565477929425868 -1.3465330054223263
Ni 8.970995423347254 6.891266589877347 2.646539854142075 0.12414417348079265 0.7889118946923251 -0.94944669098701
P 6.588946352639408 6.322392449835652 7.945821051042181 0.6580990509421053 -0.12439099938427609 -0.5183305406604943
P 0.702284527024687 6.67806825720003 6.054654422889006 -0.8805668372961608 0.8073395052698935 -0.07028161913438219
P 7.9174048709606755 5.873386384967838 0.958286754644992 1.4280259198914955 -0.7670161230604984 -0.39793812091265013
P 2.6327866581278467 4.84891838143831 4.643822294570854 0.00752073385707737 -0.4371906386553696 -1.2617948445429819
P 5.334773195244444 7.5149332986113215 1.8861809896224733 0.8894775095222295 0.6289530255057684 0.29810321360118336
P 3.4432351869424345 6.481721998613016 0.1184861304491993 -1.5305373455938607 -1.4239553493665478 -0.052666477155780274
P 3.476491439466155 6.731339846890804 9.396751038042972 1.3591440093181173 2.1797725183874332 -0.6310525883472745
P 6.69409918925271 3.0364246254170055 11.54755158110103 0.5472207413322834 0.07525413264830912 -0.341812738673992
Ni 1.992790420236602 5.354200669361837 1.860819831167305 -0.05746235588252684 0.07221328893945629 -0.05547977823485929
Ni 7.496812186826511 3.717114049968167 7.761176999607242 0.2356937981260263 0.9410155295005214 1.2875534415643246
Ni 5.23191582387268 5.521564346484576 11.896668516439895 -0.07399300654769836 -0.41817527389513137 -0.5191512367895769
Ni 5.262046137957723 4.938422863539187 8.836167633233412 0.7568008730903935 0.431538839686231 -1.4352962283006636
Ni 5.650474315231825 2.3772435235558484 2.2144026594516966 -1.0785093848153426 -0.6496604332564488 -0.5453932012052414
Ni 4.1841945708232 3.4848055025970845 9.973530536428688 -1.1679210399109563 -2.338177927043941 2.627652775546165
Ni 1.2055391539848561 1.4912965830775624 2.1015945395694677 0.3551104842241626 -1.1786574524918538 -0.6776849434938328
Ni 4.649819430793356 1.219087997605631 12.123212273460487 0.34581723184769475 -0.1164257217906124 0.3038719977641605
Ni 1.2002950423354928 5.271983822844861 12.647002916288837 1.4952181014672765 -0.3344282732844628 0.3422644814994299
Ni 6.513326635901971 6.824455487725316 3.6711776847748387 0.10632565724213301 0.48372092100642494 0.04241317485888824
Ni 8.445231240280753 5.674166129249143 4.562658002847559 1.179337509278014 -1.3539894617003714 0.6293070664110774
Ni 2.628690279099251 9.114555312538453 8.923395312411788 -0.09538329929801638 0.12762570427148986 0.5211572114760121
Ni 1.2307612781631991 7.810647074910203 0.5231981141989309 -0.8399992002864437 -0.9105626123273028 0.10006193572060831
Ni 8.808493280333622 2.9048552762070017 9.661452705682319 -0.7950524603724243 -1.3076281008270123 1.4195682760424455
Ni 5.512074557254323 0.1850387594825689 9.079401102168683 -0.24640321412373048 -0.16781256090302066 -0.6990050451278478
Ni 5.891526159071685 5.873237086415543 0.5151779825928318 -0.7356671764355717 0.4550919444158226 -1.344283290156201
Ni 8.003102239978029 0.3913189704929147 6.173511933487038 -1.0451781176530646 0.5989125132796203 1.2067945770477024
Ni 1.4354682556787361 0.9526740621946505 11.93886868536204 0.9497194850324225 -0.1407982370977059 -0.44747222308703577
Ni 2.950335347699878 5.387960804499552 10.734899965524137 -0.4291322871272674 -0.9245977502641303 2.0122638618780764
Ni 6.118133367977 2.452443338114956 9.314685356310196 -0.3147742464989611 2.0401305063813573 1.1342904963407043
Ni 2.2091240225121154 9.152374502066692 5.283451817893025 0.48321801322807745 0.6551427965272588 0.782347096990614
Ni 0.597141021570905 8.316918465742685 7.644217446855259 -0.5702380281630631 0.43187642553130784 -1.949583709240036
Ni 4.327941083204768 5.775185262195775 3.179290276340033 -0.9506044587405371 1.200672009089732 0.5024814894433798
Ni 2.2056714934902923 7.051370624894741 4.353799592462268 -0.6023158825342143 -1.507705692411326 0.03879717537285576
P 3.752665767733423 1.3049066716967235 10.205770033219334 -0.6701876066755231 -0.04632639387036538 -1.7341247501036459
P 0.23028835133534 3.90868275488174 7.977286654054312 1.9327072451996714 -0.016996020337364276 -1.6765603214256157
P 0.5171533890628854 1.1841148117305178 5.129004331775709 0.03503950810263643 2.1230776367985498 0.5806923907271676
P 3.871460759562683 2.043617246133545 0.31792193595276924 -0.005588292721054892 1.2295724941741661 1.3074080143964064
P 6.543671566655938 8.920308564843088 4.70951272446472 1.1293498645059776 -1.032022554107713 -0.43700320523491193
P 0.9832522719365783 3.424395575874704 0.8273836502246046 0.04116850381850974 1.426887435411678 1.4584263865602236
P 6.321123412141144 8.710180183647338 11.557944626572668 0.5918278385186969 -0.779336078078432 -0.6647332684291712
P 6.8961747797840465 4.144229214605721 4.3848835510500965 0.714805245384898 0.5643383748491765 -1.1121198737809364
