# total energy = -340894.3168920461 ev
CRYSTAL
PRIMVEC
9.04913839573993 0.00000000000000 0.00000000000000

0.00000000000000 9.04913839573993 0.00000000000000

0.00000000000000 0.00000000000000 13.24432874309510

PRIMCOORD
 96 1
Ni 6.43978302446253 1.6286638985433295 11.320880946138011 1.9741452006294837 1.8817554367421527 -0.13256402211337168
Ni 4.523790888856484 0.4880607458383443 6.0460224431998615 -0.1787790872168534 -0.8208208275857798 -0.27305012728729744
Ni 2.9857903062343993 2.00118977203668 4.783837783984939 0.30696863441161326 -0.7269709342131544 0.07103109570589702
Ni 3.468751862680427 4.458682339295315 4.952570730153449 0.03594427930509294 0.12336230100944559 0.07824818227962653
Ni 4.867350470877242 4.592808666132792 2.564909457697954 0.90915750444966 1.0630974211356465 0.6123228731482552
Ni 7.3369326868104725 5.973770503920334 2.3835954946489863 -0.8174470260175407 0.5893721778893527 0.7820498774651693
Ni 5.108012302090486 4.480282632249104 11.553518001569346 0.3247529549782278 -0.4603886740383877 -0.8123472428971301
Ni 5.576992939971955 7.831802909166507 12.354507901435454 0.20783126738780336 0.4782480708173118 0.7189884302283102
Ni 1.9128701829168728 6.3493549861352525 0.41986463031327353 -0.006769200403033504 0.48810542322736583 -0.4638614630783366
Ni 2.8303894554193945 1.6827053520498345 0.2853039448407804 -0.027983886807435677 -1.0345450634192506 0.5947020747426984
Ni 0.5555546482368068 -0.039438859145579465 4.62646874560502 0.3444090386462585 0.45754117728726357 0.9823131026977276
Ni 8.893683083844058 2.1364562902910733 1.4933774721848314 -0.09474849392749489 0.4254334981194415 -0.7234719199209605
Ni 6.793305707673955 1.075652963062832 4.783745482774998 0.6353553294876864 -1.3635634785420516 -0.20319402572610812
Ni 1.0930273084634496 7.589195513233922 2.8250287459322454 -0.6409806460942639 -1.5535998838402791 0.171706239530472
Ni 7.573440963576383 3.951912500167503 3.7994797666917703 0.43169799097191464 -0.7728905795634043 -0.10757315649598892
Ni 7.45832687615906 3.749229902103421 12.674490858713103 1.0522383669339557 -0.18584602136596381 -0.1368366813467966
Ni 7.446581094737184 8.828936499812068 6.875090914078249 0.7611097848783924 -0.13027728296172403 -0.2900024388709199
Ni 7.026701080888921 0.6974270373987266 0.3036565020840059 -0.19742292757028582 -0.903820665617779 -0.07679705165539678
Ni 1.549474889897076 6.535640545727501 8.95246447595517 1.2092659214063302 0.6852838388870134 1.5456430908870478
Ni 0.15249155287422442 4.6132416202549775 1.4050117324600537 -0.2869556816247961 0.2929630641611406 0.5507958602780513
Ni 6.265795243724156 2.101553764139936 7.044803881917012 0.13659576898058412 -0.009604870079615715 -0.0808676221803446
Ni 3.4209090688611217 4.158522424223183 0.3224533720142993 -0.13588331629459177 -0.268550439644731 0.5489523793114095
Ni 5.950514218670549 5.623315478568706 4.765693356920992 -0.7510678272613581 0.7439011343095899 -0.6007426245098234
Ni 5.418325350256105 2.8261454095897642 9.302617260089933 -0.3189882845803087 0.23795482624606115 0.06535872791146809
P 0.11454489662268762 5.505061340185751 12.472528572052086 0.6597527844954444 -0.9412122188923597 0.09119728624112682
P 4.0072027347496775 5.977308716968064 12.67816028426516 -0.2877054153066271 1.641964328618301 -0.008765662007771999
P 2.2881379452937582 8.47389356137809 1.374138787562508 2.184853018234134 0.5605606529742991 0.0007021682733471778
P 5.982267644717824 7.676863564401207 5.795254534411924 -0.27823347126044984 0.8748348199083901 -0.9679012981477718
P 4.83430301806315 1.0057483702400338 12.438874826976619 -1.4859731858302407 -0.42669359577878774 1.5701475037863153
P 3.9615317341054492 6.2666006170265804 8.358999368019743 -0.5800028208593108 -1.353313004458637 0.6336663718210377
P 4.918107087206443 1.0441348146095237 3.717351597948579 -0.6361161189131109 0.8164903185312261 -0.04490817336660008
P 0.02415576958979644 5.710911136630155 3.6000340453723765 1.2852862427967027 0.45500478401865513 -0.22891148509687026
Ni 1.7222410369744694 1.2525545663111015 2.8016521071440077 -0.05255669105079336 -0.31259446523882295 -0.3754093436825148
Ni 1.8591725966630883 6.299856200019951 4.93843959589428 -0.06452363360468243 0.8034375991123259 -0.670537276705458
Ni 6.022871127953539 5.4697787502289765 9.14400396520346 -0.8084756757568657 0.7477868425172411 0.9908455656487709
Ni 8.628009434564508 2.3469301963707445 10.193749245515265 0.3626677277461302 -0.0611860845910172 -0.22969258623726893
Ni 2.31146662364938 5.169066837724846 7.2260925073789375 -0.18264834036427252 -0.36777779527918597 -1.1595518420106548
Ni 0.5270254301406985 8.917934774299086 9.214383637783305 0.4054123178025082 0.5635462179651842 -0.004404556825598866
Ni 1.3851334905113366 0.9565844022392229 11.511282053797032 -0.15108882039043656 0.9683350432510807 -0.053881580509803975
Ni 4.2766951203620724 6.7471098570124175 1.6796060222062348 -0.018403442207852175 1.549836560143105 -0.9754266599905395
Ni 5.476719439250993 7.902386187356518 8.126958650797732 -0.5810978536957024 0.167791220746782 0.13382000600765984
Ni 5.4742852210672615 3.0930135451156078 4.685419356601023 -0.9304423819703653 -0.3538380452696422 -0.0061881310885828905
Ni 0.6457139271586689 7.603954657686218 6.7575742804609975 -0.4113739347025819 -0.4535767933228769 0.3850998314974013
Ni 5.092149162774194 4.602500293176574 6.987349998384167 -0.95672882647072 -0.2390547441784593 0.3636388334101479
Ni 7.975340339762654 7.2190133665420095 8.960039509567075 1.0939205771640903 -0.37380111865513044 -0.4621437090562815
Ni 4.745811495316984 0.4014179620324613 10.33257569474914 -0.9414945260194689 -1.580184062086711 -0.3796434363685203
Ni 7.871103316497176 7.363835774766742 4.727311437120616 0.4691797899674565 -0.37195686635754005 -0.3262408523776639
Ni 6.966307132345316 6.223056163866282 6.952967797681226 1.397347259860716 -1.0969002286177043 0.32042733101968046
Ni 2.424870423941329 5.309237988899621 2.481033900362649 -0.5303751305298543 -0.9063274912000326 1.009318684752294
Ni 2.385488574366595 5.216258093591628 11.262023541265771 -0.9014022859842734 0.15505294724450716 1.25556480447287
Ni 0.9942016698592064 3.6174473020673807 4.022924707509591 0.5567734180177251 -0.34169292526667605 -2.6750189235349544
Ni 3.9760375026873196 2.568054938146524 2.3952634534820887 -0.6724293515218484 -1.1161819596654519 0.6650484856767449
Ni 1.102854672580674 3.256088065149219 8.22131130037514 -0.8134379048581475 -0.028744933343176304 -0.18005358305390282
Ni 3.4447264006811347 2.7906003946243336 7.361197950972846 0.2951225337063046 -0.01193017577868268 -0.745253020351794
Ni 3.9177610524894138 6.886846649552178 6.27121567752362 0.4241476894284824 0.05769684049083612 -1.0137592370221509
Ni 0.8480001729682994 7.297623230341576 11.329807921001402 -0.26569908623886496 -0.8828538335581247 0.5283722411672127
P 0.004280242382548032 5.592856079288248 7.870455398199945 0.2990434660272656 -0.02072154881806754 -0.25488091257743845
P 8.571280387003844 1.3509458462803292 7.865356208807627 -0.12192788255576421 1.0532529242413988 0.9237909380921189
P 1.6551416770028127 3.2866470049502015 10.37645496602393 0.5860816800635391 -0.566224793238612 0.4361624545011714
P 3.9501388690745234 6.371661111870941 3.847279124647574 -0.16261970384817154 -0.9341861652835137 -0.21212860921157659
P 6.9738450644904795 3.8549962297296823 10.451589960743371 -0.05741530469467532 0.5541406083805682 -0.023660062621101187
P 6.430489559500845 7.7031603600961 10.213045627875827 -1.629239681962781 0.3302890543051086 1.2364666501908383
P 2.426508317960866 8.510352539304698 5.778990518272065 -0.4763716797302054 0.07979007284544969 0.02144351458575662
P 6.805051489095831 3.8552677038765664 1.7878916299155851 0.2664632180983991 0.5683017303722986 -1.6365881519080525
Ni 5.395639160714778 2.751870083002123 0.44947703025545144 -0.007269279967903611 0.3199915290338425 -0.7711293738979236
Ni 1.5106540868925706 1.0599074625435219 7.041492802238843 0.05836249909929303 0.4655807597622885 -0.7201017178971469
Ni 6.930789264794573 0.542229792193885 9.14698384642243 0.28864721039460606 0.8191498676412602 -0.028931338322369528
Ni 2.7164065102807577 1.451708000465683 9.3798588941892 -0.6624976942304333 0.5239404306481041 0.09858535117508184
Ni 6.624656918490978 1.7743640731763228 2.360867679071803 -0.3200599203779327 0.5629697766364239 1.4985991021243676
Ni 4.136677804537198 6.8845753158565755 10.608177153580263 0.007678856701496454 0.025218408247156567 -1.123966231596561
Ni 8.335939449069537 7.074688660919898 0.43513595598935817 -0.13256067967926202 -0.7934977142907947 -0.3601328771394185
Ni 7.613881562323966 3.901002048488401 8.21025234854488 0.678968952412579 -0.4771679503792557 -0.21562993749661574
Ni 3.0890862191240096 8.434828431641387 12.524751148774465 0.5549535912001669 -0.49142086075384395 0.24077069842830143
Ni -0.009963101190666773 5.061671665217277 10.22312455803583 -0.12429175480225046 -0.9726958913229378 -0.266558863135999
Ni 8.54746305518383 2.3804210569580815 5.839609790357585 0.6879832400960474 0.17068474024449312 0.5530324629180541
Ni 3.6469927383866607 2.6007766219843544 11.413962191794175 -0.4837926547846249 0.11406390642665518 -0.31435284269082636
Ni 1.173962800787994 3.358279983174832 12.729389265609939 -0.8659236334616893 0.14712546486731437 -0.7011493451643602
Ni 2.9681354375486673 8.45055583388424 8.136534448872176 0.57331512442649 -0.7213703001969254 -0.022942467728786293
Ni 5.740022214314419 8.057542711439327 3.4441481607482705 0.11340750378957888 -0.5415321755879383 0.23321731156107575
Ni 3.2741410959170483 8.54073954547932 3.622006257907397 -0.12393719967630912 -0.11117604335589885 0.2231660979726608
Ni 3.4426089023354347 4.240788139867463 9.44094148215207 0.37991957284804245 0.4230302879945876 -1.100522141641008
Ni 7.181061280807535 6.1017977115911375 11.487773297590644 0.32942413520165204 -0.4773548695790811 -0.2421382681997894
Ni 0.4881874337735571 -0.11766775422568408 0.43621099361102145 0.48799872244617254 1.4860374634092728 -0.7513007692077706
Ni 4.849804191850264 0.39536770821222533 1.3511729796498895 -0.9983156487735712 -1.3423889013469654 0.3437984016454531
Ni 6.006817956734426 5.526860714180589 0.3167352215670855 -0.06760818606727712 0.31793850315955563 0.8540091414122906
Ni 8.10064375682638 8.708582961359873 11.39540693385461 -0.8339964457357895 0.2791621537223063 -0.08949290195551039
Ni -0.1359578724151261 4.878073699679186 5.643276067675312 0.35130422310419496 1.3039064290010511 1.9656430766957438
Ni 8.141518714208978 8.882597889512935 2.487510368593494 -0.3987878705074551 -0.26922946798962666 0.38727189944805557
P 8.709415482076984 1.7199697032788677 3.6843068598759565 -0.7618137529239525 -0.35021073292970006 -0.2512587424438189
P 1.9219826651139678 3.1432362622892684 1.748727864572182 -0.21167789482740315 0.9816302176980901 -0.46869796523503154
P 4.628082206951338 1.0941222541892177 8.216118904859059 0.1635491576409764 -0.2330288496993535 -0.33686336508851666
P 8.52289464489077 1.6271798398736934 12.398465900212837 0.658934145248891 0.4590887242800416 -0.04725610477348635
P 6.513723532935681 7.740225630284084 1.2857703330962618 -1.4456588024819101 0.172573986847406 0.25440294449975537
P 1.6839269857108154 3.324933908799167 5.945763421100068 1.185411483386236 -0.20846967230275065 1.8872753381191174
P 6.964786877122761 4.053416683687675 6.054883359354178 -1.149181040299292 -0.5373515618476874 -0.3030093926535491
P 2.3733174834479334 8.399925905490251 10.392546143623607 0.9067992886301286 0.5115032333260159 -1.175904315226749
