# total energy = -340858.87794463243 ev
CRYSTAL
PRIMVEC
9.37329360005401 0.00000000000000 0.00000000000000

0.00000000000000 9.37329360005401 0.00000000000000

0.00000000000000 0.00000000000000 13.71876265071880

PRIMCOORD
 96 1
Ni 5.949117010364609 8.626542106330797 12.235832876031356 -0.12865234576379134 0.9436398544972457 0.7563234192333426
Ni 1.9943931865157671 8.761330069249654 7.506632227054758 1.0775961289724538 -1.080547498291294 2.213834750178465
Ni 2.817668315798729 5.424071965656699 10.237983756140888 0.7683494971599413 0.6060524667585111 -0.7500375862246309
Ni 3.863793501993777 2.7704362890151324 2.4217047728257395 0.2432178744172134 0.3851222000949045 0.4059609912171267
Ni 3.5076364625620817 5.409674586585534 6.043841641495719 -0.49629978611270004 -0.46343671683609217 0.6423268757095132
Ni 4.406741537603983 1.5799530070681154 13.584168047292092 -0.0440252565410145 3.0704178229655184 -0.08222362198760678
Ni 3.020590750376637 1.356306220194408 8.660174421334215 -0.18854310858215273 -0.6126460608156288 -0.07018983075152428
Ni 1.2080394609836662 6.6443154549936585 6.766917198817187 -0.36790172245155994 -1.1003097685198857 0.19946284081845003
Ni 6.212450322620683 7.234111212347149 0.5329739138200832 -0.6370124054751352 -0.5417566328939186 0.44013635154725494
Ni 2.681249399781967 5.400057587284091 0.39082604071458676 0.14707969923104347 0.4173347802717071 1.2251329703455738
Ni 7.043308446479538 2.2743453484418787 11.28040367934972 1.104935440217355 -1.3350257761136752 -0.6513838437054589
Ni 0.7220801135341254 8.657961386699643 11.221083853054289 0.29737841962001693 -1.2721052253300542 0.007933138804147628
Ni 0.38576539946424665 1.72857595143817 1.2247136130863334 1.8565933356542283 -1.5934414413172493 0.1493659241620589
Ni 9.383979220902907 0.23752582280513646 8.858122448963512 0.12861789298143012 -0.45593912290746635 0.8077812207930023
Ni 6.721795100437836 0.8877746376582908 5.962640798466092 -0.2777765862286894 -2.310071655726028 1.4473408181700234
Ni 7.362131657239065 -0.08557254719550812 10.604383930890922 0.7570196739694188 -0.2547212470711226 -1.3622460452822087
Ni 3.492273634243305 6.54263396530355 8.134101126311132 -0.23662248058788282 0.39523537726950647 0.07094007865398749
Ni 5.2459325195320226 4.857034565324557 10.739307806567938 -3.795739908721341 -0.020977116472299356 -0.3794302919164498
Ni 7.257760032266779 0.4150831873931478 2.276039102607347 0.22959591275840457 0.05048978121943562 -0.6742802886876582
Ni 1.8855411271710747 3.486584044987968 8.577396052980578 2.067694017821923 -0.4845156489935784 0.999541550760872
Ni 5.763563288950027 7.084147886982839 9.927088477164169 0.11025687397573915 0.45536525268186734 -0.4505400633790821
Ni 7.254498126070968 5.011215872838622 11.325264262835786 3.5800387516671575 0.5170575874853418 0.7787938324217167
Ni 7.943782022396693 2.374630217375734 0.40654036754584283 -1.78430779871594 -0.45009192009807003 -2.065019556313553
Ni 9.342642995835302 2.5241529979377364 10.08850409272975 0.11533865937402071 -0.8847639060966439 1.8731067599282192
P 6.676353372744468 3.6387407210701515 4.793403961272078 0.24292451154651065 0.15432455371891485 1.987591298832061
P 7.5819728868843255 6.467488269982239 6.556319911385458 1.5399735513060964 0.38848134637512444 0.4401278669068227
P 4.301142011161435 8.624808047002565 8.192556734930545 0.029286921889575365 0.6774270618467559 -0.31034629263459457
P 8.698669601091618 3.19289063454732 12.23171706278256 1.7596861435125177 1.7193725314951358 0.04045142314682711
P 1.0890736177732263 6.3168688140613 2.275023974903306 0.4604300687992845 -0.21176299834204174 -0.03484127604890128
P 7.373201517058757 1.486435656161201 8.828394110772035 0.48067287820872057 -1.0734751648255447 0.9640312736694043
P 4.698044758159769 9.108526239936534 0.5995111762384278 0.6066098819238779 -2.039943072960899 -0.6101837153180653
P 8.968011194587678 3.9082791537332 2.782974943952306 -0.2612940151926339 0.5795127685967697 0.9030922720921867
Ni 8.580556727604796 6.640228698955229 1.0071838376591382 0.2549935268959028 -2.8571887816009114 0.32271124195785067
Ni 2.4882532831964834 7.786132596226162 0.7946219078749887 -1.9897399697439475 -1.0559533538916976 -1.5232544387792024
Ni 8.971901111459118 1.0598101949475889 12.020078402424526 -0.33986538513963405 -0.3302661714869732 1.8251065778998568
Ni 3.587093872969811 4.150841247225144 12.50559907973049 -0.15868128802571382 -0.871301609944151 0.1996813845871593
Ni 6.820064711233474 3.0535847440813915 7.093478063498098 0.5866357527947961 0.43881300475014107 -2.0345848939727795
Ni 3.757865910272915 0.8096754175027829 6.308751541746436 0.32865666090800816 -1.247244971753265 1.46045421562353
Ni 3.219988826536083 9.436188466623216 12.27140546282366 0.1715159778965369 -1.7991327795439145 -0.3767308907074157
Ni 8.484546080582692 0.5133846673872516 4.335047089010537 0.9342998080432425 -0.8021867574243605 -1.0754556855906834
Ni 5.566808481604428 5.106364176843442 13.388647702722322 0.5271309125609438 -0.08050483952428716 -0.09481122884463025
Ni 4.861421266760303 1.5906573084348286 10.500478158613843 0.092133424902151 -0.6990950337384928 1.024792869128493
Ni 5.724832839521604 4.442856838099557 3.180558192070801 -0.974470209614541 -0.9698589360947749 -0.513629021419767
Ni 4.482130938560614 6.970056156478783 12.092691433797249 -1.615999014902791 -1.0571134356380698 0.0016894718872809615
Ni 3.0716189610950138 3.0785364518206126 10.579567198580495 1.9159115137985714 -1.9525589898182762 -1.5886018538367608
Ni 1.5972467338821135 4.737965615883789 4.192646136976055 -0.8716098852131893 1.492935733191003 0.02536933200272405
Ni 7.970786481448796 8.52002399710897 0.07369752144989622 1.468404066598226 3.1383774788349434 -0.3307487675503465
Ni 9.186221471135033 2.501047829050742 7.906726580546407 -1.5228407482805515 -0.016470486851197442 -0.1488840994296339
Ni 0.5572619923677425 4.253431946400866 0.9649899562210832 0.5104868762463595 0.24015723321401866 -0.9233754478212549
Ni 1.3503916718910842 4.109495648863873 11.348749987445624 -2.561714778092459 -0.030931399471533828 1.9117488977804493
Ni 1.2262517705769442 0.3936923939176873 5.802378098021445 -0.2913471258242724 0.35286591116436006 -2.390561325741664
Ni 7.267705096846536 4.2482485150035 1.4073119350079861 0.1594438772233512 1.2080420763015582 0.5680608180060862
Ni 5.271718450407528 1.9313577866110867 4.856442173164858 -1.39442751511076 1.9167517503116798 -1.7670580104965568
Ni 0.8440679066225234 7.3857054908093644 4.552064145274195 -0.3034737338844773 -0.35479603830753736 -0.6411878770090635
Ni 3.1610589292571643 1.0816593424833227 4.1630546488721025 -1.1240978720784187 1.5365843231188892 0.16431740326556862
Ni 5.2740149073557285 1.692601250347588 8.175806659149183 0.3157844329310303 -2.055147291505164 -0.29308750555414687
P 5.147944107546366 8.772653007998331 4.959812730373601 -0.60478671267221 0.6094465800417246 -0.6000607679514504
P 3.334286769500793 3.543001899564366 4.6765068039737505 0.1035331820986604 -0.372362586436391 -0.2066992106658892
P 1.1836782707454112 0.4745183052006705 3.30017172987357 -1.722722678914291 -0.331727586523848 0.7779708222997892
P 7.324741588804898 7.6560500267277 2.951303363596652 -1.584999224087167 -1.184575874858818 0.12600693772114427
P 2.4760961213115213 2.7009989295364893 0.741282242938546 -0.5514116394851794 1.12442851594496 -0.6105778654326904
P 0.632117115585405 4.436604851224252 7.297517794681008 -0.9904053927875589 3.731610168120967 -1.0700211448386734
P 7.862459326549406 7.361925444778409 12.051247415852485 -0.4938960617672139 -0.46995060669521 -1.23890122777426
P 6.16808652369892 2.2313031839270394 1.6948433421925249 -1.0372897160439234 0.4618889127329981 0.17690398168132757
Ni 1.1092074525680597 2.5655642093546707 3.3575981508484425 0.777804471925254 0.19374445027743406 0.7218904343664535
Ni 8.241740281455428 7.16691407005471 9.198924158711364 -1.2003868737491454 0.5345207772671117 0.33434805486583064
Ni 4.339638128248204 7.511673184388399 1.9227671629660843 0.5158622816256601 1.3481204045141042 2.228453271422588
Ni 9.15404295397923 8.305994209536705 2.402621684250879 2.856861737278796 1.4066040025722935 0.0072836781456068105
Ni 4.107461644138325 3.1645551677946284 6.869752540957595 -0.8021911282997345 -1.1179933018425776 -3.0350602694018307
Ni 1.0474093274273073 7.019594013504246 9.22870779933547 1.555634911992437 0.37341648162220203 -0.45010580405514095
Ni 0.44851772590021044 6.274651499389078 11.603205853270513 -3.0247182640458745 -0.9886089630087684 0.03733267501218732
Ni 2.6684548539277086 8.400448889810232 3.3907702371328536 0.5154912714394864 -2.395423024709339 -0.7242442793106108
Ni 6.581083215921989 8.728523541418221 8.067551678611022 1.198112475892672 2.5183711209995012 2.8636823597450554
Ni 1.8570931808943898 1.9211127766340135 12.416536855303082 -0.33205540217691204 0.5529028793187252 0.5284835699340963
Ni 0.12501817893065575 4.782301294924554 9.396652851268874 -1.5693273218778652 1.1916114415493606 -0.06745906208392252
Ni 2.4599646829121227 0.519494180198831 1.525595402439532 1.0639487133923482 1.872366796438401 -0.5743101413499078
Ni 8.714707306554354 3.5370779779673756 5.37984033017563 -0.9035779534793537 0.9422213768831643 -1.1374727507234281
Ni 1.2324850108649164 2.8318219892345753 6.206958509861701 4.241158848823773 -1.569991437824425 -1.8949729638736914
Ni 6.396738649390338 3.402580587152169 9.368378310925012 -0.19341714884500236 0.24387556260587032 -0.14481301468405383
Ni 3.0722563450643094 8.197882640391636 10.009867782847174 0.6593380655555291 0.7475001645147579 -0.36556947477395746
Ni 4.960543847279559 0.5763450809426034 2.695160304911861 -0.2973673638764233 -0.8419175003550791 0.14989428586170317
Ni 7.80417618653345 5.521291767561733 3.8111962019156915 1.4871042141108903 -0.012427170019759244 -0.5752668488362221
Ni 3.167423395656462 7.739088035315888 5.525931547926463 0.6345305195935459 0.01481521063596158 0.9278622799480148
Ni 8.590164353612572 8.55706725367749 6.796535869472771 0.4108139484340537 -0.6080532992386237 -0.5117611149730928
Ni 5.658432427190786 7.405239434809566 6.737545045785023 -3.639270797855597 1.4868895269969231 1.8088194107040592
Ni 5.577681502257131 5.18338453089798 7.548598337456726 1.0228036066126063 0.419156149751162 -0.7003134795266261
Ni 3.9986470779682963 5.8360001024018295 3.920012642744453 -1.054632835308061 0.38892563300139465 -1.5123408771904923
Ni 6.068795223893674 6.37748590420012 5.041988395944506 -0.19806364647807825 -1.8254891580502561 -3.8364558983834636
P 4.766113616763159 5.575553764594922 1.671232952776926 0.01636095785652666 -1.5124578623843308 -1.3081862873233276
P 4.116085074311158 4.1531658240543425 8.562743720321695 -1.6874448295486033 0.9842152048164469 3.91941408454425
P 8.700450526888181 1.4547539235697036 6.173827666069421 1.0938213325820645 -0.538442480919021 0.17705721942974023
P 5.579846733094007 3.1631960402130406 12.281448009657545 -2.2839464193938857 0.9317253624478471 0.9569813088011584
P 0.8486983136935884 9.06861475550618 13.582014064407616 -0.3035020160192515 0.8238107634520394 0.021478224478433977
P 2.2977785826071875 6.998419743112473 11.632249003694996 2.2471076532989818 0.38104648736363406 1.207707575780275
P 1.9203722864343897 0.7905220292254261 10.372578629210222 0.0251063081493245 1.4053847854532118 -0.022848108242767104
P 7.241131809303075 5.309333477889682 8.91681145259521 0.5477696718572179 0.7617425333663848 0.9013570345686347
