# total energy = -340892.7335768591 ev
CRYSTAL
PRIMVEC
9.06213649568143 0.00000000000000 0.00000000000000

0.00000000000000 9.06213649568143 0.00000000000000

0.00000000000000 0.00000000000000 13.26335277622689

PRIMCOORD
 96 1
Ni 6.497497432618977 2.0446626516114805 11.460929227469663 -0.4470819296271526 0.8091629316318775 -0.3286777439539307
Ni 4.500882228249378 0.05480780100318772 5.9756044657416485 0.7546817698648616 0.447014823834643 0.26836609154806684
Ni 2.7534576508615345 1.3967108362131797 4.9217115312497475 0.23584780720538737 0.1329820834873968 -1.4903065230982722
Ni 3.409556326891758 4.099801132912062 4.852384375291647 0.6301825270374952 0.5696315049273157 0.5381066948461571
Ni 5.172540592494296 4.6228223357723435 2.642722875008616 -0.46677426584975745 0.26240396042736097 0.09219204605422832
Ni 7.231430798268311 6.170109630561741 2.5210446632278782 -0.12799517179576667 0.30383677365085093 -0.7131561398172492
Ni 5.204357753427198 4.741554447006432 11.59771402064463 -0.854198117494645 -0.5163178811058398 -0.4476303459314549
Ni 5.6231281390353836 8.135632644911178 12.49527150887223 -0.10505013296381907 1.1786173432825378 -0.6482401558701546
Ni 1.8812360836069357 6.088242290240511 0.4141061039983411 -0.2359578504206904 0.5737676385828764 -0.5453674901736285
Ni 2.439989290328918 1.3221203914285833 0.523008515869308 0.3856382204993746 0.8282117207332124 0.17825355373068658
Ni 0.5158122733467168 0.24037135582826613 4.9913576744094525 -0.39277714553700094 -0.5708229541322557 0.3679819408701921
Ni 8.605649411913713 2.325081400659536 1.5267443377632524 0.770106589060364 0.2856863279940693 -0.026769297674044217
Ni 7.053106078006947 0.5718933045154051 4.853431958260557 -1.2366054897615477 -0.1285793264340108 0.27888061792614555
Ni 0.5419375064009644 7.144733339240947 2.208772504701283 -0.24040020246276017 0.5322594920367608 0.7194833675868577
Ni 7.6183205879887295 3.843034559892168 3.435367103812604 0.25280680365722913 -0.37556823785788224 1.1660693314141983
Ni 7.666703334277753 4.022392363704187 12.6689020424736 0.5797143430846144 -0.15253146637423406 -0.7049473787542118
Ni 8.011952607197635 8.880721500480307 7.118123281888803 -0.05001129892112032 -0.6240568737557316 -0.8252960897483141
Ni 6.969951914315602 1.0885257012071596 0.36842296814563447 -1.0154330251801478 -1.739849825512881 0.4181158814121057
Ni 1.7600300091331202 6.564013513862925 9.36891419447889 1.480563327668579 0.2175058143630899 -1.241023159213269
Ni 0.08409300102334338 4.7072270742881654 1.614812898029337 0.5149423409145519 -0.017829057761620908 -1.05906130339306
Ni 6.617688547814955 1.9935884508089068 6.8033708166269955 -0.5766465027925681 -0.1287770442671137 1.1368520864202936
Ni 3.5976681544751195 4.3901066727826175 0.4793679855632479 -0.34917663523823095 0.42010694370020546 -0.09750265963386434
Ni 6.052736839789041 5.85314328537515 4.595035106900638 0.42058311200567566 -0.6407160795789676 1.2516873237953348
Ni 5.537998429606822 2.8192850097383793 9.12718895547108 0.42310844953069066 0.48292362191611016 0.47313774617394
P 0.128860861098715 5.73638671987828 12.456144828711624 0.2578770190912849 -0.1655008820507085 0.6585304820525691
P 4.073013457686298 6.5307554732409505 12.602386867443293 -0.7858738791969498 -1.8705721664318238 -0.17149977994662077
P 2.2488235227756364 8.230431653888418 1.4454270691220645 0.2954938010027943 0.4858744770143181 -0.2095207392750843
P 6.458167760602801 7.752204591299096 5.847294582536616 -0.39478363444406844 -0.7374445800509687 0.6231652151793978
P 4.653171430606946 1.2123144845576135 12.767422870874123 0.0142793927371496 -1.4050040050750254 -0.5699024992005153
P 3.8186030401328104 6.200966205035262 8.425093593668391 0.07682687645206769 -0.2894097995922435 -0.4632739660059828
P 4.519658974889359 0.8902189701633838 3.6807398527251394 0.0992299267376162 -0.20375118378115878 0.7679612605825871
P 0.031375834889771304 5.520245704381087 3.607220552464118 0.9126035540167315 0.044913829793554905 1.1418084019843047
Ni 1.1403339350588833 0.5996814396007515 2.705777220144228 0.5870715547806341 0.23100513440110537 -0.32483265917622767
Ni 1.7671981590328427 6.331116608145014 4.757869917397659 -0.5274029352754078 -0.38018799601808073 0.7792049518172064
Ni 5.7407546696275435 5.466008817971682 9.22887971918756 0.3416978103626825 0.44130928880943354 0.4272913772637867
Ni 8.614874666778338 2.5315440544716434 10.167620086327032 0.6234655200286359 0.22726032264669246 0.7429187157916625
Ni 2.5069041055748733 5.186460034018915 6.922819742851056 -0.7946112590699476 -0.4908891566200901 0.702080598729378
Ni 0.5970044845054568 0.1678398284358531 9.060753527241175 -0.12802139704801177 -0.26053142599499646 0.05544609678344645
Ni 1.3445310547686764 1.164140167406002 11.455438479019293 0.5216950862573531 0.7812919162532221 -0.177648573156836
Ni 3.8668226679664683 6.6621292647659525 1.5914035872569436 0.8704228068836234 0.9317225342343695 0.7234258971743733
Ni 5.617228688232958 7.712992727056239 8.125686950202018 -0.16977019885002376 1.0331366131074982 0.0006448326728505024
Ni 5.115675686526207 2.5176971100382985 4.958212910492594 0.3682048555142755 -0.08804357110349353 -0.08952966873071677
Ni 0.7720052131319051 7.2078420571950135 7.019523612901522 -0.2650671090818209 0.3516574926785556 -0.3986983961174424
Ni 5.120696110096936 4.608567595200582 7.116796585118488 0.7623179462538807 -0.25641071895840356 -0.8860219468734613
Ni 8.232570318081002 7.295391357044848 9.162111710551436 0.22416497155082038 -0.6015034139352479 -0.4520055921810151
Ni 4.924600540337018 0.5753532281964595 10.29846283665845 -0.5248935385899928 -0.3095189116372927 -0.04147549353596728
Ni 8.260608568131245 7.301308932120093 4.56887996879624 -0.10314777373478365 0.12443470813801796 0.4429563374945532
Ni 7.245033065018605 5.938472361804718 7.085680833543663 -0.08942296794952341 0.5432170194895289 -0.4157237270308453
Ni 2.517896477039302 4.915348099063167 2.928945922426801 -1.0044173907959348 0.6919501951635953 -2.1695899214274768
Ni 2.5703662468489017 5.213265833517498 11.302776822855305 0.2913543249131241 0.28459463759178727 0.6925682883635685
Ni 1.1238499089304443 3.0674697395787067 3.731524971376258 -0.37218646586984294 0.09966984248851221 -0.1329442882709259
Ni 3.7966092350675438 2.73765328496379 2.688866367390913 -1.2051390437221503 -0.6648481967404808 -0.43208545621832034
Ni 1.2903847897233645 3.4357459011145117 8.34869706509743 -1.578192742688295 0.7499856499407728 -1.172869127944851
Ni 3.7967542292500913 2.7369373761874587 7.059737749431241 -0.49997774918491966 -0.9194899967239196 0.04992182453110757
Ni 4.2855930535746545 6.690258136180287 6.1245651453960965 -0.2905274581364545 0.47812182965209277 0.13252648400721692
Ni 0.7091203299471464 7.522271004187012 11.274420491817098 0.21245642486464056 -0.5577447807920588 0.6520752133455285
P 0.1786582068812244 5.509135525143337 8.15346058586911 -0.33099276524035254 -0.5980434804111054 -0.6150718966483021
P 8.651132274551776 1.7472705210688861 7.969179323345942 0.555106057617631 0.4270337527270259 -0.7158825376094767
P 1.7864642610389236 3.312002428446104 10.469878584121396 0.5806453395393161 -0.6404345437828067 0.6760589778546356
P 3.9580511951984607 6.210889244403398 3.954893040659835 0.6675072316298827 -1.1549320838504562 -0.40726531185084697
P 6.973341153332665 4.129370884015469 10.448498285691036 0.16600019028463023 -0.9625449189318648 -0.6145785019516512
P 6.539255757192834 7.950148836886501 10.245860759657276 -1.3575231858852426 0.17419789560407417 0.5135421181329156
P 2.22962991786083 8.36446971351774 5.837426822200576 0.5247367012971544 -0.04688406614604829 0.9420023188938229
P 6.862792151276135 4.254854286874454 1.390131725180059 0.5901512221472224 -0.5031641173327012 0.909567338293569
Ni 5.4091348498671845 2.9580081938912888 0.4370342153274028 -0.0006183503102892575 0.5183896760332041 0.09283045096917561
Ni 1.71806325542185 1.1784130322505824 7.034166212911599 -1.4310217692950258 0.5253843621834823 0.2097832489078516
Ni 7.22155306958222 0.7093224155890728 9.222287921163467 -1.55810059992411 0.21417237911448278 0.2848607467689804
Ni 2.749669677842465 1.7641985918813785 9.115013975205244 0.7881696172096618 -2.2100287461688133 1.3428421868343001
Ni 6.141364533871577 1.9924103730757035 2.639049084908303 0.8881572480489092 0.003787234956574123 0.1508399376044241
Ni 4.140925107937272 7.24668237384509 10.512812267787533 -0.09672798625136889 -0.14385759274932 -0.8352745411172646
Ni 8.023633701029167 7.329628108399022 0.26284364169594215 -0.3923380011170533 -1.2905251225981387 -0.6072570285895735
Ni 7.784511107598098 3.7478186926401027 8.243611625082043 -0.34380714339620144 0.852554668353951 -0.3519025188098262
Ni 2.7514730429879073 8.397211212364388 12.473387355657517 0.9423167648104481 -0.5842716234379937 -0.30688944443424565
Ni 9.274009158505661 5.090328890989515 10.371278915134113 -0.5111993289323519 -1.561129102337789 -0.16013344709120808
Ni 8.681191381021282 2.3763096577810674 5.736850701262434 0.6563378452766245 0.7606680693552835 0.16549856805786337
Ni 3.747882127594967 2.8275224917343937 11.715904216121448 -0.8598481166915707 -0.21950227596782843 -0.6948437146613066
Ni 1.1742988223207793 3.505488102920155 12.709435166204926 -0.32063867569953813 0.1769399771255856 -0.19925175324890848
Ni 2.8677674395279054 8.386028536035365 7.960505046375 1.5084310006131247 -0.5307939632348277 0.4067503198876414
Ni 5.679712118774786 8.020969432924847 3.4932487814858124 -1.0512132681035509 -0.12363818037865158 0.1773418405496946
Ni 2.969807095496142 8.104032975252098 3.8978206117679735 1.166644487191378 1.5356209307643554 -1.921855647197148
Ni 3.4817996783463565 3.9919617096419016 9.226611466444323 0.5256260458806431 2.039960042241764 -0.010086951922356821
Ni 7.250089737134972 6.170644296609887 11.273053921646582 0.09647164726618869 0.49219013481970075 0.39868939725637786
Ni 0.35436034486574913 -0.12990935028126607 0.34254603762900043 1.6675241793652764 2.0087648475858826 0.12128793497892015
Ni 4.469889721729718 0.26555050184138734 1.6332887817405306 -0.04595898322861762 -0.6179906129569938 -1.1978589651209695
Ni 6.075528112858323 5.87621548467312 0.15447136480491686 -0.7015285828806499 0.36033316607568266 1.4006678395935168
Ni 8.154101278913245 9.09321953714098 11.499366279049527 -1.3944326573170822 -0.3089972348058678 -0.5925914561575988
Ni 0.003188059588776693 4.85344464525153 5.8314449059568245 0.13138439998297372 -0.3720424840928109 -0.2021830679630905
Ni 7.659372065922665 8.982172117581941 2.522251739797591 1.307781081465109 -0.5736619662429475 -0.503309898881946
P 8.441805985634343 1.5994580140974914 3.648668951972778 0.017923931468272356 1.0696367649160612 -1.0033894637520526
P 1.928776051209899 3.2662477017157645 1.5267579309678663 0.004448522689656854 -0.36038767346270195 0.33913210651803527
P 4.9969345131557095 1.0893412934839928 8.013253023772364 -0.6824355708049408 -1.0908149416555728 0.21380471136241888
P 8.543918138693853 1.9106427162549753 12.449327383490939 0.5846814572819027 -0.06614599969945383 0.4925868560374872
P 6.262280619980297 7.847538266324482 1.317268523595067 -0.9413433451535853 0.029723238096045584 0.6131978195540406
P 1.8634924205176102 3.101815236569792 5.957142175235068 -0.9003147093470495 1.0249515061935446 0.3104889888600459
P 6.7872139336229305 3.838585050915223 5.563923389446425 0.27427885748807607 1.0591186389935567 0.9514251548696194
P 2.32271618305672 8.65985004977748 10.133042598643868 1.1999253607316949 0.238006505419603 0.980374490914118
