# total energy = -340869.5785859591 ev
CRYSTAL
PRIMVEC
9.21249399626931 0.00000000000000 0.00000000000000

0.00000000000000 9.21249399626931 0.00000000000000

0.00000000000000 0.00000000000000 13.48341617670408

PRIMCOORD
 96 1
Ni 6.460086503076792 6.7914783435525825 1.754785756777601 0.04512028937740616 -1.4788890252899498 1.911905735073288
Ni 2.383069568291902 3.6083220811196433 11.753251242695924 -0.31597315190306874 1.4825803580986079 0.5037030205553067
Ni 1.4683794466094766 3.263093074392474 4.1873697175137705 -0.9992001082610534 -0.04911706924162508 -0.2704741390300051
Ni 9.037862135764774 2.12657530546173 13.306554224362054 0.3568840311848176 -3.7547336415123076 -0.5757314471774666
Ni 4.5962054690252465 7.795888946008767 7.596785758142791 -0.47649766378510844 1.2227091913954298 -2.232989725840361
Ni 6.25814863075306 7.426642966966453 9.108735695954598 1.560525921536151 -0.07642012793195227 0.034052975819651034
Ni 9.234235661606593 5.567110230165673 7.224576119724266 -0.34060894817387793 -0.5458254036466536 0.4015060407695666
Ni 2.5628882421006125 9.365790078430631 8.401759680443853 2.5839237100893304 -1.3621336880740607 -0.062374705582479664
Ni 1.50920922079464 6.14991103668684 13.194911692448624 -0.7329099254054087 -1.2091425084545886 -2.4789280845125305
Ni 1.0231303906205023 1.611219168798321 7.967688143637833 2.021434472633751 1.6599026582642766 2.2298686637128755
Ni 3.542379047812468 2.207221479472768 1.0503837121394484 -0.6054078911959768 -0.8667674695192235 0.42766752965628274
Ni 5.610786665051021 8.446235759823619 5.51078043453048 0.04365938856116352 0.05724818298919173 -0.6535168308880616
Ni 4.238548807655526 2.205130243294963 10.216276485706187 0.69938942505046 -1.2073908158708044 0.18873054200261047
Ni 3.600362486152139 2.3242846429589754 4.06640966899139 2.390363350798245 -0.3148655206611867 -0.8978611056002342
Ni 7.547381915628626 6.920665149373553 6.106666667778316 0.5905098910382217 0.9734589947412072 -0.8408921444143581
Ni 6.277531718498001 5.770807688876899 13.045771545493256 0.9855686335205478 -0.36747543354741874 -0.03539123501510033
Ni 7.904550314807053 3.205201760994557 8.789812045095731 0.3743991572504455 1.0168399328300037 0.33342605727219354
Ni 1.4920555566401332 7.912887622035747 1.059282981512839 -2.6111684047378967 1.8724339022309107 1.155394111088539
Ni 8.723476559536687 8.567868320420803 4.42988217793401 0.4834848937362189 -1.1399438379717401 -0.38641546498503127
Ni 3.8233324826782016 4.462974378261294 9.866975556553513 -0.20084969386364762 1.375910944363811 -1.4919157765669209
Ni 2.0759065874972897 4.988501108494293 5.972964818562004 0.12694564748532977 -0.41471996835667924 0.7614394003036693
Ni 0.03361915499411483 3.570348180128839 10.616478287676523 0.835203064449381 -0.7968776865066212 0.19416611119588495
Ni 4.0260810544893655 7.0334352905740465 9.62265560477607 -1.9212882047294524 -1.0699607239143831 2.620579413639151
Ni 0.9935030093525677 6.073622372420743 9.673717696241797 -0.45259334636368503 -0.3877781496605128 -0.3699904866597886
P 1.2611536026290915 3.756283950069984 8.650231703346126 -1.3041506838013732 0.4227155849676462 -0.20065120469959635
P 4.733370294802073 -0.02749008261925264 9.39040402036834 -1.240970965819095 0.19660017455867432 -0.3453030112154376
P 7.510817526246651 2.3673991156996266 1.294840930080104 -0.3689329919295517 0.33267555225941414 0.9807478150931367
P 7.5458250041129915 4.803228638133773 5.259072062424403 -0.5773751534284766 -0.583344226527718 1.4516862396229127
P 7.669972575620045 0.3649649329990276 12.215179519389373 -0.3180017522973233 0.5530908269598152 -0.9924748737220778
P 5.73052145184808 3.3255169349246643 8.769263576837607 -0.7891270960269249 -0.5803406638147037 -0.45262548515320117
P 1.732602992052769 1.262001152093224 1.9702236180658956 2.428553745825037 0.616133762253913 -2.028489065487687
P 2.406506153473999 5.814723648610805 11.14354442568622 1.7500059401102765 -0.09727820232788408 0.6094329531949697
Ni 6.671909381650678 3.0356365932030145 6.649414313373302 -0.0766057615801971 1.035803875527016 -0.19975080437251405
Ni 1.7091203443997949 7.418508334609617 3.5059712708314743 -0.7682739067269995 -1.0683226740903278 0.3228583090586762
Ni 8.160187815678917 6.087818825944963 3.5930072308025367 -0.17358108795568172 0.19723292304666676 0.34361431065910497
Ni 6.527512747946199 4.816835492030769 10.207593709945918 -0.23356235360532032 0.6821823171435542 0.2195063897328865
Ni 5.63846099755378 3.0749739433317704 2.193967464102688 -0.5020428592440644 -0.2455994872755125 0.004707946998630602
Ni 5.574535500471008 8.037910380489459 0.2310760701509558 -1.1763002651135872 1.2422315776990736 -2.162641000913469
Ni 5.643850306646362 0.21027794330067937 11.416300583234726 -0.07449977098078782 -0.45012662999074743 -0.36244661287425967
Ni 7.543844317865291 4.5871956497217505 1.3587774821558873 -0.31015603100065936 0.19116152004160625 0.6474328294775108
Ni 3.288372158409642 8.74327420951952 11.712248273620263 1.3308986413191788 -1.4198888926066577 -1.8679681531500736
Ni 5.113173792169341 0.5316272438759169 1.905597971425796 -1.7214587246002029 0.4840731621395211 -0.7077884477474325
Ni 2.250759726945485 2.183923081703301 6.043145599189842 0.16492726893542564 0.8801220364492585 0.6495010248604492
Ni 3.5794040619032113 4.953641030534758 4.149103780457608 -1.2110152999972692 -0.08963714084285854 -1.295820052448491
Ni 0.38293574538688824 8.630568555778254 12.024105941446635 2.182078283702474 0.35727792418912657 -0.7309725991733798
Ni 2.9894359349136206 7.389516615439781 5.760654599046242 1.4929982109978222 0.9238683282972734 -1.005865436096371
Ni 2.845739450766468 4.312276398540874 0.5904683654233125 -0.7957523146529263 -0.9888606740082583 -0.9364088839664455
Ni 8.62970258132577 1.0211773418553276 10.285056045969954 0.841315347994706 0.2539843689050981 0.27217363821961515
Ni 1.9971766122747252 0.5606530492742008 13.071700110349786 -0.26084792879415075 2.6725223823653455 3.2499654129172804
Ni 3.0850431994654315 2.7734213714899485 8.271752041391856 0.6213554156641686 0.13553107516149562 -0.8244270568797994
Ni 6.686336147529281 0.9735118969920523 9.03953880970469 -2.1426154497211614 -0.5215976414475405 0.7594984745272145
Ni 3.7843175698455824 8.716585613893521 3.8142019797010094 2.2307878330930353 -0.5693777370452969 -0.21885230108865536
Ni 5.8579486712815605 4.886601710420716 3.767887086483841 1.5413025545301648 -0.6340517801849145 -0.873747243271166
Ni 0.7009832880496794 3.326346059400446 1.7291943692078886 0.6169770840908149 0.14543110788402694 -0.37924800070231457
Ni 2.91539511922631 6.203398777868938 1.714577825949274 1.6527840449416245 1.0694722143137385 1.2246529453853618
Ni 6.790326781780663 8.852691002840183 3.0129499050467907 1.3730076546740868 -2.7876910918204056 1.2285517662191359
P 3.7655148692336877 1.8947152520564516 12.290875820279995 -1.019192235112264 -0.22128302201733502 0.40528967618171496
P 8.120012128580203 6.02367222900198 9.16258825190604 -1.0809449908400288 -0.4237496826591154 -0.48805862914983045
P 8.504513997976902 7.8077454260124455 1.9738238607896235 0.6638657782225534 -0.3447556233523998 0.7222845844810787
P 3.210784532464821 0.3809633503839452 5.971427253284139 1.5765580352983493 -1.3213120260720082 -0.22343709224586034
P 6.942968597772082 8.809908179889845 7.34821884655051 -0.22630052983658444 -0.8886331592440632 -0.8467095224270836
P 5.0526753429198 6.890457380972572 3.7417696654967156 0.021431430400898576 0.850281041828426 -0.2880520000127684
P 0.35686254437180487 3.98063582072235 12.812831787770627 0.875294533153628 3.1233879474046464 -0.2881926393556908
P 1.3066264738786328 8.836753387916824 10.030084608426968 -0.6970795459703607 0.09205449203509952 0.297754572012513
Ni 0.3120981139243482 5.853102899345325 1.6886630798340065 -0.22015070818510474 0.4255648814909832 -0.2802664425300786
Ni 8.029757323144272 7.696449283880009 10.610909334947522 -0.9723310517843513 1.2039457947449974 0.7986283506491408
Ni 0.9311067863029036 9.211932213208065 6.178572948565197 0.6237624824437645 -0.6746068187891414 0.885885678405913
Ni 1.8714629167578611 1.6358810157057406 10.907220918852984 -0.5701264422858632 -1.399852285670757 -1.1581426203679537
Ni 5.001223562950455 5.911316650039379 5.698981556789343 0.8260707631308095 0.47047459751948006 1.4641766587804397
Ni 5.597262723601603 1.8097576307713485 13.296522739454513 1.3571362348594693 -0.1945962567547681 0.2500940327117564
Ni 4.3461138896469445 3.5649588710362576 6.030525403419026 -0.28439486287615534 0.2052308536504788 0.3618920259223703
Ni 4.984687135905697 1.25275180794117 7.132916408926594 -0.5997311525261736 -0.13717426719187345 0.3020097477444411
Ni 7.505557192072525 0.1781355511228736 0.8357206216113011 -0.31303772342382863 1.5802820211171558 0.14620655259747078
Ni 8.56624692144594 5.673228950571562 11.444804961462685 -0.028239968682299752 -1.0939198058331419 1.5237450052623758
Ni 8.109638860138757 3.257528727910561 3.407353363183158 -0.6918833464814019 0.29277485940973447 1.143344893233489
Ni 7.2569303992681045 3.5278048820270604 12.753761275118265 0.4015677472454374 1.5081394375146349 -0.19998554609113944
Ni 9.059060084862262 1.0946654078921165 2.6784267378007987 -2.001761676795172 -0.4475789238682292 -0.18916094467180972
Ni 6.571336582738352 2.4574512462636995 10.916470263005039 0.2738890782488251 -0.1233720712014585 -0.29081979256589263
Ni 4.737893629442172 4.313695122643878 11.945200928834739 0.7284045813358875 -2.494208664820685 0.4883579055578041
Ni 1.9291054928130436 0.5879211107838274 3.966564657118916 -2.2428661044138085 0.9153394648906559 0.591816011444155
Ni 6.51264378234718 5.369944429824774 7.552856900917038 -0.05331465226274044 -0.7545277607855005 0.9745326874213605
Ni 1.9838184957204636 6.809461132182871 7.743903762626669 0.920078779347854 0.627688556971048 0.1908948966437809
Ni 8.167769698385232 7.4460997546647985 13.166272811805706 -0.7547051669036292 -1.7345147864532129 1.4255370920313708
Ni 9.195957748308002 3.1533814812581977 6.501446916926456 -0.2749941383875457 1.6533062359936816 -0.9159305615074355
Ni 7.284033557131992 1.0383678559865357 5.5804222842490585 -0.1740469718485067 -0.08762113885409427 -0.9315181315330473
Ni 9.019639822285926 8.13353607002962 8.5388047437964 0.1914361138592316 0.33766734904705076 -1.2630760252482505
Ni 8.290157683504793 1.348230097574526 7.621474321283318 -2.2883165234371234 -2.3120323789968245 -1.4367722986255578
Ni 3.942201295022778 6.2429848653404285 12.724583463566086 -0.6978819872669981 2.3096538514623193 0.008798572128236459
P 5.945273903569729 1.2144370446658777 3.932963927113152 -2.593984693869759 2.223936357388841 0.2281632940769361
P 5.898649470548269 7.03287332842935 11.368502478455326 -0.3911066998131135 0.33845333528345584 -0.359716101316974
P 1.6975586642097271 4.918320327866455 2.9967700015266185 0.19905557807770233 0.7900035850946072 -0.4633912083101374
P 0.9752162084144925 6.928495769422603 5.617042869845503 -2.2507601624499043 0.0008083548339082853 0.1515521331801003
P 4.03039250176343 5.689415302837657 7.6918983117573845 -0.5053978917592264 -0.4594422509647184 0.14208456000929723
P 0.00442107595475179 1.6996222629050062 4.835759797565779 0.4042704908885812 -0.47771610957324184 0.09141583000983611
P 4.78158848931587 5.061722012199996 1.0568987880202578 1.3594818522735104 -0.6200696069732095 0.6284673441186015
P 3.4051220970938876 8.26146076414857 0.48433122002907336 1.887610095750717 0.2869358841304542 -0.44451108357618285
