# total energy = -340868.23113074806 ev
CRYSTAL
PRIMVEC
9.31316640327123 0.00000000000000 0.00000000000000
0.00000000000000 9.31316640327123 0.00000000000000
0.00000000000000 0.00000000000000 13.63076042047252
PRIMCOORD
 96 1
Ni 1.6743303748510159 5.414647025810604 5.353617846162038 0.014209715841478754 0.8008698383851497 0.40537426547572125
Ni 7.216642286152621 7.810375272716841 6.366614684563732 1.58881242718567 -0.11166815250096898 -0.39581850346648606
Ni 5.304192871891485 7.142425662832093 7.375332122988543 -1.0624916692308475 -0.33126195974133915 0.6423510440792292
Ni 7.7109572210231985 7.854212347126393 9.303580392790016 0.7035528123995303 0.625838905356819 -0.0022553716930799866
Ni 9.59004687311416 4.8992657084640525 0.9493562468847543 -5.112679516757265 -0.5479362793420692 -0.7315750086440692
Ni 6.281544497079854 5.864659227949879 10.496612845496657 -1.8561428783803708 1.1827339365540728 0.6116980950800627
Ni 0.3153885186880409 3.9468640561550523 8.87675983770718 -1.9504931084281827 -2.868207244198602 -0.26479482925704073
Ni 1.5641649290913824 6.498364324853125 1.6437738757777758 -0.15606801877258283 1.6538549094083 -2.1227961010023892
Ni 5.5315086382370025 5.036858429374765 6.152925012029265 0.9964287161635031 -0.6771457831609112 0.17139693582016932
Ni 5.6186053707371375 4.969542862382574 2.656294811374641 0.7331387535867633 0.625739146554161 -0.10014986744872428
Ni 5.45307315052142 2.8074260823319164 1.4928679834482281 -1.4560488874669826 -0.30307007068815545 1.0331360988868659
Ni 2.110996809488934 8.000782960480448 11.24228362323142 0.9850999214142454 -0.6057768444996212 0.25610218657904926
Ni 4.586855540401924 1.1008907779486647 11.218333884427171 0.5845966108775803 0.6990760075750992 -0.5747022345820038
Ni 2.289139057057644 1.1397732478147964 2.180390143912774 -0.383483636050217 -0.3317370996055448 -0.00797093402061853
Ni 7.592903523293119 1.0396008296399195 6.015649870093985 -0.18113858858796544 0.7645380938336511 -0.67546762412754
Ni 1.5177667339122047 8.704532382141341 -0.013562764279292776 -0.24211641382291849 0.9379536027457459 1.0546441481619708
Ni 3.4698995503528822 5.682763774307864 11.451229168783899 -0.11185147215636866 1.0181267699622272 -0.506418876824573
Ni 8.48571953675098 0.1317831676885591 2.9659305871557815 0.6028162192094005 -0.7015897751358885 0.8263741533038412
Ni 0.8713873488075647 4.806189923112646 3.3347384971983485 -1.3985379377347076 -0.5499160287762593 -0.5811305067058506
Ni 7.775096998261055 3.1181598804357433 2.2512568212666317 0.17697005903257262 1.135525140078754 -0.8818143365500168
Ni 6.618215463705161 1.6295899232972684 13.522914171434048 -0.527995317443768 0.3189885416906248 -1.0952171844883265
Ni 0.030796778767263167 2.9205810545171853 11.184583900583368 0.6702922505741876 0.14794873209955808 0.37107883462796093
Ni 3.669098867231131 8.952905217796397 7.516137886319332 -1.0283193942245128 1.246347142529344 2.244772834518218
Ni 3.820791722124436 5.0002390589523396 0.571835869642244 0.2592091076391471 1.5844664915121485 1.3262035498363547
P 5.404803008888806 5.639345792387886 12.733365341357416 0.35812304579824134 0.5355983266020066 -1.4406783185481835
P 4.512750675078617 0.8342706552975094 2.2881006390001413 0.6658966926096531 -0.4156280819932455 1.006180139123312
P 3.6846332288447132 4.161849190140629 2.712589177207652 -0.9876774523334344 -0.884925885595805 0.8741527062397011
P 3.9420398359417215 6.2109134428368025 5.241382083503904 -0.049089301327483195 0.4598870518116209 0.05262996749089
P 8.581253998041225 2.049585790016534 8.436104573885151 1.79553683466254 -2.596071144085142 -0.2587321680027286
P 8.082375611617495 5.320854126643702 2.8633050809419256 0.37393275913698826 -0.6536451289358097 0.5805226979185227
P 0.07886854995481074 8.018152015881725 10.694926480246934 -1.2067022744442122 -0.15532291307644217 0.31598369342603
P 4.128824701962113 6.527589041126161 9.257303268774493 0.24907510452893877 -0.0874488749422881 0.716040917564212
Ni 3.963609129405185 0.6994104174188258 0.2049585790016534 -0.5421831789083759 0.4541961720744307 -0.3458869087433656
Ni 7.101354598853737 3.3634407448343793 7.745843411172071 1.126355300654028 0.05680261081134089 -0.9144233808342896
Ni 9.136244212235837 9.105194115341543 7.350237796029432 0.34558917499728864 0.03706245206993617 0.7075089688338009
Ni 6.767747663985546 0.8191097516579704 8.318798723419803 -0.028003170081145324 0.3574460743358747 -0.25108904963517403
Ni 6.969079695977409 2.9709000927654987 11.440706222028991 -0.6892937313773548 0.18589435810539598 -0.5890716159297984
Ni 5.425468925208076 8.536280717326603 9.44865251766468 -1.7022631255083587 -0.2200956865774532 -1.3751049035227478
Ni 7.231915879106024 7.575990813047157 12.009831028922006 0.8472283710450311 0.9208436825383367 0.6062573836804656
Ni 3.2682694970350985 2.76866468362944 8.365006930003707 0.018832816435786923 -1.1694017382215407 -0.9030282516234707
Ni 8.597654484133262 0.6362988137553942 12.637214348449174 0.5576159685236783 -0.6499828495928742 -1.23598636812031
Ni 7.280772750224042 6.842197116466948 1.7171346191029264 -0.028531274670473443 1.1190258568721503 -0.44613730632569615
Ni 5.413725022333538 4.629174568682572 8.490723501076504 -3.0724533653383084 0.47871986824740775 0.3722330028370622
Ni 3.3589983644448833 8.156582921771589 2.06493761356799 -0.9248085807233557 1.6460287284956618 -1.322257420704413
Ni 2.288095982416924 1.0220548240763765 11.626956512296012 -1.0672703215664134 1.4985888177117221 0.45325617675866453
Ni 1.9688592633579405 3.7104213867032323 1.39510860669666 1.662916505389936 -2.4609553020841943 0.7975158343112523
Ni 8.573589262065218 5.42357835242177 5.816286641486482 -0.49715724901698893 -1.0904953535326254 0.33394490589014103
Ni 4.89140539599291 7.5503609790180315 11.40878255012309 -0.9404054067203482 0.26841751361129257 1.2087799829088473
Ni 1.424858585556629 7.798044640356898 8.913194807434193 0.6098605276506915 0.5051204697281236 -0.14752090053352016
Ni 6.517130355219653 1.6644025394313045 3.6702183098366175 1.1978810766081562 -0.09233628494157645 0.4942670719533875
Ni 1.2066604091509776 1.9990618621066505 6.784983541106803 0.6610380789657713 -0.18794738397968275 0.49546109226148866
Ni 5.10157562293159 7.218430414108141 0.6960045924535458 0.11537594036985936 0.3402222542584205 -0.9459713308439
Ni 6.651472781044551 4.673440048748134 0.4398766831080633 0.4411853616370595 -0.19448261399503927 0.6768529345108407
Ni 0.8947149680939566 -0.0007171138154951203 4.87804007084204 -0.38629745134992827 0.4519623976479055 0.5035837213686231
Ni 7.215329129685286 5.909790832493896 8.205268430627203 0.8086451114551945 -0.37433462256109723 -0.9352228340781441
Ni 8.825072695309565 7.377257154490657 4.138557892203333 -0.4417862284458521 -0.6815264287271101 -1.072387845298637
P 2.8305320482571545 3.5783886261542155 11.234268712197458 -2.0953171788558302 -1.2392737806223302 0.10724714061513786
P 1.9453714576088663 1.8377019404538133 0.0840150057267926 0.15119937782637186 -0.4147477362708212 -0.20267543421847678
P 5.314688810463731 2.4288086140833625 8.991299677741335 0.8262186015625835 -0.001470413897939403 0.43392173809611073
P 2.7390581275325694 6.970206589116045 13.181722593821192 -0.03282887360456282 -0.5935484207542293 0.6389245348961836
P 3.45671210668092 1.5388610558874831 6.177937383123749 -2.7422671551596514 -0.7648353133590957 -0.9677172071614236
P 5.591606501242068 -0.1495620024129771 12.678542455821136 1.6316354358884675 -0.5135020089235995 0.19293018190625483
P 3.259729323414202 0.5574116374677135 9.506406256678053 -0.4432206468995335 -0.1829743562451236 0.13711616026042836
P 6.88242068229972 3.4447633141448133 5.242008859604979 -0.16104156072777426 -0.2825251566572683 0.3767422035613254
Ni 2.800813734163065 6.307109138943933 3.3731497208428682 1.704166770288975 -0.8883547087716959 1.7902514178938846
Ni 0.19944518447213247 6.042447575194059 8.057851250444207 0.7903008046200519 0.962371369468478 -1.203488652602921
Ni 4.367400086527548 2.1197232464385305 4.0591044753964045 -0.7247073349899583 0.9589880548185419 -0.01568527194574073
Ni 3.306527984750085 5.7123423909054285 7.361360510702753 -0.5179289343467015 -0.33753879388898644 0.47202291584320644
Ni 6.888092400658636 0.4507796070535196 10.766256021972612 0.9005857036202491 0.5533787905138792 0.874822735723532
Ni 6.685624162361702 9.456402934771885 1.6402851636312241 -1.6668258677466712 -1.0242804482684489 -0.1971262222654734
Ni -0.2068277315051582 2.972129430734919 5.152291402070036 -0.7485807991734462 0.891370355669568 0.8625462323490242
Ni 2.0609944188994107 2.6684736391216926 4.023950066054203 -0.5388394592471236 0.5211862649417347 0.3530590010117726
Ni 3.530435132180392 3.919650983831978 5.760945943896415 -0.8709995053227 -1.0766175671092684 -0.097567965654161
Ni 4.324978613416115 3.2991985227657383 12.834165466950012 0.3968906534847423 -1.4160929158993354 0.15172182598874515
Ni 9.308249083123883 1.3829400234326872 1.1107366575037483 -0.02867937021256351 0.8004540910039699 -0.1296486482387896
Ni 0.5021463765257708 5.60322933295295 10.411869550154645 -0.28591052818973345 1.6511585935230595 1.6812962934487041
Ni 3.303538458324449 9.293059308668393 4.615566169887747 0.14208044624423918 -0.21448862480332093 -0.44985769260007685
Ni 8.122627116949573 5.290157930073938 12.15722120092234 -1.5882164454728842 -2.1727657480522966 -0.11788585127590666
Ni 2.420324319461076 7.688475237249105 6.296225772647991 -1.0275673465498367 -1.008309012540857 -1.3111697954316839
Ni 0.36134154451162565 6.595016366115571 12.790437356587748 1.2331440135755083 2.7667749104930284 0.5019785816650323
Ni 5.028904985239273 7.492749731451113 3.3462020737631915 1.4330439419313772 -0.43027642803403965 1.1062557016906756
Ni 5.237827247875663 2.324631534341435 6.615784727265625 2.1931060022715454 1.519790648600318 0.3403227843920268
Ni 1.0885694587551578 1.0328301576416732 9.404734418707141 -0.24756560986294784 0.10353369631929267 -0.06723229078509711
Ni 2.3563708055519204 4.683684531826636 9.36546358980067 1.7551000668037322 1.0157058192255604 0.42947552939929906
Ni 6.741540413637451 6.084692098143226 4.526789342162738 0.11290073935648944 0.6400913015107751 -1.0767862314766488
Ni 4.8186136871369385 3.9309292283847643 10.689405635184267 1.1563541610089634 -1.2533035192425188 -1.3444385847871425
Ni 1.830894015789827 4.723833592327928 12.872849566371078 -0.2395566235155423 -0.29818908844677033 -0.8288005033571468
Ni 5.33352934616174 -0.04294766701500971 6.179123880527568 1.2584387835865551 0.30792431345666327 -1.4495915618774131
P 7.802282131084824 4.668131543880183 10.03004555870252 1.9512551834051877 -1.607445468905825 -0.48888832413997735
P 8.131306988066994 3.2184068039421 13.281976967860697 1.2005748213902356 -0.20135234453167905 0.23883851440259515
P 0.011977663352055511 2.1061260234434287 3.3143054100399545 1.4730965869778887 -0.8693614554986446 -1.0065696612522472
P 1.3603835343271133 4.208312577484851 7.035884901448962 0.7693470851865202 -0.10838176844021336 0.09522826177739084
P 8.573449564568694 8.313472523535625 0.5821641712186607 0.02381330036951383 0.43534741479904376 -0.44023559612928054
P 1.3378549847208445 8.343246716628325 2.9338709430199326 0.20076433323869294 0.16773002849154336 0.5463285685353172
P 9.547113175848802 7.3026866308456 6.1094017913285725 0.7555831986332084 0.9950359495810347 1.1892015465562875
P 6.600678771308052 8.79545682604626 4.366791005442699 0.7815269150821637 -0.5061203717475478 -0.1395592224842822
