# total energy = -340887.93450277747 ev
CRYSTAL
PRIMVEC
9.09616232248886 0.00000000000000 0.00000000000000

0.00000000000000 9.09616232248886 0.00000000000000

0.00000000000000 0.00000000000000 13.31315301314165

PRIMCOORD
 96 1
Ni 5.161835720655502 2.784653708086841 10.0036102289889 0.20807577929844165 1.0399752332958865 0.11455575846140917
Ni 4.934222446324057 0.6515472047489204 6.441036330488481 -0.6266747709945529 0.09004543202487073 0.4890171364083578
Ni 3.7237779096244563 2.512851276312157 2.784472694453016 0.40218943998983636 0.27417884157510203 0.9725699072680346
Ni 4.965022052561769 4.695029757125332 3.2754880944869287 -1.1244498561011989 -0.3057627870289702 -0.09784255947178634
Ni 4.873660196374059 4.867711306096605 11.848440240641589 0.24896943218900994 0.5143319610240626 0.12943627511766742
Ni 5.806144199283934 6.148523755925249 5.191770281839108 0.9311838881220801 -0.6765336034982091 1.0297566408916718
Ni 3.7569879989256636 2.997403852887152 7.759238556288808 0.3086434510108749 -1.297291751898011 -0.12075494529358559
Ni 5.421303756075095 8.194378049294658 12.82382811323292 0.7863101954034201 0.3616845378972545 0.745836917879722
Ni 2.0372129389908418 5.402074468542159 11.840119071183153 0.8866222994616214 1.2326377633630514 1.4597427913788021
Ni 7.839936981173365 7.358504388337158 9.43702845895505 -0.056116640487909805 0.01268633721841686 0.331541438654971
Ni 8.218246379704508 0.2866591939920661 7.102913137376665 0.8206141108916124 -0.5857453797700428 0.5087092155206465
Ni 8.45750274204076 2.661946475911195 1.819549047206003 -0.3466404990799385 0.47823495819118933 -0.18206212884349934
Ni 1.3131584036919943 1.7175283077963945 2.7920343343423877 0.5943362067628475 -0.9422242050966418 0.7009901938786766
Ni 1.9097575099882356 6.622897726658542 0.8250628718217873 -1.3860506039009741 0.2583287619167228 -0.19106896032779996
Ni 7.442780333934442 4.1766667445238825 4.47236752404468 -0.37944443298383684 -1.7089317957777859 0.6996740461704143
Ni 7.446791741598598 4.047255640582969 13.107651123756316 0.17076778687660266 -0.12299771858117525 0.1182380924090028
Ni 4.2548391650811475 0.7038910718767748 11.277133014187038 0.38492525359275 -0.5779163706439273 -1.9791704217582171
Ni 0.7213511558027313 0.26384147035139827 0.5351072285383608 -0.5848244106176702 -0.09015136147511571 0.7050031716928116
Ni 3.2507410747792145 4.311162603304394 9.871623091826924 1.3912941116881006 2.0204078311414495 -0.21411812883777961
Ni 8.77562283328456 5.079761046384126 1.839545141238006 1.6002695199826762 -0.36479891515652013 -0.5902394109856545
Ni 6.658518299023245 2.1447113874602106 7.499618614955401 -1.6162823504711648 0.10226125736477228 0.20880622970656298
Ni 3.5942667478960018 4.812734099923913 0.9617590923119576 -0.6679756866258689 -0.47832211858835677 -0.35561442044377467
Ni 0.7201577392822387 0.4727293845526149 4.871056874665485 -0.46704011791663436 -0.4178934809886544 0.23135891819609833
Ni 6.746150728584413 0.9949928316356744 1.0072690125507413 -1.0547631902383383 0.509657952587161 -2.4777255795639976
P -0.09790290664415856 5.815422285037764 12.97377471364231 0.36914562216099006 -0.024553263859331906 0.24881927976439083
P 3.9165801700540337 6.627600442672984 12.916554393796194 -0.9039523060996367 -1.8685348242868207 1.5151567493727325
P 2.003393406801883 8.72246485961262 2.104769228289975 0.8203621427818065 -0.7699880612046287 -0.17555826628671053
P 6.4577023194278595 8.31955034150882 6.937630406985946 0.01457275560785232 -1.552509736099894 -1.3553534319274336
P 4.678456549043492 1.2492214774531052 -0.07686985008672735 -0.20692392508218554 -0.33837414530608817 1.5601947634489777
P 3.849950779714033 6.265327578635958 8.966302049385762 -1.9882009073916014 -0.3937863035278057 -0.6493321033827527
P 4.784272207449666 1.1310350380418246 4.2611146075924875 -0.37897314977437313 0.2926077377042509 -0.9160670870852998
P -0.04468580791594367 5.511701419037405 4.438405182104413 1.3237442896625846 2.5970443066316884 -2.2296521768266957
Ni 2.878489720475571 1.725260045924586 5.577572189424593 0.4428154410413148 -0.2629274370309988 -1.2552089637953479
Ni 1.7711865704060417 6.674773141417454 5.21699848854327 -0.043420018856847806 -0.179278138340459 0.15802231428547622
Ni 6.8366757378217775 0.9453277843651757 9.671113652907916 -0.5286234379460703 -0.6072166622699414 0.1754325393421237
Ni 8.440929533958919 2.6774008560050735 10.899318446896098 0.8513848164155661 -0.25109059229707076 0.22948432688120476
Ni 3.2467296671150585 4.464023614179986 5.4088674826999625 0.24264837506698855 -0.1304703728091366 -0.004986654581313993
Ni 1.6685727612011885 6.726402959788763 9.932983984844752 0.6324414982750012 0.28475507442905157 -1.9727249232431896
Ni 1.2462015515018587 1.1625532411173336 11.746714216897102 0.8453699776800537 0.811229584352919 -0.18545855611955803
Ni 3.797520499042393 6.904032821162079 2.1735316687371062 0.7406728571802793 0.5975398013018096 0.695208554199893
Ni 5.308238456153428 7.739651789569473 8.705404097220578 1.8386562915598335 1.9893139379501221 0.4600438891044593
Ni 6.888614825718215 1.2012847010583194 5.008794605762335 0.4236900330657736 -0.5821082972380879 0.5237509403451173
Ni 7.9678563144636625 7.820707693640428 5.129864528687306 -0.42831416210134626 -0.5644095944067441 0.5186064200297005
Ni 4.841077742285612 4.893398869007207 7.594701711223396 -0.19635129177266183 1.3473287618507441 -1.030461123157864
Ni 0.7470150686908238 7.397918060465925 7.49181683637593 -0.3423680969568297 1.3550050474490793 -0.4820903273815375
Ni 6.367768560753239 2.0516576450468036 12.079782941599573 0.1246131426974112 0.011164758367567869 -0.5484026774555265
Ni 0.3544783623875578 7.564832642409818 3.1743351289801787 1.381345742226137 -1.0469881742786098 0.44747762240367456
Ni 7.342467853843038 6.22479507851923 7.340765961838586 -0.7148229859967109 0.7187305485812332 -0.1117771672750075
Ni 2.1433105784346327 5.327304012761298 3.228412724681249 -0.7010344168530507 -0.28817258475103275 -0.5773245026961993
Ni 1.414380500033773 1.1600790849163125 7.47550832662295 -0.05967299038060045 0.08508243159264056 0.7886193031525709
Ni 1.0554732161231373 3.5758197303383876 4.747098010529323 -0.08438180598119016 -0.8784883575005773 -1.1385868097232135
Ni 0.6380894323246158 7.577967501065239 11.833582568807957 0.36759756094757984 -0.062291401840054016 0.5932650851858556
Ni 2.400641015665843 5.491053130153883 7.460970839709449 -0.6213950106528524 -0.4156656200994002 1.0347474092380438
Ni 6.278407860316357 2.3486291584693757 2.876333020345931 -0.4506621907792432 -0.14540616818336247 1.1692778110491668
Ni 4.104870733881749 7.4100705335709405 6.574407903583529 0.1922490966788302 -1.24414447845107 -1.368521079657643
Ni 8.423492190439221 7.473652709472184 1.0006233562254985 -0.28666386141599015 -0.5066225081949469 -0.8563863833952153
P 9.246249185066308 5.697990827114295 8.577691246819116 -0.08126177229496973 -0.49558219122038516 0.8030671031467846
P 8.641872859829357 1.9964166501615033 8.764568266993747 -0.42143157604889997 -0.7236619244445794 -1.069424134684623
P 1.8632943119190581 3.429216879265379 11.340516893745699 -1.0000364881194197 -1.7238753044614956 -0.42654704289859446
P 3.897269017058563 6.250055121792155 4.318999856917629 -0.716638699049211 1.7647738424480701 0.11623057506067079
P 6.823513590678845 4.096038360090604 10.714039622473376 -1.0317014233228683 0.14815801989688676 2.528452159384587
P 6.456310606564784 8.247308618904004 10.926690619102395 -0.54543048220108 -0.739154877873856 -1.08051587372241
P 2.2238480012428736 8.556150624393975 6.195169786860752 -0.09982025202344744 1.0036517162745038 0.7452386221740908
P 6.634804603375957 4.339715457403679 2.125777725208646 1.630654560032437 -0.15926621399490634 -1.5738213530934768
Ni 2.636249816838089 1.8678514893334393 0.6801446300444737 0.027550913035075134 -0.1354786246570054 0.26364811724710724
Ni 1.1625987219298524 3.495873558092891 9.22937034592434 -2.5186994508731977 1.6795165758404624 -1.8392149922767809
Ni 0.18035143319443844 0.16469511829297645 9.764585818796496 0.9310684455901385 -0.2798987747780147 -0.24797210127274713
Ni 2.690381079897931 2.0559874183985904 9.777285880884238 1.0172058008098546 -3.4121287459543233 0.3979121527707212
Ni 5.223625952543505 3.1700854018584246 0.7835325226783961 0.496477449341145 0.23955302397111647 0.1931548963225512
Ni 3.9734857626775213 7.249732477117263 10.884687269508808 0.2545019319714649 0.5417432631574799 -0.2506126242193878
Ni 6.913511022490991 6.099422670729982 11.898856630934898 0.5846742581930511 1.6647111353965138 -0.45137695745808065
Ni 7.489743820941325 4.080956922659379 8.711155600771702 1.8712532516592484 -0.17617147439067724 -0.47768319945277726
Ni 2.9322844255227745 8.603905477538687 13.016336567613626 -0.12888708748241673 0.21563867924736413 -0.026427598063909322
Ni 8.874898350850536 5.198866198208286 10.78828704891027 0.09762118748959962 -0.18287434033214955 -0.562425988317812
Ni 8.700497627166053 2.51615318330102 6.500426994707993 0.7800161348645922 0.9546925127669815 -0.6707658477764964
Ni 3.7670210661673043 2.9395431632007702 12.163016466973927 -0.4290842074981514 -0.2478707998081925 -0.6228685098745853
Ni 0.8765889939405543 3.734001996278676 13.369601501923185 -0.049807667550746476 -0.1620103523989468 -0.8279723510288967
Ni 3.1419509712343126 8.63870739527805 8.289235560732559 -0.600445662094695 0.6864380070961146 0.7372874856478141
Ni 5.658158731510355 8.160940555930855 3.782120695923537 -0.022115600952116753 0.07187133221900524 -0.1982125133511167
Ni 3.0421842608931344 8.644301535217858 4.077925171696878 0.2769399492600069 -0.1443021364859063 0.19735556466746013
Ni 5.229520265845938 3.1630176835930075 5.187829824242481 0.021593924120691842 -0.5324366410445733 0.8514118129987596
Ni 5.8316225504569505 5.642595197466431 9.592193527792842 0.49319852147955706 -0.014674314182723115 1.0669404490308205
Ni 7.945670774117006 0.1399126235514977 2.6458826529295645 0.9386264604430544 0.46358275549565325 2.143733365375689
Ni 4.290659853020932 0.15927016697573734 1.899400619361461 0.21528952343806146 0.7887185477345965 -0.08583602192921347
Ni 5.866060621696164 5.998600805538369 0.7639057328440454 0.04218177557437252 0.24953044689880252 0.500762449869744
Ni 8.077856207621563 0.03333379711125823 12.039031223966504 -0.9228969655229395 0.6208111131249244 0.2167938758977299
Ni 9.14246197089847 4.952842290969242 6.429081244109796 0.21802337742945677 -0.22861632245395466 1.613385231429028
Ni 7.308293571316434 6.164369271006788 3.159290985815219 -1.1415170959961307 2.0219083269463756 0.36958142414682804
P 8.536539298035882 2.040505749817201 3.9226673220015464 -0.29290598567096005 0.26898547029962067 0.7293869998538148
P 1.921409694155545 3.601116158261329 1.9332565362004346 0.03991277703453771 0.4648639362009219 0.42333804904299355
P 4.691200272711251 1.2361684842602176 8.656625016177946 0.4224903563307176 -1.0308215918210766 -0.09565866444659009
P 8.516245759490005 1.9038268120357877 13.111099478961489 -0.6659409155840272 0.15589266953698314 -0.8445338549320035
P 6.412767276659313 8.055861686687486 1.5859959787596059 -0.9482716968423025 -1.2379442631776294 1.386289716494974
P 1.9387742683752118 3.2461929935273375 6.836650268566767 -1.8578616608436906 0.7551841634225769 -0.7967987536395696
P 6.57552491233899 4.241504190850643 6.69606361937374 1.1874380268979614 -0.45820426479255927 -1.9145526857778317
P 2.4035972684795635 8.88801501718095 10.315723214515224 -1.1714519358823503 0.022110458745794176 1.2823973512846818
