# total energy = -381170.7258285147 ev
CRYSTAL
PRIMVEC
9.20633767968537 0.00000000000000 0.00000000000000
0.00000000000000 9.20633767968537 0.00000000000000
0.00000000000000 0.00000000000000 13.47440578508928
PRIMCOORD
 96 1
Ni 1.0887230870036209 4.427824955493408 5.3541491656139835 -1.5509989558823223 0.11220551306167773 0.5824497397379066
Ni 0.609786382563787 1.3832706562639994 2.281769631236342 -1.4980805106167363 -0.49167694262870804 -1.2699686386030258
Ni 6.020097890851898 -0.18972973169530027 0.14696168978121987 1.3644633646485018 1.4770553145153207 -0.2329730567607536
Ni 4.424298928143695 1.5701316931233449 9.814689762856585 1.095280176515778 -0.005173573781139477 -0.41704038895973977
Ni 1.4969321018503166 1.0905183228605244 11.753993757593586 -0.6792481742158947 0.23051765324172557 -1.6020633786583054
Ni 2.9582080576812095 7.113930495294397 0.3598472021292583 0.6371990675646445 -0.8150433016720544 0.23171013088793
Ni 8.425750764453634 9.122164181866316 1.1891025491501697 -1.40649267380541 -1.0488275414801937 -0.9029398056747224
Ni 8.521284931054089 2.4998060895430347 7.667192726111359 0.15365838088982567 0.8379520879494279 -1.0447693122504202
Ni 0.6099336839674304 3.8450821900047716 12.309274017640462 -0.44492657384704665 -1.048478385670891 -0.2860920480729202
Ni 7.7112929250946385 4.761352158692914 13.314599653070069 -0.2930293986227018 -0.5668367157909979 -1.1350625986200387
Ni 8.139323185069095 3.091055511092076 1.7064121898728748 0.24298698935332988 0.1095693609904113 -0.352605972634754
Ni 4.686016697067056 2.3110301344363253 -0.06733423350670384 -2.0511271146021772 -1.0971105448562977 1.2436320575910258
Ni 0.23201628214622141 0.6434281818883877 8.955265247101964 -0.12971421136940242 0.8505155264367351 -0.9235482259536932
Ni 7.129820634212426 7.367896527851027 3.8667640359873032 0.025473718791072256 -1.7199926815776378 0.6607143770777653
Ni 9.365331180268338 2.6679966734905824 10.175089345249505 0.058047538962035516 -0.4709901037033179 0.2686915932082856
Ni 8.972726907870113 1.6600776127230792 13.125796078950177 2.279320747696416 0.14456875988373166 1.19093009921162
Ni 2.6329481457611874 5.998757599999064 5.967073068075374 -0.42752560476177986 1.6283835046100728 1.1940313638447628
Ni 3.5878202885416215 6.967798296542444 4.025411330246306 0.7614034048594112 0.04739391590293128 0.9384179439766742
Ni 4.782425465751644 1.9276782314544483 4.690319739320988 0.6105632101446711 0.294165569109674 1.5446437030882558
Ni 4.189196681591144 8.334423894194742 9.99408814235385 1.9396649074644274 -1.5794374137286733 -0.44277918848674064
Ni 4.271050230328221 7.773859196292161 7.425461916394857 0.6682505375538104 -0.020731576120396552 -0.00047308298167660464
Ni 2.4092985833419096 7.819062314535221 11.524443853324618 0.14474359489869912 0.7116317327529228 0.00906468130542955
Ni 0.38822205563983564 8.33217754778918 10.44243586905959 0.08323252286809535 -2.339009936026933 0.8213746432067208
Ni 2.746756892751148 9.393134320206025 8.653870003839714 -1.233185151226089 -0.5801241769285235 -1.1293061557522357
P 7.657712039519363 3.4643725059507475 11.455266511004826 0.05473981474504121 -0.15834884438695956 0.05269810172466409
Ni 2.2477089435451303 2.430473160115645 5.734316596375845 1.4701225919512295 2.0461278616153726 -0.6816776095929938
P 1.5679497910818774 8.114429247853366 5.4321793222927415 -0.054815662288299136 -0.4829233648057941 -0.18735911557638055
Ni 3.650902114651896 3.797798439435249 9.286116167924026 1.3620997495123315 -0.7602708339168649 0.5384836185696017
P 5.578433044702701 6.19321386548377 5.268223653699941 -0.8667859814619845 0.6310086224832165 0.23531661729226572
P 4.099747904228707 2.3563069033812067 6.816783056259713 1.0977646335005287 0.07833559978711024 0.6328305061833037
P 2.275604146860094 1.9687292913823107 9.691345091248262 -0.7680790171073739 1.3337715919915998 0.6849879049131492
Ni 6.709578935955613 5.6341958323194445 7.512695648900007 -1.0566328964572254 -1.6755979575123463 -0.09994186520297627
Ni 3.663809400146146 0.617954245395812 11.797475290681563 1.0436691372077058 0.3277760580752678 1.8032979666651976
Ni 5.840693987551997 1.2229422847359164 2.136838859557855 -0.7457667267634189 1.0407316518459366 -1.249746655129196
Ni 1.4731981631882782 3.2026087053387475 3.205534479468614 2.005096911815992 1.250580463884401 0.4308037612924193
Ni 0.3160637011638114 6.257971245060488 3.380971371841643 -0.10080909829927799 -1.3225183876752837 0.8271511406791819
Ni 7.135620626980884 8.619811157416049 8.794825478887375 -0.29661968707712144 0.15750629388100618 2.7410196559057955
Ni 8.013012231444904 0.5612689827387513 11.292077730344744 -0.49076574366834835 0.8928849925418816 -0.006627275508530522
Ni 8.55433568349657 6.379651410807641 9.089362921176255 -0.1680889544928589 0.12825870986979845 -0.14670817482423765
Ni 5.329373990154941 3.116667542650567 11.499771788848125 0.7729016353069978 -0.061781552083171015 -1.7325342656880744
Ni 1.140250959265618 0.8077880087074355 6.734952523366957 -1.4001250797161695 -1.6008922411683397 0.5187815121549839
Ni 1.5182355673522394 8.98383895750746 13.902622253245546 -0.9140518564274839 0.784936712094661 -1.1488964191793374
Ni 1.9039442927924097 0.8290767440689938 4.139418013497412 0.38214254864129027 -0.7910423107717667 0.658814331841575
Ni 3.7727572008158754 5.7770229558271495 8.192074579615106 -0.9533025743979905 -0.09849664811601745 1.4974433912533696
Ni 5.8534263526294215 3.8541504326665663 1.1588229043637288 -0.05397414022361027 0.957534353091151 1.1083979448446588
Ni 4.88261803924232 7.626336840543324 12.270763906925447 -0.569899928097354 -0.9349675235342285 -0.700988908327096
Ni 7.118248267688695 2.4733470749135935 3.7361969924315903 -0.39742929959703166 -0.21846997804857213 -2.311041475838465
Ni 7.731951946955622 4.218518867253904 9.37325507515058 1.0156052890919542 -0.03429183130333449 -0.974302059467793
Ni 2.954912188774689 3.7820556019208635 11.507425938034945 -0.4721332161688256 -1.3667120514733622 0.7781099189808148
Ni 0.8414924111285846 4.381351362643924 1.1136888336536268 -0.8993366617044962 0.3482700642635615 0.25878898938259304
Ni 6.963213540354044 2.3298294760763105 13.256956010655554 -1.4563407076757886 -0.3249403883986856 -0.6479298237185873
Ni 2.129499567121324 2.367621492448563 0.23735595802829365 -0.2787044973595974 -1.244739945943224 -0.45102960142099097
Ni 7.273034423904695 7.542439484830696 10.911061475244388 -1.9233494581338555 0.2208184236760907 0.25013311347980793
Ni 7.167281222426482 0.43480428327450665 5.15828525109071 0.9212630294639423 0.8750770178261833 1.0715098135690577
Ni 3.0599565022478687 4.370036773576568 0.48281073135565444 0.7937684514536781 0.5708540644805072 -0.4712359011655368
Ni 5.9390176744839485 3.5192975168342704 7.992910193016448 -1.204088748080765 -1.4558696815766412 0.0009417950879790231
P 8.403848886999409 7.72970560055006 12.830059971489149 0.24408176507940543 -0.012681195012094292 0.5457086755631312
Ni 5.517256930502062 5.200393198589713 3.2635141532101906 -0.5425279638423043 0.375899653055372 -0.4602305511939686
P 7.224701150834214 0.0764963808133216 3.080411143411297 0.47003339621700346 0.3177502984081495 -0.8523947457373191
Ni 0.8023323329699941 7.412519646817241 7.57680674356824 1.1828653199256145 1.149619156277975 -0.11126294664275031
P 5.688982748137051 6.739370644842485 9.119747518212792 -0.06551042299798396 0.12090458349757241 0.7679283504621226
P 4.488025197894909 5.802321971902899 1.2661936593807013 0.20838225479526695 0.061255247266055794 1.3518647020478847
P 8.792715386280186 3.9079983020359466 3.753174399835262 -0.6380734997497979 0.7119366655878513 -0.9202101627193958
Ni 6.7542296739350105 2.8063403105248925 5.755592442864584 -0.6973220009984701 0.40213261860997196 3.4830942785296077
Ni 5.283379126867298 8.445305025787292 5.267050766273431 -0.39190759844785406 -1.48242480635735 0.49211814393118475
Ni 1.1631471211944349 4.806674959326434 9.821278738768306 0.6146129547340125 1.170515797221326 0.3100331322695499
Ni 2.503479418296391 5.526380411190225 2.5227722196385813 -0.2711292561155008 0.6967615005093096 -1.3622874400431055
Ni 4.215582045518763 2.9928423002128572 2.810558654471729 -0.7038346053060073 0.17415418685033232 -1.3936659543543868
Ni 2.3119967998977344 8.15732157532677 2.490340133091402 -0.8288403554561468 -0.35595200628885154 0.17793885070374518
Ni 7.65760156346663 5.582161611482423 1.8834390167714796 1.857076188827918 -1.2706265839019988 3.4677311658099765
Ni 1.9510347102696506 3.491393107181579 7.893172412609521 -1.2755021668267454 -0.29716733205047535 -0.7149669677737429
Ni 7.070200391087771 7.614755267681864 6.812619029705471 -0.9401688652295099 1.7148908415746982 -1.87617562866153
Ni 7.385535870937321 5.031309599882577 4.95674839125962 0.008614995362520647 -0.7303249382870518 0.2902544069807259
Ni 3.2391762787932143 4.527060069860402 4.334770055643026 0.8090086654422003 -0.7968344919735116 0.7253400834779508
Ni 3.388567521100777 9.543842068808651 6.247058052318059 -0.2426360337718144 -0.18180399008610626 -1.210056792738742
Ni 4.480245842514993 4.493723920948361 6.448042531885486 0.2783193461060368 0.07979521505177226 -1.0943149843890316
Ni 9.256696395081354 8.616073384298598 3.447978780359013 0.1664568182060746 -0.4617086784013919 1.0483248908121623
Ni 6.930015486507919 2.014328282147662 9.387174137161107 0.23826284440478318 -1.5833503756298344 1.4541691539457666
Ni 8.70796184115888 5.903729781973633 11.531692923651418 0.5933273058823588 -0.24102858007537845 -0.22097834629272264
Ni 6.267748375727317 5.209176044781949 10.820581588056445 0.36205194853900224 1.2873413255535184 -0.47664755909941137
Ni 5.029265792907025 5.188277658140046 12.703225177248251 -0.45393674776545695 -0.18172428588810638 1.0225344121116196
Ni 4.107959957481825 9.303648717492678 3.5625654628869654 -1.4192558870083494 1.3732459959371384 -0.4218668638141057
Ni 5.358604112440423 0.580721974357404 7.697550624768485 0.10766700176137585 1.6869439786527851 -0.492590712692229
Ni 9.171399676034113 2.1149995852001795 5.010066896209657 -0.725480465710557 -0.25123817361852857 0.08998064022520634
Ni 3.8288422102530895 9.311289977806679 0.9366601654874764 -0.04869283722001291 0.6147366247960703 -0.29418613793496434
Ni 5.272616918063604 7.905832047618896 2.380913602859832 0.3074167776926254 -0.8536178195111428 -0.5849797052486119
Ni 3.90082656494606 5.745426804745646 10.753465544753888 -0.3988842868760033 1.2936999207816946 -1.0652838872640042
Ni 1.7287476858340738 5.826037497889482 12.191521275567949 0.5735997455464443 -0.7082497036545673 0.5449460863654938
P 8.745532905425668 4.927406872287633 7.149587561947594 0.8378597853459376 -0.19202566781411443 0.2604800039317708
Ni 6.369478407618521 6.736728425914632 0.740154569224581 -0.3503138341664676 0.8412413002236607 -2.312534258333908
P 2.673419206412204 1.519524454634119 2.1169909160506832 1.6211900721854273 -0.49459103095170953 0.4604426672047747
Ni 0.5751346479904564 6.776361709832426 1.201238343542838 -0.10919372281854743 0.7168585283695009 -1.632830227527517
P 8.075237868146502 0.28844192607936076 7.175269561672816 1.2660965572421292 1.661696516939906 -0.6535700527235002
P 2.0705882120017027 7.1800872382057275 9.40390941788254 0.4324523526394359 -0.5304093262018994 0.09955774239068015
P 5.839441925621029 0.2818059978452268 11.361740246662785 -0.12241896325956982 0.19807084556692983 -0.3614017165495131
Ni 8.7968398255822 6.690411340806518 5.68268285122998 1.8482202810991846 0.20317397112145008 -0.30554115793646736
