# total energy = -340896.96039662656 ev
CRYSTAL
PRIMVEC
9.01643524884783 0.00000000000000 0.00000000000000
0.00000000000000 9.01643524884783 0.00000000000000
0.00000000000000 0.00000000000000 13.19646438193605
PRIMCOORD
 96 1
Ni 6.272156831928088 1.9803968498398314 11.392626378471524 0.01257372289995254 0.05100888694769925 0.27369033197445775
Ni 4.557050551388609 0.35721312492068696 5.901049380552184 0.4417967699688133 -0.3379386004305664 0.19278440035700992
Ni 2.8348303035725784 1.6424788959860905 4.893314891049043 -0.9900744918107012 -0.3574208775248941 -0.2620746021124003
Ni 3.3419596945353742 4.343433171520344 5.143796867377268 0.7524371968050589 0.2058142369577746 -1.2924241393930644
Ni 5.155254953074405 4.708129937555781 2.5812547883690873 -0.13874032612741266 -0.4360282429161523 0.25646908300016474
Ni 7.392115282273217 6.19245154583846 2.54639003720943 -0.1900096658253502 -0.3229225866377084 0.740852320180937
Ni 5.054324978811137 4.469798509138685 11.731392778866105 0.4626036794118355 0.3407447024207938 -0.23227011715645804
Ni 5.571345399054512 7.635865588172198 12.414732163845507 0.09345111527231002 1.4909073899070646 -0.06077033720983728
Ni 1.8102657363528196 6.4507183122130405 0.5613199690686644 -0.12272029655007252 0.2938647500398036 -1.0158302606185665
Ni 2.597048877695241 1.7193620378963006 0.3324693221360981 0.5417100959266994 -1.3769820659408027 0.6440014351984586
Ni 0.37072064631105706 0.011504971159543555 4.8086731067542035 0.4005087098533038 0.18916351577497098 0.14776284134099713
Ni 8.540818127647047 2.317124634263275 1.3054679955011976 0.2610698149969697 0.1569977296757038 0.827503381812278
Ni 6.7755985009439765 0.6475378262151406 4.72176098410672 -0.11735054759772694 0.5346871276416468 0.37508358491197985
Ni 0.8104900540930392 7.349494593659452 2.7066607772951277 0.20744894434772013 0.3670072356617486 -0.07804686490209785
Ni 7.3915201975580676 3.7770297363546965 3.707770891946454 0.9372167245797214 -0.19870950759219325 -0.6999463259951946
Ni 7.583669445505585 3.7385656243118963 12.518086657501254 0.2233242208170799 0.09636057560962115 -0.09871493477441064
Ni 7.906196344681159 8.863886012927301 6.9041791766609855 0.15454669703204998 -0.532088256566219 -0.10229930969155931
Ni 6.914523732625988 0.7258356467890905 0.22702121225523772 -1.2013728918114988 -0.8002975108214476 0.6429058881414347
Ni 1.9136932631326973 6.478371718597304 9.176425406966962 -0.026803493346089325 -0.14317033687430825 0.007490909060406454
Ni -0.10031595503445583 4.848596979636133 1.2232498289553282 0.2924393304471867 -0.37623801023139725 0.5349658352243303
Ni 6.2940667691676575 2.3125172359384103 6.836124927979165 0.5932877108936749 -1.938328190930875 0.5190545633107125
Ni 3.1877065232207418 4.284375521759364 0.48295272194461375 0.7104032596624603 0.8292329629088752 -0.29780213742099676
Ni 5.939324147458346 5.738356826004533 4.771036703451565 0.061642455402145455 -1.1635308812630607 0.11918348704140765
Ni 5.37259612062989 2.860482061369523 9.199030511351046 -0.7372602319543045 0.04864064382583881 -0.3880434875067575
P -0.010745787325974929 5.48163187002829 12.30938503803752 1.2219324611304054 0.6540117682466091 0.6911639518168742
P 3.988699566246111 6.102692934636849 12.646844956989298 -0.32901558690932364 0.31454284721444536 0.26272611965347015
P 2.308324593627135 8.453016082857365 1.450727272825513 0.15960328561935094 -0.04169275175309594 -0.15606467633847315
P 6.358741657982239 7.747858728276187 5.742441271094871 -0.4477640432958418 0.19464742170767768 -0.3027286281883367
P 4.565327638790224 0.9695823461140409 12.443078032443763 0.7087662382796697 0.5720144033371956 1.0227143893329098
P 4.143340444269097 6.077077242580216 8.040011962604462 -0.5054115186059812 0.4497677039894319 1.0464240742450237
P 4.556473499543617 1.1571241957366944 3.681324786219136 0.7472137436225905 -0.5338114099049128 0.08109850724422807
P 0.17479802028339111 5.462877685066026 3.544491367475223 0.7182592653717694 -0.9116494176335783 -0.19484308265825154
Ni 1.363834986335202 1.0300465597471906 2.6920388245291154 0.10071705280610395 0.6829523625403592 -0.5584461777344576
Ni 1.8717668400199405 6.3290415208352675 4.829892385066797 0.3023028535048277 1.2635359956038044 -0.5497823314118726
Ni 6.05052384127547 5.629744849054798 9.154638093244452 -0.6599389323643216 0.3344611834049272 0.22357541759593755
Ni 8.613147969842862 2.330180432256236 10.175925186313355 -0.3627170929268269 -0.1363088338677846 0.1960129345966366
Ni 2.368157656804824 5.19352070354549 7.08527427520286 -0.18236526190621496 -0.1722564556069872 1.012740051729017
Ni 0.9381510534320904 8.829632576065933 8.96276114163629 -0.9757832719990098 0.04813747893717516 0.5970440926123137
Ni 1.4809494615635024 1.2029006366277624 11.302111288366866 0.39328776662483234 -0.40926460166906287 -0.23279590775294098
Ni 4.144548646569551 6.721265463163875 1.6564462555654391 0.028546701289441163 0.3951947538395581 -0.42149945317235793
Ni 5.611964439080958 7.842648510251329 7.857187511814623 0.16780716158638195 0.6589953375041295 0.7638330973468265
Ni 5.207351914955161 3.003636001103123 4.823439322481463 0.33426500823372113 -0.3989411082558678 -0.7100703018030738
Ni 0.7464922995528165 7.167984739103989 6.8793037339242575 0.008033668937753905 0.8019188484749544 0.22314115827199635
Ni 5.278419456240052 4.536808654638472 6.9668091379998724 -1.1943771772199558 -0.34478519103875455 0.08171865732673023
Ni 8.251156134330827 7.079794987605951 9.070787951949464 -0.4299023325240725 0.34277484547694514 0.12311624643691055
Ni 4.7298144639184 0.4670062548656414 10.213720278873366 -1.0340750657613673 -1.1041504824222148 0.6267629598329851
Ni 8.277790683551276 6.90879829635145 4.872649221850239 -0.40661302297882873 0.6205159504820088 -0.046908234515764376
Ni 7.102877061405663 6.132131595166558 6.966980450266356 1.6534134509955074 -0.7466393591763593 0.06983090475020877
Ni 2.3654166605411078 5.166606644837623 2.6232199821526794 -0.8177915538411529 0.03114171571012701 0.23516980730175627
Ni 2.3760380210630063 5.29399083961978 11.363501489882527 -0.586895434214086 0.2001909772337262 0.38380168151126803
Ni 1.2044334305910245 3.2700175590479152 3.901758591006378 -0.9795558516675646 0.28093621490359355 -0.44788848468884795
Ni 3.5196105148774484 2.9049421027392013 2.780032919385959 0.04076329796029109 -0.42071835203195934 -0.027225411374856335
Ni 0.9062238568208492 3.2162615731128064 8.21012774815184 0.5614397131451427 0.7446539533152143 0.044059452213059604
Ni 3.5812198157655057 2.6691983911894948 7.191782717848894 0.9915047964993247 0.7727887638782175 -0.35839532562302145
Ni 4.004442261892319 6.949651763689924 5.96217540052006 0.3125831523849133 -0.09530719464444232 -0.002766764111859751
Ni 0.6647393810569721 7.240756386618626 11.248851206361048 0.4496352921766257 0.40437359212534874 -0.019531385164708297
P 0.239049136649306 5.379232216847306 7.998139638102172 -0.18225007648458935 0.5490379970466802 0.336866193301994
P 8.54733701020845 1.484474887679005 8.034997021414071 0.08756843123928791 0.7334596272612917 0.3724674874453714
P 1.7897443301152638 3.3289940608931925 10.371087726863943 0.07778332682806605 -0.7760023857195087 -0.7143504172356665
P 3.8961638930404714 6.178160496239811 3.867830647451326 0.4826690827031429 -0.40890516144711514 -0.4699868592497841
P 6.7588820303093415 3.9205443334914163 10.453157122231026 0.5864262078871514 0.7849428827422482 -0.5796027572074147
P 6.404851706971193 7.963594970387785 10.19149747133659 -0.6062432426130785 -2.0606394249679867 -0.1257202597186609
P 2.286910560316856 8.485935087327187 5.764888587865091 0.157359998111129 0.052085150731013524 0.5661731140650701
P 6.728604841317377 3.739512349995088 1.4380447552447813 0.1525378941321373 0.023710970463694647 0.10282330051582936
Ni 4.881488934800721 2.74093314867016 0.6447815020117922 1.1887274351333463 -0.6307494552845588 -0.4878172025629858
Ni 1.560708846263598 1.1504610502140433 7.1005030340496225 -0.2285214487473032 -0.637146102839522 -1.2569907382861192
Ni 6.827136443849894 0.7905772572232492 9.212781476488523 0.6209751495066145 0.40764712067029796 -1.4319013436865018
Ni 2.8178433398856035 1.550303880183572 9.149213805901521 -0.0734589884210993 0.2734643320065806 1.0236708397089083
Ni 6.260525630677452 1.7376293353643533 2.4855804941127917 0.6636942856416956 0.6431033488642215 0.1922501251200947
Ni 4.139598623711723 6.877583398111372 10.351543702188845 0.6754074603135659 -0.07598278328421752 -0.011700833376695979
Ni 8.123014559002119 7.277850000529567 0.17890590810493348 0.48028746984484383 -0.26241347350905775 -0.1376586630274597
Ni 7.470441053795908 3.900663094144399 8.262253562624846 1.035871495540158 -0.16756599210985337 -0.13698220578572537
Ni 3.1633080498996407 8.299799801576702 12.446403293700534 -0.5990878625152198 -0.18838421440678524 0.4019256448054884
Ni -0.005637976854281022 4.737730893916895 10.176611337022793 0.0976121886285351 0.4404765084954931 0.21346352597291623
Ni 8.691131116832588 2.4506670542037132 5.789473701392307 -0.36658711740519445 -0.8693935942881609 0.15817452359262438
Ni 3.6448217488058035 2.711602685361386 11.391940227762086 -0.4006321228050455 -0.583034408596783 -0.11971621961642608
Ni 1.2427803289778103 3.4291756710449866 12.573867734754884 -1.6897953320586512 0.3148750337428835 -0.3984510559933267
Ni 3.212519752555431 8.310772803066644 8.027026492805108 -0.0165627894546876 -0.06297762927380122 -0.383449697488488
Ni 5.658020389459444 7.754954662682583 3.5881056672345837 -0.7260201402641109 0.8731620601916575 -0.7514110695333898
Ni 3.1074782838965893 8.354890219903359 3.6292647917222016 9.615925823209247e-05 0.04026398972636937 0.2894062000478177
Ni 3.5011087900973674 4.344605308080486 9.397531837811023 0.1751461184499564 0.2517829903784051 -0.6782865816335738
Ni 7.13010669534126 6.121176626546774 11.30188768077693 0.1664323927260424 -0.29695598737061757 -0.23804867151144807
Ni 0.6354170325397687 9.035099098623675 0.12053170412286696 0.2731905095199037 0.05316809938254714 0.4896645401843696
Ni 4.4553541801437095 0.15840884624208834 1.584829613384296 0.27630077301411127 0.48492599705811973 -0.5614559110950589
Ni 6.254773145097681 5.66175319358174 0.40816680283354945 -0.5177242745350633 -0.6352280598812028 0.3888407865970722
Ni 7.9394940394242575 8.966880750823435 11.283544645254224 0.8259110976244937 -0.4169977086472625 0.10004059556436966
Ni 0.347351849875865 4.825415725050564 5.722976591048459 -1.4095926528869724 -0.5192931616840798 0.6510328881239433
Ni 8.016900134568992 8.846231833044554 2.4237809464445887 -0.12806073492637945 -0.1895550947864348 -0.1756379704847104
P 8.377043600890033 1.6147804074264371 3.5934893806196646 0.40829992376294844 0.6124629982705452 0.27261921039746595
P 1.63454443311744 3.2343124761389865 1.6499670453183797 -0.08757254500434596 -0.40354364002488563 0.12933060277773853
P 4.865421647491704 1.0596384996732267 8.02591837293402 -0.5029699990440241 -0.5568433520237119 0.056815466327147304
P 8.57160023700338 1.7326342303311344 12.379748395742821 0.10852395044503245 -0.2761398219562148 -0.39597122699426646
P 6.411650099020015 7.725227476230375 1.4036551702137348 -1.3709813682726775 0.7733096693786939 -0.16378364224928565
P 1.8052525984494447 3.1692588970511286 6.127395261820079 -0.46838711886283196 -0.011638355569876732 -0.41226173662417387
P 7.142017406079314 4.045971961861644 5.8685207877212395 -0.6929634669194582 1.1047937724331682 0.04509226435294815
P 2.5976169131051563 8.427517604456746 10.313920823538822 -1.0834063078963279 0.5399113521550638 -0.568986415144149
