# total energy = -340873.803410996 ev
CRYSTAL
PRIMVEC
9.23014478380360 0.00000000000000 0.00000000000000

0.00000000000000 9.23014478380360 0.00000000000000

0.00000000000000 0.00000000000000 13.50924988843045

PRIMCOORD
 96 1
Ni 6.299795404853419 4.222172863413321 7.660231073956699 -0.5100734428580248 0.4015723752311277 0.3646755022047784
Ni 4.077010374867673 5.615306320758031 10.289955654476518 0.2893576061980694 0.4251589043018162 -1.226924515028358
Ni 3.4750572462994174 4.356157646507912 8.056821786050042 -0.8049666341623426 -0.2848031540581676 0.4927989720482932
Ni 1.0762441232855011 2.6141708633806138 5.3020296654053 0.10687741598054497 0.13632631736928133 -1.1956622145799667
Ni 4.593095465606709 8.358865355082429 3.6310974605874855 2.144717583665829 0.7440631138087508 -0.6756648277400106
Ni 5.565002031155832 6.1053624029322595 2.9903666473445947 -0.9893031608623155 0.592397852089554 0.2071319273279336
Ni 6.821501653825066 0.6312643766527961 2.9605117437265562 -1.2252304151553866 1.3133709168480607 -1.1779362580551132
Ni 1.5757426436731325 5.362400351014867 9.895458339242218 0.4872826702157543 0.4747012340063179 -1.271970499524403
Ni 8.726031288309194 0.07970968516452631 5.635788935263763 -0.4180770577543704 0.30064654884832737 0.5281130739685549
Ni 5.533462626096986 2.99685267015257 3.2714808628590033 1.7466367665277274 0.15553142954282245 -0.6900542636924631
Ni 7.9577786394174845 6.993671546292922 7.07694222135259 1.0972704674729297 0.2252944571695733 1.4304458421868977
Ni 5.006919781207622 4.995086735470004 12.36642165876301 0.5301231624200483 -0.3030245621622007 0.26290738242634076
Ni 0.46239979906687567 1.7293691750747833 7.369444589621347 -0.45174719631330584 -1.2147367147129144 -0.21917497453539675
Ni 2.3017027687194695 4.951280467864127 4.618488517189206 -0.07129077712518689 -2.5656269686626714 -0.012841631849358529
Ni 2.505495137550102 0.15346684989520712 2.814895132052756 -0.18850171382125602 -0.39537601661242877 0.14636544677283825
Ni 7.553821348694506 5.099405832916619 3.164542250295122 1.8875442755097882 -0.05028435007684888 0.3261601197383996
Ni 3.0513566756756862 1.7411376097982334 1.164997504404566 2.181810117642752 1.8271151236894534 -0.5526462832232288
Ni 3.223886543793906 5.981346176309297 6.311346008157674 1.6323075222548276 1.414614788691912 0.5052557097544073
Ni 9.038859358620702 1.0673001128956792 9.954560802945117 0.4242338213843855 0.266784863103876 -0.37940483799515307
Ni 8.82315087274852 5.772735671850711 11.18498342029616 -1.1776968883507977 0.6857836613415673 0.757114033455438
Ni 3.096464393709805 5.970122320133834 0.19731649918202654 0.8078007611770281 0.5968718287005075 0.9263995793595594
Ni 1.0099070720247667 5.969670043034659 7.206658062439655 0.02610389617590343 -2.3256304293962335 2.0050305773544306
Ni 5.204472572098607 -0.004325245891300983 1.0906080747495273 -0.8599766718496351 0.8361458879786244 0.28673868051798357
Ni 8.387404963054905 2.828900953895394 2.742080365114439 -1.130103969063183 0.6110884865205217 0.42940456695204754
P 4.49450828813128 4.4870041803429155 4.513372858239349 -0.8138762779471468 0.3549397629742532 0.6251434219516911
P 1.2381593247904135 4.320787731323393 11.768326730755067 1.6956888147249507 0.8152675018677185 0.537706374083945
P 4.052532030642897 3.6853937878507765 0.3039726693125453 -0.4060268114580556 0.32474267056558265 0.4666544524424415
P 1.2711294023058362 3.6745668279052017 7.1557685816519925 1.5617672501424198 1.5620642125575486 0.4336016357525307
P 8.537127143171835 9.106313257412054 7.921432174904542 -0.3750249637599025 -0.38228473064610935 0.31589164793285596
P 3.7813872946146048 7.17186872336816 2.0925827602634444 0.10368513429549239 -1.1173875499377788 -1.163429579798506
P 1.52297390538767 7.643326063606897 0.5843300129467006 -0.8337385640887125 -0.0392723152370614 0.06580661408216408
P 0.5014442349285749 4.329999415914768 3.706289912847183 -0.7028796975919056 0.0859640628666455 -0.6249727007017817
Ni 8.525921747286134 4.08492983917569 6.430673321181017 -0.06334375436396833 0.6978161670260691 -0.15387538199663822
Ni 6.343444759996317 6.934072500795417 11.521485889213299 0.6533926466053716 0.2544263415385231 0.41973824750687716
Ni 6.6510670285948645 4.7032018638937965 10.429032708502032 -0.030416921728960523 0.8805794357016513 0.08532334395885306
Ni 1.7277538997205841 6.738790325545193 11.890585537792662 -0.14156494006040132 -0.6201624237973319 0.5299807233049131
Ni 5.802152143586896 6.43070654970259 6.37602809444122 -1.5247719038649934 -0.08239691434067745 -0.4668316014502541
Ni 1.8176462807179812 5.7743047964805045 2.4567784328674587 -0.9201376576102476 -0.7883629641673906 -1.679088487164108
Ni 2.700011210775191 0.8617660157259759 6.161001716275756 -0.11815838821100295 0.013172532826216022 0.9999503561635166
Ni 8.292417542083122 5.076422772162587 8.761356898798283 0.3093821289491123 -0.3225495195690058 -0.09563886695224819
Ni 5.145141200802655 3.1215519274967365 9.559334306265207 0.4489480363016139 -0.4266429450465104 -1.3788363455407222
Ni 9.114666538529484 0.5817908000898997 3.199341742525986 0.5206902991419226 2.049966518635173 0.48135164944330006
Ni 0.41967899649901935 7.740759472972183 2.7829191411410314 0.14231930172792262 -1.5663486988655153 -1.3696729338738993
Ni 8.918387507632097 5.756998274828371 0.7796684920806993 -0.0993008891848677 0.47124232892344003 0.029183306432175548
Ni 7.2129059475096975 2.0119316003210423 7.031834503318472 -0.34166515735253417 0.44108303173124036 0.17801598379858377
Ni 1.1782187639323072 2.217856132619217 12.414771003679382 1.200711089857784 -0.7781927085026081 -0.29012996558771975
Ni 5.9522158390644275 2.273596977556406 0.7247075943859668 0.41292071036441147 -1.1459144537328783 -0.006157020740331332
Ni 8.364191148678845 3.3094592169869315 13.300262183807833 0.5628934148725339 -1.4894014947854994 2.7836724575793155
Ni 5.11588164152945 7.8404450376884665 9.498151367906098 1.0452177126417483 -0.8542310276151095 0.02482451524284757
Ni 8.147171982233543 7.994994583578231 13.228298436227558 0.01645711711475875 -0.3029458864054653 0.46243115838971327
Ni 2.958898314401333 1.707327589098627 8.628898781667033 0.5889854839738953 -0.09641893965138233 -0.008959008965500698
Ni 3.2140656696403767 0.07160007987195899 13.037142135739202 0.546080457080253 -1.246867276698872 -0.36373370711679937
Ni 5.377934684849821 0.6523127990397418 5.182094085834288 0.05378156459682996 1.2416703058789649 -0.09809941267759881
Ni 6.936223124552723 9.15293471920668 10.147919416002111 -0.5555248903226047 0.37637145048546794 -0.6367005306616712
Ni 1.6648781527902763 2.6148262036671746 2.879550450916147 -0.4229948067709618 0.38386904441409375 -0.17204562514776175
Ni 3.7110997413447437 4.2740831982248375 2.441607766740822 -0.8417010134688989 0.2598593396286364 -0.4950083209947862
P 7.593400209944824 6.0722261828089765 5.2359150606362 -0.08266636595198021 -1.7027308091733966 -1.3356649523595707
P 8.238319662934774 1.4599504761392639 1.0779350858277257 -1.0374442393439167 -0.4071586110696537 -0.09194290615789973
P 5.848312098137464 0.46386462305951215 12.492841415113018 -0.2079081433723258 0.586991336362002 -0.26914822112973
P 2.501793849452766 1.1055682935728746 10.952219472712615 -0.07527135903948971 -0.10285132554028739 -0.7270974324886897
P 2.8826296272484946 6.624705734814335 8.434743607106794 -0.7251745044343639 -0.8724737758753812 0.9503136669729956
P 7.44501640083566 1.788737466950259 4.8425124405848035 0.023044540524289343 0.32125831156140805 -0.6548399205748594
P 4.191445711104015 7.221185387468078 11.895988864606078 -0.21890500870346172 -0.7831680502300126 0.4780446965572541
P 4.248035729370268 7.892429213659033 5.700579014242419 -0.06543817499915182 0.4472374813684104 0.24537271597668708
Ni 3.1377692920528943 3.3912198403440463 10.524151197531129 -2.061977941273752 0.4796110126031095 0.1970280061247123
Ni 3.4750387860096548 2.080253132731221 4.494176002915559 -0.4793850126352325 2.1492021017997436 -0.7199963026675342
Ni 1.0378928713043754 8.993945473629088 12.271018881271571 -0.43335198163556976 0.030687401781527793 -1.1741991596101842
Ni 1.7257509582813773 3.896819486498109 0.47609179598355483 0.12993995422696333 0.4134554998219589 0.4775597865010356
Ni 6.336697524088205 2.638427684128243 11.695174140514101 0.6357294249976535 -0.1436994699049009 0.21061345811863086
Ni 5.957541632660844 4.510347216747312 1.166538938599716 0.6503970543121573 1.0688764897112688 -0.14026113364731327
Ni 1.3475088511972482 9.115847997074269 8.534522396286379 1.4378529332842462 0.0589844489540081 1.2352659450145178
Ni 4.120668960155453 2.242482159162092 12.204013567521443 -0.4967530716000348 -0.5077213976860805 1.4537816886993606
Ni 7.382020662021896 7.9209319010519845 4.010693629925678 -0.029231643171607723 -1.5376155925968809 0.28924782009308253
Ni 5.6733085511910994 7.10864223093237 0.6152759196896899 -0.3874241087552037 -1.8561454494835323 -0.7857712921808144
Ni 8.083742426610366 1.027195133387137 12.213671991125064 -0.15747621197401912 0.14882599249818884 1.387725677610552
Ni 0.9632486896506172 3.081760772914153 9.186425376893398 0.5114122162741063 0.7305738210730645 0.7091130800961272
Ni 6.567257313074137 8.956092649471543 6.890744354694382 0.03238561541955713 -1.6193015969134628 0.8995732031953345
Ni 1.5994087351483686 8.053172186764039 6.581139450975368 0.4458352017042451 0.1821228068781057 -0.6616446022015187
Ni 3.675471382103553 8.533075109569017 7.824963315679334 0.29099668446338917 0.6664325105084652 -0.8976119657039058
Ni 2.7241849602188903 7.1519223802800225 4.061974468856301 -0.8846304658425732 1.0212367763461185 1.4530921188315038
Ni 0.052466912547849284 7.2144289214150845 9.19185547112697 0.03897303882908772 0.6968149794550644 0.7126774004086178
Ni 2.973878839543419 8.140110921399474 10.273933045977351 -1.1812604373323399 0.48201473694859565 0.34500244925588325
Ni 0.9962833781802081 0.7953745066104427 0.9401991718534409 -0.3226629052184185 -1.2771885533902327 0.01897962642629635
Ni 4.503101553015619 2.6166353120638774 6.751193794236467 0.5603914743862864 -0.24217529208531197 -0.04663441202908743
Ni 0.43886754469241585 6.681046539168798 5.1599657364962495 -0.5454366528486672 -0.379520794747727 -2.41670353135467
Ni 8.747657517765699 3.2940356448905503 11.126731975951301 -1.0466158785408557 0.21707001237725196 -1.5121858396698666
Ni 6.441238145011968 3.938179765710486 5.23692853054415 0.47494240348284655 0.312768528922842 0.4593201235645573
Ni 4.770351167904072 0.8525607922360177 10.360230285543546 -0.6991942783205184 -0.08697964861535343 -0.1247661233355077
P 7.406443625377386 2.564854199280697 9.644982666646255 -0.9647524681061449 0.5127101091499234 -1.006841426856395
P 6.168275070442091 6.271717304124999 8.530199919438543 1.364087983586954 -1.0411196313129747 0.6314765632585706
P 7.298026343603546 4.944524001811134 12.833017481692849 -1.7504342858969466 2.3920595075537445 -1.1278493687010511
P 1.3856662701358702 9.049778620015088 4.645195941402777 0.5100667579898054 -0.38930384227641984 -0.18968364994449916
P 4.533764094310757 1.2288461086053457 2.9130807982258555 -0.03251982700457625 -1.2872461947365508 -1.4191856958920461
P 7.408465027106355 7.430783517428945 1.8359607341911341 0.4768321643063917 -0.5731328332123549 0.875178319290738
P 5.335494478686352 0.998369390923345 8.048338359889788 -1.518368828552127 0.7832019887917415 1.282552131694991
P 8.589508215372291 8.310960903149326 11.056969617925178 0.6145034257393417 -1.7142439520193185 0.28775272360479476
