# total energy = -340891.851101204 ev
CRYSTAL
PRIMVEC
9.07387707632908 0.00000000000000 0.00000000000000
0.00000000000000 9.07387707632908 0.00000000000000
0.00000000000000 0.00000000000000 13.28053630275637
PRIMCOORD
 96 1
Ni 6.299947614994277 2.1150935686017056 11.29314438789751 0.31457704288649047 -0.12465376612735951 0.3228446822119214
Ni 4.752724507204168 0.35638197386913234 6.299396830644354 0.2696616704310388 0.7461500782447666 -1.1983081368432458
Ni 2.823291541300736 1.473824514601784 5.0051026072613 -0.21849003265323014 -0.06352244603367771 -0.010169227223517971
Ni 3.258374882231264 3.9465377339314283 4.4680370523731865 -0.25009737514586605 0.8849575101646887 0.14220000254123896
Ni 5.121613913493969 4.650371171666485 2.7024029966759233 0.7625226060655189 -0.11268913756631561 0.11200573834604581
Ni 7.627927700332128 6.277988832015448 2.491535162938316 -1.2232038716436613 -0.573298926476574 0.4765552564959212
Ni 5.09249584135386 4.720094844562899 11.45897856877399 -1.0686456046473853 -0.5383545491909052 -0.22570763344759193
Ni 5.434081950956349 7.9479724253099295 12.578208663327647 0.8811494492725083 -0.21535045858298393 -0.09820045703183734
Ni 1.947970897153741 6.503783193852302 0.20239283237305086 0.33375361581494134 0.4047973099263286 1.1545705867459792
Ni 2.8216128740069 1.6032815215269718 0.45262859000815725 0.11222839587981316 -0.6327752274653361 -1.0953704222367395
Ni 0.21532220008649453 -0.09447539529709623 4.697538093072374 1.005080221190914 0.2759495603222796 0.3721682110373978
Ni 8.655925403322833 2.202084829931472 1.5048970999045534 0.452227221273518 -0.23706702432446913 0.04095484514580689
Ni 6.89779816628606 0.8004493606787254 4.988780516838855 -0.5397185194179673 -0.07301444468451296 0.13464892966685843
Ni 0.7813225347939842 7.446831257897635 2.515306906594488 1.069203019812752 -0.8884416120585473 0.35655030199448273
Ni 7.515874389999251 3.8130609993782976 3.7699591749866714 1.0267242818232512 0.10386742550962756 -0.11758194688224266
Ni 7.536698938320083 3.8788647572966735 12.670389275064682 1.1411208889989766 -0.3222476720578708 0.7583232232721907
Ni 8.084661312414509 8.768287225482684 7.179843308057771 -0.6243342957868344 0.6007703924239653 -0.06946940764573198
Ni 6.8220857343954195 0.6167614188976409 0.34003719875352706 -0.1572756659274388 0.36174547304217697 0.7203002070611982
Ni 2.0163153407060306 6.493175831330709 9.269655239826578 -1.0140335737294601 0.8000866803622222 -0.43910791028274054
Ni 0.024963143740932538 4.680841251518926 1.3463673902255768 0.7724064408381341 0.2946635917920151 -0.17469026185946043
Ni 6.1793467122787336 2.2059865971549826 6.989015132257662 1.0694269628981001 -0.5814727205366179 0.9158691121418808
Ni 3.315549382871595 4.1493661124131505 0.011706209058259266 -0.5636907139628485 0.8275383488152716 0.6853406602668777
Ni 6.38079586141633 5.6530164615816325 4.822083410234571 -1.6438492043458401 0.441692126070149 -0.08950241503720716
Ni 5.475168467207645 3.2548995872391595 9.189215317881404 -0.25061879486697486 -0.4545859513136817 -0.18810859214789538
P 0.24055211581898803 5.493715472335218 12.428496947573803 0.2575119224423823 0.05117086644686026 0.5152799267596286
P 4.029345937842501 6.273724109701379 12.486878273890245 -1.0855626921176982 -0.30952096851982175 1.5426158740249498
P 2.4454915875377075 8.551648405805187 1.489956960989412 0.21214172183769917 -0.3967387012879103 -0.6569963047962298
P 6.446263885875939 7.908646241247845 6.035259893040832 0.20026656766666798 -0.6311919421386162 -1.2712392777853332
P 4.933793728006868 1.2042214733344407 12.634996616796531 -1.691498945013319 -1.067607136080542 0.44803658023093806
P 3.8718687979261457 6.239960212402112 8.12087515657505 1.006005561218661 0.3184342118490516 0.3362866666494402
P 4.797694642924448 1.071261949785357 3.9396715310057755 -0.8746401873990809 1.0232332379508573 0.9088808537495057
P 0.2627649673612085 5.476284554111115 3.535531018933143 0.14872829057806 -0.4870705542049482 -0.1320693418651403
Ni 1.469859230237425 1.0354019868381121 2.722762055093113 -0.17168129982980757 0.17849446609689903 -0.6340137278581275
Ni 1.8736013990981693 6.253707136457041 4.706183683329494 1.0200409562658046 1.1064459633246106 -0.3733750868613053
Ni 6.17190613292227 5.6762002179910995 9.211393688690022 -0.35487985627059526 0.023742595032578466 0.2786980696016942
Ni 8.595629488903691 2.4784842052695355 10.52320503213119 0.2124883065438405 0.4257780259430538 0.13416221983842702
Ni 2.641224193998998 5.107966802088944 6.646815628552128 -0.3634642555054966 0.4387065610792638 0.9865011726371462
Ni 0.2825142612262588 9.352263818437843 9.474998897085875 0.4960953834113779 -1.944353314079032 1.0981976072728894
Ni 1.3519714168238102 0.9541454159391803 11.609565913683806 0.204519429405751 0.5348275098742531 -0.32241453665303826
Ni 4.160100509216437 6.938040811951806 1.9896771592221674 0.3779737619755813 0.5657205999086837 -1.0457725567039537
Ni 5.626148711002991 7.851934508347977 8.055561388028929 -0.6992349017504668 -0.6264171464577921 -0.005020593143042967
Ni 5.369439649327763 3.3148416204450046 4.967558532693861 0.8095102876689673 -1.0062896681179831 -0.4632328283554022
Ni 0.932712917841662 7.274463885391091 7.140426385223046 -0.31926313550825014 0.15862112421173974 -0.35976392383577394
Ni 5.290968758748873 4.821386536460697 7.003596853020875 -0.5327631711460566 0.16797222640933654 0.30174029613313835
Ni 8.240550523809668 7.11405588311847 9.067897578862006 0.5030916122235529 0.2972902307815848 0.6767709163199958
Ni 4.540822251458467 0.49768039062381286 10.575158423793825 -0.28038162795170424 -1.1135923445614047 -0.7602325244797616
Ni 8.32876675857007 6.937260458507104 4.948806457940122 0.06863225645641728 0.6321118828497243 -0.6135251209864725
Ni 7.448137896223648 6.081847901077279 6.995057427127745 -0.5203601694960135 0.07422620560442701 0.7187840275269879
Ni 2.675659558215798 5.102150446762733 2.4248530537007875 -1.5037639341547586 -0.6452749025942436 -0.30222752018220206
Ni 2.332612554373809 5.319533324375878 11.371924697691103 -0.1971223656107315 -0.5426742596121815 0.05040570614606158
Ni 1.0070461203881778 3.1559580295527327 3.7582457068266013 -0.3382209075576756 1.3354009000649065 -0.2711994472318039
Ni 3.8727489640207517 2.493991461513675 2.524006032727465 -1.1605041786215948 1.5571161245236538 0.6299588410624634
Ni 1.3189969468465106 3.24165172643375 7.986450201847832 -0.6841697798872282 1.0859771539472973 0.6448452712559927
Ni 3.782345924839729 2.972175719448103 6.887312393719806 -0.17040886087528717 -1.2428946652043693 0.8157454699454015
Ni 4.148032252455345 7.110544292617311 6.071901116820505 0.29948235333689716 -0.9092441506261953 -1.348140459118762
Ni 0.5350765609918493 7.45856378119996 11.477677107651871 1.031610663381275 0.04978221362944975 -0.797143281463182
P 0.3263855504098707 5.436050982322632 8.0076059466888 0.6603114852123919 0.6366285397731553 1.0526584851905096
P 8.457416190418764 1.7513853462296365 8.389076283805107 -0.6022940281573435 -0.29776845596958396 -1.731754450099256
P 1.717503488525939 3.164387661530969 10.251485055298158 0.5047481739903694 0.14339299440807562 0.8685775261447686
P 4.06516960528069 6.170272835014755 4.054361710071564 0.33089146377579787 -0.8539942290139552 -0.4170514447033334
P 6.925954407436186 4.12359630098345 10.666064155775274 0.9002123794412303 -0.013865959348814832 -2.5571837229913252
P 6.3971016188597005 7.809278211330011 10.089621603112397 -0.7481251996932664 -0.6929159015109745 0.8108765718888745
P 2.0657951934265077 8.328730463061015 5.690722958552097 0.6413639975756116 1.1559728664101445 0.3256960356177874
P 7.0926687544072715 3.717703623211143 1.5418041882880615 -2.2597322840415273 1.2128001598118339 0.637172070981451
Ni 5.24184278724169 3.0046148306668274 0.4678028349567093 1.0438717401368152 -0.3705787550630908 0.5401774613322567
Ni 1.12597742968715 0.8848282527441923 7.294440933575467 0.7218917199180341 -0.38289331076438576 -1.361914887195035
Ni 6.573897043471066 0.7427413160552719 9.109824336147947 1.6038487526935024 0.45782065620089535 0.8054985954064128
Ni 2.6057362600195764 1.470340145732416 9.093980439057313 0.6619726749648986 -0.4490411102360524 0.6784516464565283
Ni 6.379525518599373 1.8652988014016285 2.6775550911762434 0.8009094333738336 0.18847317457616572 -0.26300431301552124
Ni 4.070886147956996 6.982185224841064 10.443243303517827 0.9962939903578519 0.6083278930562491 -0.8364274237747853
Ni 8.11567582490279 7.151077302355505 0.19361022656924565 -0.943768152544994 -1.0428767232133975 0.44852611827284694
Ni 7.949179250986039 3.8184599563503654 8.238394570571746 -0.7953905604381334 0.00011312853909657937 1.0473738397528025
Ni 3.1207604596457585 8.523301613232515 12.44383633708856 -0.3008383531441593 -0.20500331102070501 0.38318975895888197
Ni 9.2766784208289 5.0148053042196725 10.178920351430392 -0.53210214052329 -0.9864957733205075 0.039738970460834785
Ni 8.744749587859923 2.2337889570918144 5.888603351761772 -0.044821270079748614 0.9103561527434516 0.3417101516578567
Ni 3.6984488556569795 2.669271548621957 11.193779080142855 -0.6183125150727867 0.38320312869532064 0.328426290064757
Ni 1.0625238059801452 3.277048921640532 12.431658286412574 -0.28942188377710154 0.4736036300667649 0.5599456450981195
Ni 3.110116801615111 8.484265793242878 7.705540202121845 -0.6598288891490184 0.003546579700677763 1.5127748794041174
Ni 5.5517338435611 8.168476716701882 3.8581817614611595 0.5616793399597746 -1.6504741658615254 -0.1413556522630727
Ni 3.0408286748273676 8.51380126373713 3.7581794675225737 0.36893993390808716 -0.9831047453610874 -0.32707003314717864
Ni 3.325966193970643 4.423896269034834 9.258698533030323 0.4898918257038272 -0.4803188373034114 -0.3338677727953024
Ni 7.364912293958433 6.150255861770416 11.45897856877399 -0.5484906091836425 0.12950055269669958 -0.5229477277175316
Ni 0.41561987419929264 8.829091277028606 0.4470517850417158 1.8269068643333894 1.6217035214867361 0.056215113738987056
Ni 4.540967433494691 0.4703208358974635 1.7414630614414754 0.6286056694686787 -2.1003737674431315 -0.949467002701984
Ni 5.879382477686117 5.5554995026256515 0.42268207287384746 0.04086768474863929 0.5714942691676674 0.4266560576726329
Ni 7.671618419358187 8.836041867012815 11.455432497539228 0.32293878458762443 0.6728669532798992 0.038455989983353124
Ni 0.21823763685141093 4.979172188204028 5.900157119681996 -0.03818113905541166 -2.164491680968963 -0.547323842569051
Ni 7.987307683249278 8.75876872823277 2.4122766598129126 -0.9564442053507656 0.9936059020027275 0.7508564825815004
P 8.477170021222447 1.6276630297352834 3.7418836913441944 -0.2786939558366362 -0.06425469621401193 -0.9645082133058228
P 1.714082636797419 3.1176481197442136 1.4292908323779014 0.9772074060400459 0.7402493964896154 0.9002064659039594
P 4.687374443148991 1.2132862767211559 8.328835720037278 -1.387557527463804 0.3747308295582514 -0.34140701859514105
P 8.597117604774985 1.520319061702412 12.691505094845688 -0.2839953134448916 0.027796196276661807 -1.2845555352782652
P 6.286971970506787 7.675946658813104 1.416023916430238 -0.5861025059991455 0.35981611722994805 0.23626509724846406
P 1.773688936544497 3.1929885226670307 5.915602673560741 0.37278990378179666 -0.5227250701837644 -0.878095750047849
P 7.187055225707181 3.901295381893229 6.242264069839437 -0.5714762714455384 1.530605479827635 -2.3150333706066775
P 2.270592603274513 8.492976715416297 10.293451737644062 0.4331290669914863 0.037640950281225494 -0.23313966424560492
