# total energy = -340865.3426326906 ev
CRYSTAL
PRIMVEC
9.30791194844081 0.00000000000000 0.00000000000000
0.00000000000000 9.30791194844081 0.00000000000000
0.00000000000000 0.00000000000000 13.62306999470089
PRIMCOORD
 96 1
Ni 3.984456379520861 4.254060042065531 8.306271503262947 -0.22310310594520932 0.8501357744998133 -1.3584984053143185
Ni 8.688209559805642 4.418391223223002 8.24534935956927 -0.5212454003144443 0.7452334799677681 0.09947289598635772
Ni 6.149886190293935 7.408194850001383 0.4249685323564029 0.16649487053286166 -0.8893337848555135 0.23760952709150046
Ni 3.7215730292274345 2.20442065290667 4.661215093000286 -3.3329662793905444 0.564923300818369 -2.1849661467732306
Ni 5.914563566559969 2.533613566188815 4.6656428665985095 1.6660244548912984 -0.6335846107405089 0.5447632809307262
Ni 8.097734257043387 8.937093810894265 13.004950010085986 -0.6419242409544558 0.008086376552560268 0.5507881469685676
Ni 8.500329362033705 9.015922515126642 8.982084532913111 -0.5340957739145511 1.399380745350977 -0.5183094576145719
Ni 3.8038642766141915 6.79932711370941 8.066478289536914 -0.6916156946423121 -0.9392579233794662 1.8054317251787488
Ni -0.11236231773314297 8.322399321874759 3.207810742366936 1.0054460891707653 -0.1080377548372333 -0.5330786455039463
Ni 0.34883633014505766 0.4358317961076849 11.37613527099232 -0.5011406591447692 0.8595573249240294 -1.0985297938013276
Ni 2.60964058899789 8.616333865617142 10.78628359831432 1.8672330747562615 0.45135227486773233 -0.7758144380784188
Ni 6.352165727474007 4.653583536193093 4.310312406456648 -0.10944132005297927 2.1366049818610233 -0.9173312985097039
Ni 8.664837393513578 2.210731417042879 7.488274537566955 -0.31009998095174335 -1.3800956718691197 -0.04847892143699393
Ni 2.779016658299646 0.24914114945168822 2.173914903083646 1.2665377585446058 0.5049579760083304 -0.06539652312793899
Ni 2.5539234295298288 5.014162727745586 4.319398789863383 -0.8158341730044659 0.20139091107909832 -0.1529395004459302
Ni 4.188308953779131 1.2743741153108348 14.102738147688124 0.7326170767553383 1.8510451521424893 -1.4941132984388719
Ni 1.6622906435418598 1.43177090224784 6.451463460337558 -0.2790009455540937 -0.5974148456881712 -0.21506249502891991
Ni 6.498830492214774 6.401339425013225 11.487817180379803 -1.021249374751609 1.0446281586868653 0.6958330751577694
Ni 5.183306099254708 2.178190957721071 11.785726202420358 0.028037622863506553 0.38357979530844905 -0.8350336287510522
Ni 7.9270364642794755 6.628489702269918 9.423131551949288 0.17611696700365798 0.10555535473501176 -0.8201140313267424
Ni 6.038721800797267 3.3229710183586993 7.75006886219086 1.5866858677609705 -0.36750037324808327 -1.7368120671278218
Ni 8.252394517939027 6.1782101656132316 1.8871353510691444 -0.3232943681548303 1.0094492967928872 -0.2948597669632212
Ni 1.0274910652388578 7.836907955236836 9.42324045451624 0.3865162522289537 -0.9124428600691511 0.30438801816863065
Ni 3.056252808442679 3.411200713413452 10.132389769939019 -0.5230243465917379 -1.6525076513517862 1.8434434285358319
P 6.529369750519938 4.550079558029905 13.101823962741472 -0.055376934108407855 0.5958924955063737 -0.3292878667341039
P 7.748138401303175 3.658995938832551 5.998197014814633 -1.1607528042972912 -1.1459195959392008 -0.0947880889161787
P 3.107558017762418 0.4658451574014976 8.24909579403066 0.37665710004668684 1.0183468563928333 0.9627125548579807
P 9.09638010390745 2.865515081777209 9.753531701379613 -0.6608904976443134 -0.4186581270688209 -0.13127152855419327
P 2.0765299460755378 7.117387764591989 0.8084526330333535 0.5030995826433529 -0.3374693741036317 -0.845136264402693
P 6.639324111494914 7.126220972800339 4.2847547424961725 -1.3071953841649682 -2.306175405995415 0.03259516032720192
P 0.1245845365934021 5.9055348922058055 3.599596569493864 0.7185364302925561 0.5063563990177538 1.8006412457686405
P 4.220542252014663 3.875628275862229 3.4869336062126393 1.6154739956372566 1.238505277887422 -1.2837176127580021
Ni 5.9448328954256775 0.2979518384344 1.4079035550530519 2.670591998111852 -1.3582310105855446 -0.7104276851424927
Ni 1.5897913192691022 1.301813839018126 9.574606645459367 -0.051544961956827354 -0.7348511082921797 0.36756182261363796
Ni 1.5080306228495481 5.449056286353374 2.0949968428988974 -0.2257387437958435 0.07698088553142872 -0.5325361427369151
Ni 3.0946572521388407 9.133863064344784 4.8076629833983215 0.8085070432154334 -0.26632900651338 1.0290668139134986
Ni 5.179471239632115 8.642554252891037 12.027972050880743 0.4006583480572906 0.13828472664723282 -0.5038426314569645
Ni 7.356824485299707 0.9031801812495922 3.3226256948344317 -1.1718784818968075 -1.1201293743489742 -2.127852175369058
Ni 7.310378005890148 4.58354150061054 10.271181902959425 -0.21284286166978186 -1.0357431974924098 -0.13853155255071625
Ni 7.169558609700322 7.803204006951864 7.2967614618564305 0.07103932323601313 -0.10557669489125043 0.31973210472486874
Ni 6.124187046075539 8.282068140455596 9.400449101914589 -0.569865989535625 -0.38699242053442384 0.6513069677209363
Ni 1.0692277413255245 6.821023855894516 5.3437577428134 -0.9853781147762967 0.4758482031265676 -0.4992380428054176
Ni 0.6258714293952568 2.94749916807769 4.287330241665035 0.5086999595492658 -1.68963335255949 -0.2482261262650822
Ni 4.5322642150259185 6.905120838152106 3.9947881615137693 -0.029827110663761532 0.13770777109784024 0.06089734970600481
Ni 0.3590015005184405 4.506006596105203 5.835959182999689 1.0266008688715094 1.206296040144729 1.0680997594462442
Ni 1.0888488192003445 7.818608600824172 12.162581208380779 -0.9779825936431737 -2.361167703070895 1.4936651551578597
Ni 6.5590899125950335 0.699426270855398 7.797858473259496 -0.48451204944915266 0.962937269274277 0.3702977334875623
Ni 4.137003744459394 1.6921411163808295 6.667048657300387 0.5486492462486938 0.7855594332803246 3.411294937199118
Ni 1.4722323944308775 5.163526786880897 13.353265097175544 0.6223794860533087 0.7747476873768011 0.857685304712297
Ni 8.153972659566946 1.1531385653490076 5.175853254352257 1.3474480610374278 1.7632597197963893 3.4059475568442763
Ni 1.5485293466794068 3.170721506594737 8.271287717118492 0.15269755963845313 1.7121477316119222 -0.6906371327791268
Ni 6.762653941590438 4.291459231297517 1.8432420318403546 -0.8111732771936868 0.4407809271097893 -0.8055852415829481
Ni 4.8354973625619175 4.927115137477409 10.636211207098233 -0.6183683080113866 0.7415169503481294 0.18502378257498459
Ni 0.18645887965453414 1.5466863801617532 13.451977362392833 0.8160632582961366 2.1308968757326525 -2.6436792328814085
Ni 4.9699873787921245 0.5586226981154713 3.4842361734004363 0.034600620793004924 -1.3489166751631543 1.3138208599012857
Ni 8.953550198789275 4.074119492978234 0.6042035417364361 -0.1640626069422852 -1.4444871507713122 0.5462396083659367
P 4.7671959064682605 2.1539438477287054 9.10230831287257 -0.03690972854215579 0.34395215361449794 0.7580825680162944
P 2.510073857486054 3.4240549394785025 6.309987856372507 -0.48295113271993606 0.8505422659096126 -0.4218311254801638
P 4.547854967132333 8.178573470204114 2.016990958061271 -0.5286715175751863 -1.7786444297825756 0.19509479365774143
P 6.118220674672426 5.351704837827405 8.461547017122308 -0.3979748876878565 0.9039525632099529 0.11756446338074591
P 2.2118483664475175 1.8067122015616455 0.4265108533259748 -0.216634210391414 0.2942409024322997 -0.5480568640803336
P 8.21384114765558 7.785379356036171 11.207849158151257 0.9305110304247717 -0.033469592512355255 -0.5249187354009734
P 5.847555910193351 0.7419885587103269 5.797542639018312 0.8484745847473065 -1.0151167794913099 -1.1547029985587856
P 8.18739737050076 8.480736207894003 1.3700585168503805 -1.482962166918059 -0.5473390120777025 1.3269769376672695
Ni 5.491584134934993 2.4025116298193456 2.1874839767676653 -0.39239765071039523 1.3879961576631192 0.3332103417169617
Ni 9.566764729847632 6.448269915831461 7.496094114190597 -0.923313484235068 1.2999273897486452 -0.589280646616811
Ni 2.7145872934754025 3.5582377946224333 1.8477517150615834 1.033410692704491 -0.7167703395310687 -0.2286453759196772
Ni 5.31378440553992 6.3506019983075115 6.285098500472475 0.9357074870240466 1.9571324681215712 0.9005823611861394
Ni 4.204309254000581 5.79892207153304 1.8177802393704448 -0.46124922226647014 0.04378280151290524 -0.3791983784113018
Ni 0.9741753469907699 2.923782609052528 11.508605470382472 0.7236873783658762 0.1049136073859548 0.35052337907411246
Ni 2.821069803384293 1.3122107763929711 11.82343534511213 -0.047526070605421376 0.8867670525696019 0.9961762338330651
Ni 0.7515887388431964 5.337463732918261 11.134488852045756 -1.8817451523295075 1.1564744886369114 -2.144648678101106
Ni 0.8345529482462485 1.969479653552622 2.0941107297045507 0.06794602902267009 -0.05571246307095566 1.065345593739875
Ni 6.954033914163577 2.1350394790551954 9.773585597148731 0.1322899425163786 1.3371718759224003 -1.1844131240287086
Ni 7.096156417992147 0.45849563031897494 11.085050809814106 -0.010064840435169763 -0.7424703154003343 0.8736387427177599
Ni 7.943502160086191 1.6953058063606392 1.307056985681734 -1.8532581006334083 1.1772608292546434 0.36020435380730226
Ni 2.0785404550038873 8.33210747378341 7.172437546790778 -1.7878764899038044 -0.4674854329841691 0.2619614735733037
Ni 7.557558909136694 5.882497810735132 6.010703124981904 1.1488007741417374 -0.6261065571959088 0.048688723454954855
Ni 8.305579925423242 5.90087162844144 12.952855489853636 0.14239952014655477 0.7839337247514435 -0.2737687506208769
Ni 1.0084191541546519 9.053368243917154 0.8025430398916441 -0.4144682573571894 -1.9373496290676888 0.32494861592880164
Ni 2.2641681381431358 7.434275618599696 3.2696050373874024 -0.16288298481188723 0.0499256811858495 -0.714899090650285
Ni 4.2553352259691595 4.023884693504608 -0.13997051464230037 0.4670388323650537 0.01397163168874368 -0.12709451435836822
Ni 4.322063644984618 4.553123245157546 5.8019015340699145 -0.47100218788817594 -2.5667741948932377 -0.2460985383991181
Ni 3.2837754021675853 8.656339270126619 13.241255549296033 -1.3674844108630126 -0.5608097928706277 1.1882443248493408
Ni 4.486878837550765 8.651247842423807 6.902346149672749 1.3529193685646441 0.2930466250138824 -0.30262038474524655
Ni 7.961941133174435 3.085656501519794 11.980018620566092 -0.9771701250442074 -0.48110868019455855 0.9321699061844333
Ni 3.936325168092638 6.430817581383982 12.809745416593131 -0.1683157257916843 -0.6223620025518121 -0.427575998383741
Ni 8.112515220831439 8.167431899892843 5.1640694381333185 0.9825974667073658 0.2725809009603628 1.2713030411437332
P 1.577439720436139 5.770849409829788 8.934077116710569 0.8407872434053778 -0.9888575886844646 0.33186874008740264
P 6.503419292685498 1.5127311182607361 13.3177219055376 0.16547337124688274 -0.27822884327475955 -1.4143260538068996
P 3.109391676368366 7.1275147725273795 5.781181191822696 1.8830541009489183 -1.7358502174351844 -0.7608120511323155
P 4.352090968145989 7.4337916071910195 10.381160464504836 0.644298140503271 -1.019290194142709 0.20692803884724362
P 0.05641152968127822 9.07632155418248 6.743896637921872 -1.1105674416921518 0.24127154932411998 0.8365924885977399
P 2.658572280832771 4.9566956808769245 11.648323740617558 2.892545049613018 -1.2730814732003946 0.12472447146429487
P 8.549549599131453 3.594547958184897 2.7614507673293605 0.27388419315281864 -0.5758831422639824 -0.5427267101166717
P 1.4375604233285508 0.5034081658794975 3.8076619045899633 -2.0783854360974976 1.3423752745002107 -0.14343336072770782
