# total energy = -340861.2495337452 ev
CRYSTAL
PRIMVEC
9.36395316420970 0.00000000000000 0.00000000000000
0.00000000000000 9.36395316420970 0.00000000000000
0.00000000000000 0.00000000000000 13.70509197871545
PRIMCOORD
 96 1
Ni 0.58728373226331 7.730046336419935 7.59134652583027 -2.902943619238523 2.0157045121285093 -0.18608384840838277
Ni 9.257822114112292 5.13283219631951 8.938282830925843 -0.4375158832052723 -0.2284337741295034 0.3179660139633814
Ni 2.563616276165148 3.140585614023579 12.08757598499218 -0.9259678911387794 -0.39608564108494365 -1.5570474760692474
Ni 9.358699981496557 2.3376547224800377 7.830239698828262 -0.26948632119543914 -1.2288034772186258 0.09783947414799278
Ni 0.6407275585242358 0.0812847317939154 11.360589562755852 0.2506097960059103 0.4444781734557184 -1.1381556357230658
Ni 0.3714034105494143 5.534948436835847 2.571966113197224 0.6720208032295201 0.48677462023108425 2.624305456340487
Ni 4.445714677449188 7.5219512053626145 3.2183532450108916 -3.2464232040919767 1.2310287670047186 -0.9314592532706539
Ni 1.4259427870858508 3.2214246216471154 2.4248143984860473 1.013819400836125 -0.13082338527318116 -0.27513040685509393
Ni 6.201961548273325 1.7488868036409915 1.0423231632449197 0.6177882671382005 -1.3286088168437376 -1.2395915689730652
Ni 8.813614904145266 2.5187910323919676 1.5282552120941082 -1.3028772164055884 -0.7911179012047085 -1.0528289493301028
Ni 4.432586415119963 2.965657605056211 13.421122773465386 -0.5017654372129616 -0.5157126434216732 1.352308988674155
Ni 5.2523911502564165 3.993323372421005 10.961730105148291 -0.4799506553307154 1.1124199215198582 -0.5946617084230662
Ni 0.5997405991510188 2.6245756112316636 10.016421242214143 -0.2172031955210066 1.8375214066244419 1.482958310263317
Ni 1.0034693124013727 1.5796988979602247 4.260145472111684 0.5582836840146643 0.3346779274014236 -0.5223872272283713
Ni 7.530687773660166 3.9877611842444294 2.7924263444012936 0.7132307018089266 0.3907439171570561 0.8212345180844308
Ni 5.425184177903483 7.360123366864993 5.304761867485296 0.09167756831165501 2.207706782903856 0.3917667019946156
Ni 5.954931099979972 5.989783733638585 3.3625440777331232 1.8914101862230972 -2.234431343382894 0.5581142483163356
Ni 3.183818985759692 7.298124632997806 0.17617903310943953 -0.3906261606322692 0.7892101426590343 0.35296566996701795
Ni 7.9395835162637765 7.152749260200932 9.02532358472673 1.0274490758044177 0.47698668760638496 -1.5121179625464087
Ni 2.6376289619356146 8.766046022096434 7.367158504873515 0.3899892983792187 -1.4440058402595195 -1.4873638955301802
Ni 6.894332244865969 0.30000139491973854 8.565257583689252 -0.7423417602422699 1.528660183175806 0.471276267485169
Ni 2.9456187452954827 8.400636477964236 11.6685840280923 0.3881507025085831 -0.17666152665321833 -1.0321161422627838
Ni 9.242914700682816 7.027468930883742 12.924093503727207 0.060645895816831046 -0.291792183781491 -1.1752440559349309
Ni 2.9948544110066555 2.804279236310233 9.573842423701507 0.7417249525938775 1.526156957137978 -0.45075989269937206
P 6.237357291215172 0.22185452382947735 5.205385978187769 0.1421786623850003 0.2849561346962641 0.6963467815693942
P 1.8250906544507146 4.451988526065865 4.126465676810675 0.6114114170775792 0.4648901614531671 0.8397256349100829
P 2.8084087396534483 0.9171542649703248 5.477692545243802 -2.054937232376887 0.591697997809052 0.369839305793905
P 9.135978355604536 6.261628657803868 10.905703700606052 0.0938061846188836 0.6307497123948751 -1.4193744148640846
P 1.4690637913840536 8.730669007060905 13.194344683064791 -0.11510520320697595 -0.47469146381430505 0.6344436163066944
P 8.104829197664513 4.125832673577111 -0.16514735989256374 -0.35751497990059716 -0.39569071963937014 0.1210609065697786
P 7.9476833357465 6.824589521736107 3.4571368597569205 1.164313525065356 -0.05222836117709714 0.27567393806338975
P 8.723271484065123 9.24033024961087 9.278265496649498 2.73704987262477 -0.3762009863458747 0.41050515894438333
Ni 7.913813917169606 5.792803614981256 1.2790382807380773 -1.22885232817869 0.06785886862550249 -0.7151083784476135
Ni 0.47641827243942214 4.688578166586688 12.178879210271143 -0.9993939694394143 0.8588153045516821 0.10745719974341493
Ni 5.267963404360198 7.907287241817631 12.172766421648804 0.491276878976812 0.5108614859769589 0.6407325346391998
Ni 8.453495993548026 0.6701238166769716 13.058581408185857 -1.246835395019672 -1.4820530248402284 1.3955608573842546
Ni 5.498073189294843 1.6858673988794486 10.736404363882691 -0.6671285081342252 -1.165707320089089 -0.9588700411834388
Ni 4.918472580598671 8.684429806360683 1.0550581395414573 0.48143803850951916 0.275112666243281 0.2226577908776746
Ni 1.63502113322489 7.22123721360746 9.66957292603415 0.07599306769686268 0.08353385615859807 0.6511745559081302
Ni 1.8152865954930126 5.992976841665879 7.376970991389061 1.708728421517728 -1.1659616021917403 0.4921168583796041
Ni 3.653795794820888 5.392503981377809 2.419455408093026 -1.663819733930496 -0.32822522979754437 -0.09520563606957151
Ni 3.7303554758506614 2.931432356259266 3.894164726836773 -0.4841731780524951 -0.0022147482631316696 0.029140369009382074
Ni 4.221073441159526 5.3976541556153785 5.032427208569786 -2.7361409876572553 0.5625362886434313 -0.6233354222086749
Ni 7.627220766778553 8.459311008459903 6.448958286335305 0.06700423393469106 -1.002279261407009 1.9066285458347487
Ni 0.21566401439591776 4.1596365444818915 6.484152704284229 -1.4129787957503859 0.12496152717576545 -1.2611068173370217
Ni 5.42173824314089 8.53976609400391 7.425048336094438 -0.8481642525957392 0.8954800069625674 -0.8665772078852881
Ni 6.199658015796158 5.478493163238915 6.260047086115276 -0.3818355589238327 -0.901441366752325 0.3676713516083087
Ni 4.300123933729653 0.3036177536298288 4.296066532825764 1.0709490559695813 0.2032385058107984 -1.1486351950981508
Ni 2.4025188260139467 5.543216807475436 11.686921457563997 0.833451371865597 1.6345402682400882 1.2589879712218057
Ni 3.768279486145498 0.8022838423802392 13.382802667951916 -0.8004114106914925 -1.1120378555900914 -0.6305831049100237
Ni 4.055322106288194 5.100236275372269 -0.0689467871113286 -0.18142243837697145 1.7981177080158388 -0.6845109652767308
Ni 5.735374490255767 7.25240044972134 9.676206350452139 0.08781885668719713 0.3520662980812001 1.8103353331279533
Ni 1.3010931996139854 1.2969449683644514 0.48511738492433654 -0.18599540245963453 -0.4873847430112574 0.07231459040401093
Ni 4.2695506266648025 6.649399322080281 7.552122798836933 -1.0281723271236871 -1.549226694473248 -0.7898279787486914
Ni 7.248860875427155 5.6246738360074815 11.909409921022354 -0.475627088254697 -0.3003534430879408 0.1721996342271228
Ni 5.550258500251169 4.142762700888979 1.6228339481881666 0.19305616596115785 -0.23376855607885547 -0.26215893429609044
P 8.097984147905123 6.041697489953294 7.113476840651168 1.1133419191134954 0.18949595941372527 -0.4399093231381133
P 5.295371695257231 2.1001942343154063 8.463250423553985 1.4517142646473706 0.6559015290701543 0.21375714595393508
P 1.5555586267157584 4.030011340898825 8.128051801499375 1.5631733864613273 -2.1622483934607404 1.6506762545700022
P 3.879476429911222 7.972076433726265 9.22692575066345 -2.2353564263003243 -0.12867754257477193 -0.1319922087703017
P 6.2737362492387385 0.5127813117426169 12.686173245462458 -0.30843262055164944 -0.26191596504734893 -0.45071104173930765
P 4.67130167300793 6.026190783521628 11.41353241752276 -0.24878071321697157 -0.5096355839896578 0.1804191939234377
P 1.8045367772662293 7.370433079293294 2.1645414476349263 1.7479981656516281 -0.5057028245941549 0.6527007627446695
P 7.876629659174348 0.1328716861433681 1.686521002809962 0.29847782333178274 2.7439908227189775 0.7700880771176029
Ni 0.1883680909367947 0.4920888480513749 6.189274328137899 0.6865243961623337 0.044452830996736345 0.4383232095979161
Ni 7.725944924936197 8.091532384178421 11.055691756729157 -0.12536956124746151 0.9275002686229058 1.8364294591118437
Ni 6.332251592530697 5.420333650167007 8.519441633671827 1.0005113708733093 -1.5234858380637182 1.1894290891860613
Ni 4.783519287668009 2.462700952968247 6.2845525515329514 -0.15050672263472145 -3.2871420219675773 -1.7609146166029803
Ni 0.08829084154764295 8.105634497636204 1.1312788454668672 0.9834305041316225 0.8759195683321366 1.7011621791346963
Ni 6.3916846032322585 2.781272003398032 12.596460019429928 3.577796749710516 0.48030546756697284 -0.08860792824739577
Ni 0.5086115434008167 6.190593709138033 5.38074285620983 0.9148877220652178 1.5017201642518523 -0.9842882241462275
Ni 0.9222847749062609 8.434234341899513 3.959757345926469 2.2118652851569203 -0.7335470447687754 -0.46517169724932783
Ni 7.975316361519356 1.452171219884823 10.665905969732881 -0.5276577315986912 0.1182118671567577 -0.046394013883507196
Ni 1.5105367399262344 5.59064523022688 0.5595748584698654 0.520926840632761 -0.6777263382547296 -0.3262295395237543
Ni 7.946990403212718 5.0499518469072635 4.860086459860309 -0.27982369856570516 -0.24131757207070698 -0.7583980423741842
Ni 3.7900038574748858 0.726882482356261 8.766928106484034 1.7265469377563876 -0.5547908403700573 1.3678037418756444
Ni 9.301008666082609 2.6232646577893726 12.40482109965462 0.008744578961849457 -0.9980341129774102 0.3820458751624259
Ni 2.674054739724976 3.760516768976505 6.185656096637178 -0.1340298080256208 1.9172554294209754 -1.501267650095466
Ni 2.423784363638533 1.8809840908580922 7.281968068216889 -0.598432488319408 -0.2673008835083461 0.17015663565516503
Ni 8.193009544564875 8.898480411627267 4.326985369762188 0.6052837069132866 0.39626536119591754 -0.5313133260734075
Ni 6.862326252967759 1.842807253827957 3.203716449827717 0.4776742005917128 -0.40781167127262025 2.2869754360281966
Ni 4.686077991093177 4.05428270748752 7.720613090007339 -1.0235219728358693 1.56189940484491 1.351925122972175
Ni 2.715668147564545 0.5027628182575685 2.2680693137632506 0.6567381660388367 -0.221082990191387 0.387012732249398
Ni 3.3065148640049373 5.441889470339529 9.704932149558674 1.1683149329152656 -0.3641060028545536 -1.9437866429422848
Ni 6.364257584428907 8.866230956946918 3.0965010589452926 -1.208653741743628 -0.7034556247000336 -1.1361059522828885
Ni 1.523009525534314 0.8059282929498071 9.09324595536244 -1.8631277943386364 -2.378734508310065 0.09874347401950091
Ni 7.24496547091292 7.932523095581726 0.4655794966576263 -2.0181619725300664 -0.3966667103993943 -1.5849439453691994
Ni 7.098363420252189 2.991408476244063 7.461462877140009 -0.40373698698261434 0.41040822835520285 0.6137927728255622
P 8.629163754814973 2.882824075409761 4.658100371844063 -0.10835425763638758 -0.44561717215616803 -0.32966196224407096
P 2.7674695364413435 7.1016501678110755 5.747723671682144 -0.009422321755164416 0.19834518227423906 -0.23906425726015604
P 4.3248915898357865 2.1686634598156145 1.9254694231315932 -0.48972547532929217 -0.5401023851199472 -0.0821716857037488
P 7.205149942079921 3.4352130362252415 9.946086717244617 -0.008062722403476438 0.008061436851895793 -0.29053697121815125
P 5.5354821821659215 3.8177398867324923 4.84594220861331 1.8246885165258317 -0.23587866044332279 -0.8002221774988219
P 5.3728303157902895 6.536226584197961 1.3452536027128619 -0.22827050907876173 -0.03920906609929376 -1.1661814315120302
P 2.3452676163984827 3.1421587581543275 0.4444441179819534 -0.4068246247690026 1.5035322777599267 0.7299477574532913
P 2.73118421794937 1.1265210208666678 10.904524778903307 -0.05205404038276197 0.12537907432915826 0.7014164827828179
