# total energy = -340891.16561936913 ev
CRYSTAL
PRIMVEC
9.12235109362656 0.00000000000000 0.00000000000000
0.00000000000000 9.12235109362656 0.00000000000000
0.00000000000000 0.00000000000000 13.35148292690006
PRIMCOORD
 96 1
Ni 6.43261665329833 1.9591343357157933 11.465279015226884 -1.1457208496648335 -0.9150347891660434 0.38570018408556156
Ni 4.879454302115927 0.36360687446504614 5.7975076330166395 -0.8157858362650336 -1.1108469206057836 0.8352318608047875
Ni 2.834816170902494 1.4834128557833897 4.828082694950088 -0.9781965094261929 0.434640104319374 0.48655221980763297
Ni 3.287047597126755 4.226558521942921 4.847642839866981 -0.05382270224741054 0.5650258878345044 -0.6918977446591053
Ni 5.119317398116667 4.563820959086124 2.328632424427332 -0.2932188889256886 0.3280079715804157 1.2377812552372038
Ni 7.319053740260525 5.982154963159266 2.610681832417706 0.32377053646030046 0.6338183240178697 1.8076253903959578
Ni 4.937280884817254 4.641807937397159 11.420577671079064 1.053325172240231 -0.19174850289332784 1.1076911485856213
Ni 5.579366679109037 8.083780420786201 12.535599891556805 0.26408520478452585 -0.4015296949186504 0.42976169318115015
Ni 1.646867140188245 6.449420023756738 0.48541945123225877 1.2809135676503036 0.6780466977086258 -0.7018175748759784
Ni 2.463217204766106 1.7965649193535358 0.23909681852055273 1.1845591626882694 -0.6790124040560048 0.6133523428540341
Ni 0.4172745773661626 9.262196594752874 4.583524324913005 0.7624860964006288 -0.2037828083500426 0.5431576270065033
Ni 8.849683884585021 2.1822396730128997 1.2779346372358926 -0.3827655269372698 0.7709766503701433 0.10545713859425064
Ni 7.132300971517575 0.5618474197651486 5.000290787330995 0.12801754039326987 -0.10498174161972887 -1.1682234016427233
Ni 0.8039126512863343 7.496602056890267 2.563017548679824 -1.0118625342200702 -0.2548292334038966 0.5018579969267679
Ni 7.714252228316512 3.9853726850537607 4.127664027478997 -0.3265879513044375 -0.9200116735553445 -1.6463719707676934
Ni 7.518814981464764 3.8464392800149203 12.52608071833566 1.2157541002338352 -0.41418003669280934 0.961683599372834
Ni 8.07661025293587 8.746947968134107 7.1170611720127885 -1.2436032612356194 -0.36155109764318377 -0.2789922038033454
Ni 7.0083647114481264 0.7206602520042942 0.324016783557097 -0.7174534816410225 -0.6588104751868331 0.30151455327557747
Ni 1.9140243102452046 6.662426918547081 9.05935473563126 0.3829113084865147 -0.02471035826248648 0.9461790759793317
Ni -0.05442029685487254 4.86764997998065 1.4168461486324424 0.6300169479939085 -0.46573682572417857 0.017493271688756966
Ni 6.625025279633145 1.745379408147171 7.056779764669574 -0.12031605798395409 0.986730515039133 -0.10582789167010806
Ni 3.374020091128088 4.108606524099703 0.5027336733441249 -0.0560086541551358 1.4184506174982345 -0.5375996733027515
Ni 6.0670566834939 5.584028200446847 4.954294981582713 0.12380684474603194 3.306203923695035 -0.42342726632269007
Ni 5.2931073061531055 2.93643003818599 8.982984237909385 0.27172343805607396 -1.0692775818044293 0.46475157899277375
P 0.15210607981731006 5.573555741550945 12.54752280425449 -0.10300764861249356 0.1251852131507973 -0.29199272982807134
P 4.004109993914548 6.243254892182358 13.034959207282817 0.33531401832352575 -0.5219611954345462 -1.2677389779415587
P 2.4408765672782455 8.4783129772225 1.4818410747139086 -0.5368877348373914 0.5994285336840903 -1.306619714167156
P 6.333976672426039 7.72841011699808 5.910073794856251 -0.21622000567213084 -0.3140129428529044 0.14970582399998086
P 4.716337544696393 1.226928836343334 12.948080673496314 0.3781180008629294 -1.2381918604120612 0.04112865171950981
P 4.035773674078029 6.196639678804257 8.331806196421134 -0.36666964981667177 0.3761248816923006 -0.10317014233228684
P 4.846166843482523 1.4386859690528946 3.9804776315315125 0.9521514915126826 -0.4957043186205463 -1.0531557365419024
P 0.004001975363791166 5.693313964883178 3.8673905834523925 1.493169960688996 -0.29402750086991297 -1.2382615373077321
Ni 1.5824998318524564 1.2611650194760173 2.5748866395068783 -0.300681772961637 -0.20858948571006655 0.1352235712234058
Ni 2.0821857277426434 6.34999552070235 4.779697745486791 -1.6557865792133741 0.976381310594325 0.10520157094001883
Ni 6.05378366285493 5.6802051465613905 9.460033019905687 -0.21406773521581843 0.22652370159098406 -0.39947435505151846
Ni 8.520129833998471 2.0260650246698297 10.307919051733663 0.9362366200546391 1.4975840305962917 -0.47005036549786794
Ni 2.253558212776108 5.272609383558078 6.963639649187823 0.8572037370901883 0.11278683948644447 0.9254554702787351
Ni 0.5706824166646967 9.132567987687743 9.244727292674778 0.8344281339565693 -0.7165258276204305 0.45345389459176744
Ni 1.5408654220955773 1.2045699541535637 11.434864184909092 0.12361529756051613 -0.04427696754050439 -0.7372026392434917
Ni 4.322188127000188 7.054149790889357 1.657319529912047 -0.2437128117757609 -0.40295177207715765 -0.4544288569105271
Ni 5.601953620072672 7.925489387021659 8.234046522415964 -0.2660320440982515 -0.4962231672384938 -0.7665589809184218
Ni 5.4099919889346335 3.4953382364735606 4.779951346843329 -0.177148750702282 -3.0623383883914936 -0.4056041220983401
Ni 0.6427900397854792 7.30100973007229 6.858309336125415 1.6743340031982585 -0.34642041264933243 0.32775394658808066
Ni 5.234815483553094 4.754660541056745 7.110572443778768 -0.6229405007631014 -0.10926597081737957 0.3843626962210606
Ni 8.303510488230097 7.150609529883494 9.506042509180398 -0.45632067461660125 0.19114866452579982 -0.17160853761034317
Ni 4.656084416641137 0.4084341070560418 10.52975364554279 -0.5608038793333567 -0.6369584123087482 -0.5356407498041679
Ni 8.281999984679107 7.137217918682113 5.088023173166849 -0.7623755389646935 0.8364454214969143 -0.43387442979794305
Ni 7.336596021146256 6.070030569905106 7.400433320891582 -0.3434865268319891 0.39569714739727335 -1.3581970720238157
Ni 2.285833090453548 5.539401659576853 2.6257428338437814 0.5812981426319667 -1.4541259594126572 -0.882074532189939
Ni 2.5792899983126727 5.297723215736142 11.664149002742857 -1.676968612607628 -0.6657897347181437 0.2171494594649357
Ni 0.9671881376124792 3.677356505071065 3.7770546786540913 0.5731703713185098 -0.7018656545050944 0.029013099402898417
Ni 3.6512483366389468 2.748208570939345 2.755492768176608 -0.2508255115611422 0.17258992768700598 -0.26148016306151095
Ni 1.032367335183229 3.4998811672489607 8.272044763082333 -0.2850258115919349 -0.29657957786780537 -0.06492138326373335
Ni 3.9205127697664226 2.75609940451509 6.841086337523095 -0.25540901716676656 -0.8706274666952619 0.2622926316604773
Ni 3.8917864866103287 6.972267568720701 6.102188681490327 1.737816597132936 0.15076768960559198 0.3200061843218618
Ni 0.7260114230742736 7.491192502774178 11.304206576656279 1.0414659589088 -0.49874361966750225 0.8653363934996517
P 0.10478388424022621 5.650302080132151 8.253352153741224 1.0154196554437092 -1.3498124475045463 -0.02536804645114341
P 8.749511348752355 1.4154330964695718 7.9894206469818165 -0.6689071973012028 2.2815887177949867 0.39689528147043257
P 2.0136586273715484 3.293925849746537 10.648715487636686 -1.8347520714094208 0.11657973086997342 -0.763886319182265
P 4.137989616524529 6.141613657845998 3.719603024576999 -0.06187462601760956 -0.2894329395206951 0.7103718922038927
P 6.8253521065965685 3.8314421350455268 10.490647039235437 -0.2966816506633084 0.7954108721531075 -0.4627224643778869
P 6.357703907259003 7.904133963436896 10.306943872416614 -1.0443257969550983 -1.2770576842393233 0.7707033421040985
P 2.2773675487676623 8.46071596223104 5.712578545629141 -0.2173525766146773 0.27477842283231385 0.39855055768566844
P 7.056950352632424 3.9031073241450107 1.5777443502998136 0.3495021368984497 -0.6470898443157952 0.13376704128253739
Ni 5.471494879070672 3.207245270975751 0.2018593819237997 0.15128910932670073 -1.0437367572208476 0.15631998688238885
Ni 1.5295901963156686 0.9444552390335698 7.0684353924842895 -0.1978697852997173 1.1247447616337984 -0.9678329068036816
Ni 7.012761684608253 0.6115414265904333 9.22148171797222 -0.9765869988472277 -0.1231419574685234 -0.04947522391199222
Ni 2.7521403042007857 1.8435085373660027 9.113962040680702 0.6587405411808461 -0.9547367357413559 0.2680472747560674
Ni 6.524524339166112 1.7964919405458988 2.4485685336031797 -0.29795023296308687 1.5549499701102705 0.8150078204484286
Ni 4.090297965733783 6.762891369610295 10.686112565375144 0.34367473158339523 1.8463660014992653 -0.7315058459690305
Ni 8.278524368965398 7.299504542164778 0.2856883137861716 0.1040044653081241 0.13811451961795568 0.12721715597916156
Ni 7.591994480822714 3.7004999094429323 8.488632180622364 0.8315335860175936 0.009184751823061601 -0.8177025936717724
Ni 3.1531953415696368 8.505825987701629 12.624494464904275 -0.3069334102983036 0.007256424452097181 0.17782983592970664
Ni 0.38453537202513205 4.83442637780393 10.409149780277065 -0.4071341855896214 -0.1707150792617963 0.11736674554764302
Ni 8.754428295916894 2.4092858659224015 5.896923013720073 0.690157879149863 -0.7253210573145573 0.0717620603346506
Ni 3.7499612963188738 2.5783686408662563 11.536295605173494 0.9068409405013416 -0.17190961379052974 0.186452287491395
Ni 0.7994390503781893 3.397336820168093 12.75491215532698 0.9017306158579695 0.5311330917418015 -0.7477958413783057
Ni 3.121933044848159 8.588219061523743 7.999033780417794 0.4070619375907893 -0.5323826478781863 0.3427416782461646
Ni 5.538279610409434 7.983717353164989 3.5345515742870837 0.630107965045818 -0.13620598974133316 1.4779487728638676
Ni 2.913450836131306 8.50233212728601 3.5360065892643457 0.8225789479274672 -0.45763065167727635 1.2644114562302224
Ni 3.445867727246664 4.300394830569604 9.349696360639383 -0.23520991651107234 0.9260622506247987 -0.2213187603512769
Ni 7.326771249168132 6.0000530157322265 11.636872261153451 -0.23012118913425528 1.1792578050800142 -0.8433249222255671
Ni 0.720033546493712 9.187302093415454 0.1007636641745258 0.2498302375274085 -1.1869747141082978 0.9342632983783522
Ni 4.539245345614382 0.3711218671814609 1.8931468978504644 -0.1608836949936713 0.8932207786147456 -1.1682604255282463
Ni 6.30239509342115 5.6687383514114345 0.5580443116521682 -1.1913234779952966 0.9409695067539343 -2.1340783587844276
Ni 7.888708067972637 8.853962267182737 11.444370586838899 0.3060080702705569 -0.289914507142804 0.3640322121938247
Ni 9.145248055514662 4.760653925633929 5.960449241297845 0.3085935716095459 1.0498264150583534 0.8601520210852347
Ni 8.068664685254397 9.040140327815546 2.650269186620369 -0.25991873211166205 -0.5863189928853257 -0.7942471908623095
P 8.519637227046921 1.8969381469072037 3.54358999961292 0.49536930387863076 -0.5716847879119187 0.7766731865342882
P 1.8193616743891277 3.360199729431841 1.68314125652419 -1.4282961428337466 0.036524834398911285 0.16242147179443642
P 4.835630528129939 0.8751153371924185 8.008820238521908 -0.2698485896308643 1.5560552873593072 1.0477217100105245
P 8.631185334519998 1.5009642590200756 12.43788126813093 -0.29196599035519394 1.3067305287134074 0.2200182963722985
P 6.543635664416039 7.725463597639737 1.5293192624923164 -0.557963324560768 1.148733668349228 -0.4129780459649081
P 1.895889076547423 3.28057985029993 6.124979050880251 -1.1683990079886395 -1.0958807862142546 0.10633028522782333
P 7.035211790307568 3.8715622345439398 6.19397960126589 -0.1457308985126329 0.25794926709011706 0.8761013453256395
P 2.469365669309519 8.577472932099203 10.29921359221767 0.3776063513338335 0.0031701701978655078 0.17172912234860746
