# total energy = -340889.3675601041 ev
CRYSTAL
PRIMVEC
9.07311750454972 0.00000000000000 0.00000000000000

0.00000000000000 9.07311750454972 0.00000000000000

0.00000000000000 0.00000000000000 13.27942459267873

PRIMCOORD
 96 1
Ni 6.3534685814315495 1.9813147853406636 11.463118020213424 0.467587248669356 0.33194690162350576 0.009353159080125828
Ni 4.870177208283607 0.12893081238733856 5.9251194521120345 -0.6030090519464969 -0.8261440395709062 -0.3445903014191291
Ni 2.7786694125388522 1.3758293710708678 4.880122252227941 0.3580281720915898 -0.08689737331419227 0.5283419021499095
Ni 3.267528976192411 4.4314919836613065 4.855926970149341 0.12840166320556598 -0.8622325577633473 0.028935709197743714
Ni 5.357693950567071 4.725705960472626 2.495124514437632 -1.1719466161305818 -0.32845431508921497 0.5334005476197394
Ni 7.5102093874775 6.195124537168708 2.501737002373614 -0.5201051160624139 -1.0734448258082414 -1.1931451045850678
Ni 4.982057818517683 4.570101997654168 11.919292585869476 0.49490007755169607 -1.0919313146482033 -1.2815401454907092
Ni 5.540090828965874 8.064068763937557 12.51105037356526 -0.7632353158618275 0.322761892690128 -0.877798016301772
Ni 1.9143461060658507 6.681588797837772 0.4162619223651849 -1.1717242157071304 -1.9662372586363166 1.3792716333059278
Ni 2.500061197596205 1.348836846908482 0.15376484192846987 1.8119103909245569 1.1413859697349051 1.4877001958236764
Ni 0.47223851995168514 8.976779005320811 4.999358438710234 0.19255248685186194 0.1593250922572998 -0.412634032361928
Ni 8.721007826787147 2.3333789584744613 1.5534537897354135 0.1254567216446291 0.41587902166178703 -0.8947593267464591
Ni 6.987071586417054 1.0117796098972338 4.932243682245836 -0.6347518915757325 -0.93817780294141 1.1140893388024813
Ni 1.0705643373083586 7.396931517169136 2.6482360919157855 0.5012221631149819 0.12949181094595116 -0.004406870818444024
Ni 7.538835072765678 3.7168116018976245 3.539949325091782 1.395901271442809 1.2577674685511435 0.2918783157373941
Ni 7.674333007502171 3.8867147976841236 12.702274487848964 0.5588930354638891 -0.23553850349508468 -1.3152077129464832
Ni 7.901532939451851 8.98952673521935 6.978590036303777 0.05287987871816699 0.5572285032772726 0.05505760309577614
Ni 6.998530933649691 0.6365336218945633 0.6495698769253249 -0.7842970216281332 -0.14619781084672243 -0.7845757292108165
Ni 1.8932964737778726 6.365998556513315 9.296580080414602 0.06586292124139624 -0.0719489795344761 -0.9733607786004463
Ni 0.3055744270646728 4.849481427572885 1.3471047888034067 0.01509109000516756 -0.6119729460080041 -0.5701045879089923
Ni 6.110218304862285 2.2017552448530404 7.069673246912637 1.5499142074585759 0.39553028280210595 -1.0422468029388825
Ni 3.356037236092939 4.4847330363621065 0.41203294236112176 -0.0805223230257839 0.7262857352206716 -0.47859002753776286
Ni 6.1211241919356265 5.535318369231617 4.814588032808614 0.7328813861603185 1.3802813055173648 -0.7818444463225825
Ni 5.292893746342615 2.9397081726592496 9.253686918069164 0.6295891164278705 -0.17794964933702256 1.0162537213092304
P -0.03020712964498503 5.688409078539829 12.59791095535221 1.103503335756519 0.18946459195515755 -0.010590116811020471
P 3.9602796332836605 6.332555045904054 12.41396438850738 -0.1905735087486202 0.3125420147343327 1.5299431636532876
P 2.4565465267112296 8.593385357923916 1.340438769474968 0.7775913274731835 0.03728408116243902 1.2728032798383433
P 6.649996203171074 7.825590947102551 5.680738665119029 -0.2545356134228778 -1.0401318134784086 0.2583498449626454
P 4.857647233201841 1.2402407051607196 12.686431917617051 -1.4489750113393367 -2.0766730813920815 -0.2888148463207219
P 3.925647544299517 5.837280788273081 8.282788960397433 0.9213447905444714 0.27805786491453405 0.7111306247467882
P 4.883850396153428 1.0412218757483065 3.9124770071317463 -0.4741098802792222 -0.27272616828897545 -0.27125369750850703
P 0.3549575902616586 5.432311267781007 3.3833718167800044 0.6633024495199157 -0.31253918652085527 1.665249781508803
Ni 1.532667277851035 1.177491025460868 2.7111808436389957 0.015031183301509597 -1.1450950431553764 -0.7603860193384904
Ni 1.818189208226199 6.487850522732085 4.891794817718666 0.2721435563126281 0.30212287628353773 -0.5330009981884756
Ni 5.869508501155365 5.565967359692302 9.121769235445099 -0.18465122972691425 -0.4844932803960753 1.8674367061266357
Ni 8.332923377712284 2.3464896130676203 10.236670268071748 0.9898736886538048 0.6739748416320973 0.029223415641491602
Ni 2.472215800401462 5.189333184732709 6.986464594865302 -2.04417356610248 -0.0055152733912743725 -0.09710362442323277
Ni 0.31026795067785 0.21232999989934945 9.09256831451595 0.9356365245767951 0.7027555133092155 0.24002430718058018
Ni 1.4214943707714685 1.4986884533172085 11.376203907034013 -1.1404814556427647 -2.4647510216812005 -1.137932463968666
Ni 4.17968575741637 6.865609764245001 1.6306469649694169 -0.12236831252729247 0.7684957929298184 -0.15055968735984393
Ni 5.832589986595114 7.701407189720846 7.926687250035985 -0.3530263480016243 0.8853969116949526 -0.3544317129895831
Ni 5.2944361762947505 3.151610828730684 4.427067931633885 0.6778399810144584 -0.28081460172406475 1.3660703041243054
Ni 0.6006222233618836 7.516161352469274 7.299911765868026 1.550330211950072 -0.33263929970484 -1.1967094248975583
Ni 5.043954625185178 4.498025153302575 6.694954407028901 0.7102680196361767 0.7846970852800292 0.341902727284637
Ni 8.074938358541436 7.369703091955247 8.99852273108725 -0.36501565915301654 -1.1096415874437728 0.8641480296185053
Ni 4.587540529230675 0.5590736970100139 10.317329374139376 0.09917644779186145 -0.7266955690645808 0.06295551778661417
Ni 8.326635707377987 6.984948476953524 4.461395163874547 -0.13061178348300734 0.5431586554477678 1.7185338376439243
Ni 7.108506189237009 5.825277053998514 7.2194522683824385 1.4078913539251494 0.3874590757581972 -2.153299668907885
Ni 2.6582782182159295 5.156406841813281 2.577602780537044 -0.9941851715449652 0.25440423005133606 0.7017062461090947
Ni 2.100771448574939 5.369162370917073 11.654965457660138 -0.022307919468580937 -0.16992035127464286 0.033661653918503315
Ni 1.3162734286836748 3.1467476378227714 3.9611860377084747 -0.8428155866893162 1.5233066321733766 -0.05956500404782645
Ni 3.6951177782766957 2.583297976307373 2.8399646715250126 -0.3805980869723058 0.5213765265756698 -0.4631958044698796
Ni 1.2047285237921221 3.4825164921681178 8.33379530429111 -0.9367166450148513 0.03109363608101097 -0.30806572413053396
Ni 3.6539621179067527 3.072520464655552 7.508996311685732 -0.6411752786035733 -1.8119391872799635 1.0557600069339688
Ni 4.179177662843901 6.658116643213203 6.039535091338034 0.2023836140096708 0.7283557303758231 -0.5984684837636661
Ni 0.5875024956513594 7.252079198428805 11.109513231750961 0.06101767733395299 1.2302191266192297 0.6838879869807512
P 0.15457870055615594 5.509587008383036 8.004982809029897 -0.15790070110594742 0.3185920775831545 0.1687947223106319
P 8.358373471922533 1.8805578169966997 7.880435219641836 0.43972857458587494 -1.0160477759460114 1.1466235639847606
P 1.3980857279684584 3.525296240546487 10.535683016657686 1.3449425210067545 -1.6769629561806734 0.36334007122280654
P 4.197904577086309 6.147263843065654 3.9203914874096784 -0.19895710482662507 0.7588888659676737 -1.452951993709214
P 6.749655324313811 4.107509108773755 10.701037858708855 0.15563941587559646 -0.22566752423827585 -1.7821627273484792
P 6.239818713311198 7.756417500307919 10.157816712359855 -0.16714587385329924 0.9618116403102661 -0.007209887484877905
P 2.4438986011037116 8.330364758615211 5.842163032727461 -0.010720214630981537 0.8929693247255718 0.3167833065091899
P 6.926617405410676 3.858070966161215 1.327367129286481 -0.30027013934551516 -0.4562486837280852 1.9002154432195535
Ni 4.939768018477053 2.833843039238505 0.6838880360486216 1.1139381579365975 1.044403187160253 0.689638002090651
Ni 1.6189798433491107 1.0111444916816483 7.132060001917868 0.12100434230023031 -0.5180454053199078 -0.25968244773113985
Ni 6.795238665958123 0.7465941647851188 9.061985557812031 -0.6319866701257696 -0.32350571283468804 0.397052118763271
Ni 2.5804762368067005 1.6636468001395053 9.301413330035206 0.7554376741942797 -0.7123917508473989 -0.16959330695252728
Ni 6.601328001622491 1.6809310887207978 2.726319339963345 -0.8366305409245268 0.43098039607959976 -1.0684836251482244
Ni 4.069211480373946 7.04607406864495 10.34117897044635 0.15792101282092158 0.26994320622719964 -0.3487547172094639
Ni 7.983599286022868 7.444383920990742 0.01818524913568723 0.5835576280901047 0.1978060219413174 0.6757962111115523
Ni 7.665849642765421 3.834743981414495 8.410124718751916 -0.22223201619416566 0.27216566779981516 0.15554197106578377
Ni 2.689716569887414 8.162702622817992 12.328364970034233 1.552921626826332 1.7448261956815498 -2.2893143685740185
Ni 0.007977084787754435 5.0776794024327705 10.372744345760951 -1.694108100501392 -0.7062424434165514 -0.8480976610238621
Ni 9.024322140316073 2.2321138955580295 5.855508681060386 -0.5297799201480167 0.9670795735774248 -0.24061360402514687
Ni 3.5539582183041256 2.578507370338385 11.474312432418985 0.40323999274153777 -0.3949792953946423 0.871019559927358
Ni 0.9831902170785188 3.2221361700127757 12.761991931725264 -0.017351089683937858 1.0877067350438945 1.0517665695038596
Ni 3.4486556181600423 7.992581672214722 7.865721345210192 -1.2895961830259661 1.4027481191613131 0.9010667570217256
Ni 5.94378103990941 7.933697140512576 3.4604851485811916 -0.9036021218490696 0.3205350602421383 0.8410536096928871
Ni 3.314827137018803 8.410679993534686 3.5939298368578703 0.25919650923365684 -0.7710841224822849 0.06493732410333332
Ni 3.3557650425719743 4.206397014940424 9.90085967738652 0.2950402584051435 1.2583709064630972 -1.6105356777953748
Ni 7.141151265518106 6.286617852682489 11.501627959559585 -0.46319014804292485 -1.2149208056992626 -1.352403091049858
Ni 0.6268771030824535 -0.09971809640561319 0.1612002616095035 -0.5021215350007997 -0.3200272673677843 0.329975893940064
Ni 4.722158371582714 0.5867085978818773 1.5937429673969505 -1.0681483532959928 -1.6131887991475056 -0.008482583549714422
Ni 6.081619838926206 5.717479346578917 0.4122144047084319 -0.18416349145721833 0.2385721481150859 -0.12749766333405785
Ni 8.070574189088626 8.987086066648029 11.133615060720697 -0.8046969254407239 0.036008813994441204 0.2889215471019153
Ni 9.190523504217444 4.991257959526309 5.774451265140413 -0.5980751049799894 -1.0217844213194724 0.05941922249858154
Ni 8.178607797559726 8.570793295683801 2.590165418841326 -0.2765568548889753 1.6567222036537663 -0.2618858831403619
P 8.541958928696218 1.6857942796287098 3.6892765053167818 1.887362241405969 -0.8819331215160682 -0.5358220125770384
P 2.0317250254234245 3.26724770955408 1.6179917808680067 -1.1001177071137378 -1.3717799529145729 -0.49555133798244977
P 4.61435159104575 1.0272855674748866 7.895825948628946 -1.103075761300797 -0.5334054327157459 2.268130535407552
P 8.432065331165187 1.42938798287946 12.625001469182143 0.9728876956187696 1.9718450917413977 -1.0509792977158736
P 6.27710015256607 7.703466787362816 1.2850274271003392 0.10940892415314706 0.4025599359553776 1.3056910317052999
P 2.0254736475585897 3.0461902780608487 6.223229425520104 -0.9083928583694936 0.1680701854397815 -1.5442451820982566
P 7.0047187996929665 3.852418414042504 5.875601099466303 0.6883269965887113 0.3664076544045367 0.03760804016076104
P 2.258298912274885 8.52080949211722 10.06974759133982 -0.08422625423993237 0.6678561303288691 0.1120029101325684
