# total energy = -340860.9040339336 ev
CRYSTAL
PRIMVEC
9.32983334608956 0.00000000000000 0.00000000000000

0.00000000000000 9.32983334608956 0.00000000000000

0.00000000000000 0.00000000000000 13.65515417600545

PRIMCOORD
 96 1
Ni 4.4302154111585805 5.229352961232663 1.805921738273163 0.4656694628213529 0.26289272713832146 1.3681603538841145
Ni 7.333426319514318 3.535988199068073 12.40649990637432 0.4278863305353083 -0.9420542551776808 -0.8997845478751922
Ni 1.3439718311546631 1.4556965861239244 11.040301613109989 -0.7635515615506657 1.2105144491014508 -0.7298827085433107
Ni 3.829710014178076 4.695882417233714 7.190913114323882 -1.181204387283424 0.7190496224835488 -0.9863142534373208
Ni 4.477993488001803 3.057684959965429 0.5084171423689725 -0.9617630464605179 -1.0109929871309233 0.5704596572555659
Ni 8.151335494389915 7.873651662895123 10.956868644943965 1.0571612581568697 -1.6071389934089997 -0.9258156818316313
Ni 7.68742818822402 6.643867662727416 7.018830868137698 -0.4484034766520536 0.284720107426058 0.14510560622380816
Ni 8.621484459100648 1.9712818394943903 6.876817742017521 -0.25958063204595294 -0.6368779367797999 0.37589502506968164
Ni 4.727463903293919 6.620869623395539 6.0905674908193514 1.3859341329277681 2.5900125965958876 -0.043071120157861305
Ni 1.2836824477215631 6.796447758156836 7.7700970430345535 0.0692025271375905 0.4097975913543975 -0.20233707704245155
Ni 3.0282306759205055 7.276532995438948 1.7312410868200143 0.5302272920980805 0.013517574870460588 -1.9249772235452653
Ni 5.9266367200750585 3.2235227486567544 2.865984873088317 -3.08200938445786 -0.2954637190958073 2.337201936283917
Ni 1.3815617299246965 0.6811440800431209 13.27117113923584 -0.04400648748793712 2.001006543796702 -0.2944298785146542
Ni 7.6268962291225115 5.565852062483297 9.807773708939235 0.9397577458340203 -1.6392150480079382 0.680868226317821
Ni 7.115294814613997 0.4758989410353721 4.5916000703679165 0.812017370361537 2.383062446261457 0.7898945703205688
Ni 8.93901600904836 6.205803995080507 4.970107679486994 -0.48130305559355174 -1.0451056125439162 0.16335812467609287
Ni 4.1065821501670365 3.200431410990874 11.596298106870757 -3.136147818173476 -1.245771215421216 0.974578195947315
Ni 9.230498664142278 3.9746583058860048 10.907614588456807 0.7537394605562503 0.11632442032605773 -0.5421968057551306
Ni 7.742184980450709 2.3104586029309275 9.363844375033523 -1.5824103803140683 0.012521272395462307 -0.07576681061866951
Ni 4.010764761145382 1.358367764091412 9.283551828790062 -1.5482558459195463 -1.9570905591400423 1.3699981784238018
Ni 0.47439497189123475 2.984175202604025 2.619836811470068 -1.460158281649666 -1.2054468047705562 -1.1104095759580488
Ni 4.917792504661179 2.929091866208324 8.226492900329822 1.8854786512300106 1.7942034605630972 -0.6558166826658318
Ni 9.228595378128604 4.769205577927111 7.961979061662972 -4.063668655621672 -0.12330676518116183 -1.3122740842394562
Ni 3.128871588810144 0.18208849250806539 11.558474029282374 2.3904366272383415 1.1561070779951637 -3.598364289449222
P 6.224603609382224 9.002514855171182 1.1002924434541483 0.30484361764881046 0.18385521618818015 -0.3016917022833901
P 3.0313468402762243 8.574182203760843 13.222750236871333 0.7809273338249518 -1.0708284712313172 3.2074789616182953
P 3.5301383935260495 4.962025244812266 13.412788680419842 -0.313282492444783 -0.5088038321169818 0.3832800046798432
P 4.405976503984457 8.269208609570011 9.828529789305007 -1.2483916837631985 0.7456266016411287 0.48305449106701964
P 0.7293336025392988 6.076520493651776 11.448180470756727 -0.2864951970486099 0.3515903868860461 -0.44473528377184696
P 8.915840702881876 2.146803995255285 13.242932532482984 0.04088593958108443 0.7233955581570702 -1.2418924491921
P 3.9554295192478715 4.707936561986974 9.321664198230515 -0.6232426053845523 0.8836015103574266 0.37754053109290464
P 7.513818648310199 0.1340407834795727 7.764129681591686 0.41771530353957737 0.7728304157494302 0.32613852247184477
Ni 0.6752802797509971 2.5336748670344416 8.949683740558326 -0.27410093714931505 -0.4163127667650959 0.09412577274183144
Ni 9.097305962518798 0.17640848993392874 9.251763220428368 -0.37827895192082595 -0.5355119375357874 -0.6406268622992709
Ni 1.0593932527770082 8.440047188963929 11.401138517768793 0.5071153886709653 -1.2378643018693134 -1.114474490056042
Ni 0.8967220095417635 2.3640305063157707 4.7635321062363545 -0.1460124343087937 0.22243590467485563 1.2641237497864746
Ni 9.202341226940003 4.705044313632864 13.156740732580475 -0.443771634306997 2.1579014293459546 1.50502634580695
Ni 5.8844285537718495 4.738575734873742 -0.0018948891636122766 -0.30829506653252065 1.8261162501112937 -1.2441887014254445
Ni 6.02367631727216 1.6089484295581697 6.556331433831917 0.4973750214547498 0.43533404506260515 0.3578433097742934
Ni 7.511579488294113 2.896110905138066 4.673709135174429 -0.2178608837096635 0.4282884510697333 0.3720085455310819
Ni 6.137276368754893 0.28427535879214305 9.841720307766431 0.5746202163911588 2.4522863135552866 0.30438904660989513
Ni 4.147549448627999 0.48270505450093176 1.0322835558655943 0.3787661759698896 0.25749958114720817 -0.21877156844939097
Ni 8.166160599663081 0.9010939694731703 11.192515046086774 0.08647905482985106 1.0316793118356813 2.4394891617906183
Ni 2.2721036578220644 2.277636249028476 1.6205258198246717 1.2349283591694409 -1.0053764122750943 -0.8575986585357618
Ni 2.0027793570539916 9.093350113157046 8.908677256797082 1.013601114177732 -0.8286747764125599 1.2827202818417394
Ni 2.8893094565892063 2.8639602992404396 6.120240092965843 0.596276875428986 -1.0542145168237198 0.291684197448717
Ni 8.980767013514953 5.00567020545913 2.1798950483596675 0.3474051451601049 0.9063264627587682 -0.6232019819546041
Ni 5.139674602588442 0.5980637795796319 3.4570755351845226 -1.2231527066907517 -0.17684690319114704 -0.37413073408040726
Ni 6.737315274065381 7.599559817259469 4.768311779887357 -1.4653223423491086 -0.8845674738151218 1.3071838142007424
Ni 5.575200555550453 5.882282692089767 8.140752664363891 1.0493705584678572 -1.0032958755969819 0.6559215836748122
Ni 6.888150690648933 6.918398010532888 0.6567736222180512 2.251473386466845 -0.3657209127501572 0.4758566877669998
Ni 6.265319002341378 5.183860693572527 5.127619524851842 0.8170068531563285 -1.1168329629858895 0.10000228612726647
Ni 5.548041410522018 4.53637025558783 10.69216354469241 2.8323213289352704 0.6588130462899945 -0.804749118834898
Ni 6.237516098808317 1.4339674041344956 13.170656179097106 0.19134741080016726 1.1817782575090228 1.3469862909096608
Ni 0.9178858036271308 6.805656303722987 2.8693025618454833 0.0010436107731659448 -0.11809076819786114 0.41423994339646725
Ni 8.807325410602337 8.364550177088248 13.010398563762534 -1.3075607379241867 0.2924305886964383 1.4341140350671044
P 2.707638940617477 0.26426659808173986 2.631375949419628 2.653210312300295 1.3347691800181787 -0.6342494980180173
P 1.8358686375216253 4.193685474792759 3.599526230491176 1.080285502879159 1.455825972822899 0.6821267813152704
P 1.9235410819847694 1.4800847706324547 7.667696523565608 0.6929027888848518 1.0504403944932683 -0.9489065022128239
P 2.0319070969299027 3.4388739632037684 10.517581836138271 0.2265139313989712 -1.043919562655615 1.5712679905440037
P 8.984610904875899 3.879354057701369 5.952199530608694 -0.4675309415101238 0.8001149624969962 -0.6302702016552952
P 5.946266689549407 2.2907166754557746 11.133306990344776 1.1602504107395761 -1.4108807755707766 -0.6727193719584414
P 5.309384272140916 9.074634467355933 5.8891671761558895 0.1525119259902083 0.17844664357809914 -5.542152989274037
P 2.5424915595977775 7.057188612196581 6.001590735646838 -0.21502984201877162 0.224725986260613 -0.48891197828906113
Ni 2.8860253552322814 7.810861884110729 3.8187595887160786 1.023795023991598 -0.4205514874367918 3.093202939180834
Ni 8.514489929665366 0.7216896700343873 1.149261940022596 -0.46837452045734174 0.9452586210475915 0.07658416431364229
Ni 7.340209108396376 3.6883443784958843 1.4545742071658616 1.6095568588218732 1.9842439796263824 -4.444172897328591
Ni 6.3973641344566134 7.368170619097243 9.732588313499129 -1.9716584296518884 -0.16393328045327252 0.14744556721089444
Ni 1.9557383370493975 4.978072558260878 1.3370145743880175 0.04295799161876473 -0.38316070549315945 0.2780254690147019
Ni 1.9530700046968956 6.833851060258863 13.167596926725128 -0.6702282301054715 -2.332329438682964 -0.3093042245233254
Ni 1.5452723166007412 4.874539397017129 6.119844508029668 -0.08588770110275531 0.4434929267243137 -0.5597340433079457
Ni 1.5879189850737676 3.2847077960962885 13.059761779300475 1.3528157531072444 -1.1712886708316086 -0.7008441552191156
Ni 7.094675882799211 6.01054924167786 3.0182804085990256 0.8145298523707456 -0.6944973870654814 -1.2180567802250828
Ni 2.7988380621059554 0.8781957593586769 4.866860944128637 -0.40416430432802003 -0.6072829967315024 -1.8121163362877757
Ni 3.4913169567471685 0.16955759326804742 6.8725026940698575 -0.18451033327367578 0.017629540156305124 1.1814653542542946
Ni 1.7816809651323584 4.522291536986693 8.753022048278906 3.8687116730933755 1.273805752960929 0.7410376967188657
Ni 4.148099908798621 6.105247050691472 11.684305492352973 0.1958131598810047 -0.05313236104860527 0.9781998518603023
Ni 5.576823946562116 8.456756920583965 7.710383310322256 1.6675396059842442 -1.0086877360365145 2.5511591140638
Ni 3.5714322361560247 7.348400702121889 8.030227725969915 -0.4715194938442266 -0.48381065250675387 -0.5920736359809158
Ni 7.98656130670623 8.49044694899265 2.8229304908956947 -0.6235429102337906 -0.7780135026122665 -1.764958961875683
Ni 0.9145429243197832 9.267426144740886 3.4100876952303105 -2.376860174105487 0.7508958204598681 1.3384651408125272
Ni 4.8923687086452095 7.320812384757037 13.602240277447468 -2.399461456444771 0.8439430154255401 0.09756822276447713
Ni 2.7847593435048186 6.6874286548736785 10.0537846220065 -2.2328547429243932 -0.11077289438020922 0.10776496079182084
Ni 3.6093859984286722 2.885941386731678 3.536397778754348 0.234899327249189 0.0740058620635048 0.652513843544844
Ni 0.7676558932312606 9.261968192201678 6.784577411121563 -0.6071117612609609 -0.9327046956419808 -1.4570436472800843
Ni 0.9832804718969052 8.49542908002844 1.1282492892383147 0.694192968451185 -1.074865360304852 1.591113821625337
Ni 6.305997075966929 8.782069551587574 12.2057274894987 0.06717932605997462 -1.7739776204345254 -0.242447314799776
Ni 3.475325622298959 5.43327512986424 4.734938032830945 -0.7400452508986093 -1.5680505120479704 -2.1864036505507056
P 7.81221470995378 2.176892707971433 2.626555224501664 -0.11445754232064806 -2.856615682706261 2.107609108849306
P 8.736250739758425 8.337465670727015 4.8160777279471585 1.8744550464259977 0.1470521884272177 1.0080696428365412
P 5.229642186068074 6.558266441279151 3.6397266166466293 -2.9087697390019964 -0.3679276905934889 0.07837056679010375
P 6.36634243840043 6.331411542149498 12.060136372269488 0.4171512035059912 0.3210315402625826 -0.5640887207322156
P 8.815740920329457 7.046832497122186 8.82004197352702 -0.34049453408320074 1.0352827129162234 0.57483464639481
P 6.9894167023763965 4.030562667620937 8.34153814300627 -0.1609747120455808 0.9428214723610086 -0.019558895968534055
P 5.073619382113923 3.456581986997644 5.718969556316578 -0.39723646685993524 -0.1498706317126193 -0.5779698495896821
P 9.03316335789135 6.779467461368188 0.8687875553577581 0.6186578142273474 -0.8716271116043698 0.47793491045226727
