# total energy = -381165.2166185402 ev
CRYSTAL
PRIMVEC
9.23998596066163 0.00000000000000 0.00000000000000

0.00000000000000 9.23998596066163 0.00000000000000

0.00000000000000 0.00000000000000 13.52365344551962

PRIMCOORD
 96 1
Ni 3.1546882966389678 1.878452191758218 11.313631961472778 -0.48549858173213806 0.05952900860356845 -0.68143412612362
Ni 5.700590876361804 2.4568013948243403 7.579602087272397 -0.42441559837788845 0.7106138330113697 -1.3965018811412853
Ni 2.563310713327395 -0.16848282853444496 3.637714108241143 0.06151235758218439 0.3341896749110954 0.04085611478441351
Ni 1.016333778962998 4.6548647019656295 9.306626616635922 -0.04094430362284562 0.1954264659655473 -3.1910853507516204
Ni 0.5331296356312217 -0.1908713145874424 9.74152041721925 0.1875421781214641 1.3933167985450843 1.4701315908122938
Ni 2.4410749386699027 3.196249753620553 1.840149677835193 1.4137624679939458 0.16795731401100106 1.9161974204701064
Ni 3.3542627540300907 6.630650906139149 12.24838682813148 0.879699347089543 -0.8488329965279896 -0.006638588362440179
Ni 4.853524400743774 8.911097928364434 2.611782755830663 -0.27098733122099783 -0.051739851576452826 0.3210551944116664
Ni 2.4695710554620796 0.08605568551629637 12.708542750410595 -1.3588609308600597 1.114616672060861 -2.600636137748005
Ni 7.754205482526406 7.579403427573618 9.496837272225104 -0.40252214073890674 -0.6653714162338024 -2.039078153857443
Ni 1.1706323050046836 7.33014556551598 13.255655256840003 -1.0044492724751346 -1.3118771059113534 1.006411281297512
Ni 1.7978887539141881 7.243382097072874 5.1944216718512735 -0.8227275576901896 0.5412447262545066 0.3143723830748521
Ni 1.5904880283898053 3.4450548563646977 11.35502709870655 0.0073523266000131435 0.3949772385121133 -1.5442523811871083
Ni 8.632346031027733 3.434493552378492 10.337615937377155 -1.3503148410622616 1.2967160819001988 -0.7028527010087121
Ni 9.523099160404975 5.526943819657725 1.6927691293039817 -0.05361829954608831 -0.3522352195588966 -1.9162416434444804
Ni 8.295058822446402 7.02414494949571 5.018654962361163 -0.8633664142574745 -0.29123733971928556 1.188920524980759
Ni 4.6443588378953615 0.18713281625601738 7.2607957746690275 0.42448656082513997 0.7863428484135683 3.8921958722582453
Ni 2.3280606700301125 6.055905297609002 7.504653788914296 1.1453894344673434 -0.2917317628572008 -1.5940842171075709
Ni 0.8270230980092129 5.767377495095218 3.8848319895435717 3.079813662358122 0.17868729883399548 -0.9625282067613165
Ni 0.7485589849820387 5.67952370830533 11.180964242632937 -1.125732065247732 -0.16451666376056828 1.0526487149984969
Ni 3.6950241973435416 4.702321270008631 4.328218261250015 -0.6293533462679806 -0.9401385262122066 -0.2653769270127559
Ni 8.430997496326592 4.546396506432762 4.136060740612809 -2.445099308888544 -2.4869015896363105 0.7386010622529151
Ni 4.2413845689133876 1.6486722201668274 13.285394151747791 -0.6830109836924366 -0.617849459393439 3.1078075764678865
Ni 8.114657335983868 7.1610445819188255 11.638496932889582 -0.2428144683312076 0.016279196775997772 1.3790404911317282
P 6.150125434745781 6.90068025670159 12.967520153730781 0.71838010722035 0.45579179869632475 0.09506216851317176
Ni 4.334514387703384 1.5966326190729432 9.453629249740157 2.319780912593992 0.06041758185610885 0.29741878593964904
P 0.9299214299875 1.3576311414638507 11.430624968079727 -0.7163461075094566 -0.43678646123841547 -0.11674196747945055
Ni -0.19737256872978204 9.372025389473688 5.378140313284104 0.18199296616846075 -1.3463437722296554 0.8722328635091687
P 1.633555603087709 7.4915958407136785 11.241455658911581 1.2267900463330226 2.315897004158553 -2.0235157806428123
P 1.1384679137746037 3.1454113507053276 7.097713717945551 1.5084543976518925 0.13569768264634693 1.3166596149016614
P 8.45217554421494 8.042372925586593 7.070896506607699 0.1796316650251358 -0.6435640905507238 0.44345847394195237
Ni 4.2263141517642175 6.883392242914897 5.258754150305829 0.4278865876456243 0.381620100478917 1.03301628547955
Ni 8.775519613937844 2.6120331594509834 5.869306552543188 0.29983716557315454 0.1684386245227938 -2.744361318684519
Ni 4.714989290800484 0.28833561080519804 5.240713077660976 -0.13107946714804522 -0.005120609056016988 -4.607588100494864
Ni 4.599526425873428 2.061413154339894 3.405945691664773 -0.532363878825109 -0.34038963307422027 -0.9577351562480474
Ni 3.474022212442348 6.7998442895962 3.091723336110884 -0.8265896117487571 -0.2072913357239333 -0.33645275991365925
Ni 0.3520758061578155 1.3323135798521244 3.635834695090842 1.1954236162065994 1.1299152500911445 -1.2864596942795135
Ni 3.4821996000432156 3.8993018076034125 13.154295382528998 1.0514346400857375 0.08968676313387135 -0.6224797590765989
Ni 5.206750585157304 6.761341267977198 1.5512984758117705 1.289925541340927 0.3004002371654762 -1.0652111250445397
Ni 6.308341714847091 1.3598856980453329 1.4217825161930089 -2.452741913035466 0.4924030221614552 -0.40633045874140344
Ni 7.189984218038506 8.522362477792559 1.9978494427196798 -0.45190763315057014 1.5438415189019348 0.9577066170029571
Ni 8.167898135256412 7.144920806366832 0.5848421412210711 -0.18547398273852572 -0.2046058184719702 -2.0317829057476104
Ni 7.131864706163412 1.1672319901604808 5.9748179525593565 -2.3568310233687537 -0.3999150421333629 -0.3541157244110611
Ni 0.3877467720709796 5.0704885117674765 6.107362779585536 1.191648208324567 -0.5907567169417051 0.4085079260086964
Ni 0.15265196053832425 3.2633690118495973 2.0635337311245263 0.017267785941512195 -0.2750131645509393 0.38699653429948194
Ni 5.681898384704678 6.0077649706027625 7.1811008955080275 0.8118919005272662 -1.5494372678221573 -0.44078761197800853
Ni 8.252102127580375 3.412964385022535 7.884735992606835 -0.8257756004878941 -0.5067760030536756 1.4351576458402702
Ni 1.8218757575434004 1.4845977889480593 5.589447704884924 -0.6474066042252656 0.49932186076847546 -0.6550111560454009
Ni 6.659747622020654 2.110606839748957 9.587296735064083 0.36215916354082783 0.622667963828005 0.7857345254056081
Ni 6.259573068793554 8.03225514092789 6.289526331376303 1.4271962249013486 -0.12691787957118789 -0.43790977620958127
Ni 7.6350096632595195 0.4210911095119419 8.27924828241946 0.10264152352232646 0.4492395994001038 -0.624995326409601
Ni 8.120487767143358 2.3938308903046632 12.148013784324172 2.589042005152502 0.4636115518510596 0.6403108737207488
Ni 5.72388488104179 5.0682062352280255 12.059461454593464 -0.134708065039568 -0.828318935735038 -0.15545481066861613
Ni 3.172955748940567 3.827174476967961 8.851096231343242 -0.8434552771558441 -0.7382735037101672 0.6645684607165329
Ni 5.476789175705736 2.422474846872675 11.726021776178237 1.2769221871027234 1.7688544402753472 -2.1486459721859577
Ni 8.208323073961266 4.977229333173625 12.67204203375556 -0.527887074000678 -0.25471816174732903 0.2584868847611419
P 3.9393663868546698 4.274888758111971 11.053422868020169 -0.4843739812093915 0.060295968676580027 -1.0306274735323993
Ni 7.424134703003017 2.055795242858168 3.2680583047393603 -0.18950932915016394 -0.4066703585793255 1.41197966506191
P 7.1361428196766346 4.55224541756423 6.191236904409669 -0.08781654269435199 -0.8426656913750132 -1.0913052510284302
Ni 1.0369019877760284 2.2365293688163312 9.114712107630247 0.05171645453768513 -0.7899580765686525 0.35537325096724603
P 3.376651240083088 1.0858369535773797 1.7141227369261347 -0.5068132840495143 0.027384562660539936 0.5473881201480831
P 2.899664683323768 8.296685059980586 6.564056479114319 0.9533218576717002 0.20892398623134986 1.0793534779831926
P 6.480926173162355 8.537571494731575 4.070944711346328 0.34486129569232865 -0.08762011041282973 1.110652030986158
Ni 3.056116126101049 6.152620230962994 9.863070584916308 0.3342830059558501 -0.8898315504275384 0.6448725249495023
Ni 5.266459374622625 7.042375441853351 10.466658809713245 1.0033213295182783 -0.5493246750491636 1.370292312625453
Ni 7.8310452060165945 0.3281950623674846 10.772157694494275 -1.3208106609555574 0.24255041603654354 0.9685646427633834
Ni 4.773450682157197 9.323977462327347 11.293954487309152 0.6379498296877399 -0.3512147487141822 -0.12188854467739654
Ni 1.1180937446673567 7.07514967215875 8.935686455081575 -1.997137547759599 0.25794489621474287 0.4252319236315967
Ni 9.016535408492686 9.324347061766934 13.039615144415267 0.33508133348742936 -0.9937521977726047 -2.3048183777468885
Ni 1.217275754280594 4.488064474879905 13.18763140398257 -0.9221963399114893 1.5557200155070756 2.1450469419807896
Ni 5.7327090676619346 3.3930891751587304 4.867636631345814 1.4667572750234221 0.03343976771568435 0.893367588605255
Ni 1.2302117346661476 0.004189409647721431 1.5612924446582095 0.6030836139381742 1.4439539039756617 -1.091902518292797
Ni 2.868747690202295 8.896591150360635 9.652967163489944 0.22361346992272457 -0.30036218483868915 0.23987595452817395
Ni 3.2762310723472337 8.043934483218848 0.5945496705018302 -0.7686870830050181 -2.3232850690925084 4.3946819896873155
Ni 2.757720018550286 5.4591223224934655 1.1423579478762593 0.1333808615877122 1.8682162646051377 0.5096109013993094
Ni 1.208488527604407 0.1806306381150788 7.482475050543265 -0.7332068878205373 -1.1614984242140642 0.034135765341444434
Ni 3.930320440570772 4.572092907470065 6.776323905259466 0.4230703972039036 -0.10511363921190282 -0.43710347825820206
Ni 8.513787770794135 1.352863308693175 1.1316367921324324 0.13063055253608472 1.418143370670461 1.5503284121778589
Ni 6.688511698406532 3.3129600166562154 0.12319858119761665 -0.8451378070645896 0.7611684060304698 0.41861544675634355
Ni 3.8252895198260664 2.4632878649890966 5.783742434281542 0.8414313047472799 0.4853551141757384 -0.6923556581321302
Ni 2.9876940298474604 1.669831788083197 7.805474468788751 -1.6033085639193163 0.6073405894423153 -1.2875395576072537
Ni 4.426923487586185 7.429299855171249 8.399053940761664 -0.9267551629267653 -0.1271402799946391 -0.9804958469833306
Ni 8.086992817930764 5.737264380754848 7.704750305513836 0.6950442607078868 2.856785889735538 -0.836686848083759
Ni 7.167558772041551 4.060031363893915 2.249903324537796 -0.5729795954639422 0.5473420974014961 -0.6504867858124861
Ni 5.341940820172329 4.3731652490982205 9.239562798322817 1.4429673716926763 0.7082147366515739 0.6989564512780995
Ni 5.169171562137271 8.783826361342566 0.06615922368471597 3.074655000975318 0.2657664491416907 -0.3629428357843878
Ni 7.658719467309042 6.43206512724892 2.643928667088764 -0.05449993082009323 -0.6549108830221108 0.6960850432675754
Ni 6.244964650943867 5.513222440463049 4.017390676548735 -1.9513490286705746 0.3717118402262695 1.2157487009171966
P 5.8400961848340085 8.88104949392599 9.359815671986924 -0.3179086783628848 0.6704017795688583 0.1402613907576294
Ni 0.06416615870674174 8.096131164074558 3.2423230957609004 -1.9750299172272823 1.6508567460119246 1.5066032033757666
P 6.820126058843551 1.0307296771349215 12.783557576667823 -1.72923451189088 -1.832137259494393 1.0720533447773537
Ni 1.6230497390174417 2.2931520029610977 13.513970153164728 -0.9906823005980293 -2.0212416398966546 -0.8534506978056592
P 1.45502059379509 7.236137948056964 2.1889111010185096 3.6226583861098964 -1.800457669002925 -1.3757111696481792
P 7.770523297784184 5.3702428972587235 9.674956482148188 -0.4618896840639464 -0.8994927276663863 2.2025308951298714
P 1.6378799165308797 3.414877062122399 4.19253553498174 -0.0867860445473086 -0.038775578106300966 -1.0270968346713214
Ni 4.854928878614205 4.605929736164278 1.999377736402373 -0.3332982734450776 -1.4571068964178517 0.4055362449748822
