# total energy = -340857.0944825061 ev
CRYSTAL
PRIMVEC
9.47353910555004 0.00000000000000 0.00000000000000

0.00000000000000 9.47353910555004 0.00000000000000

0.00000000000000 0.00000000000000 13.86548208097616

PRIMCOORD
 96 1
Ni 5.864366878585525 0.5493780984686871 9.062964230901157 -0.07376829213140199 0.30529896001867424 1.5741972483756566
Ni 7.890254747406671 8.58222097426248 4.871331586130779 0.1531107359164718 -1.766488768256648 -0.2863992949006939
Ni 6.708942343255472 8.797743983777139 11.549474507134246 0.3059885298865311 0.8735577529681794 0.2986919962251179
Ni 3.333454125622977 5.154609345713517 11.633471639611685 -4.338049843015567 0.5322345523360963 -2.2112474490672627
Ni 8.070109883039013 3.497043194998762 0.8951679517034443 0.6138390526824654 -1.72261186436804 0.7587127454011255
Ni 1.6846699454497636 2.551669276648114 9.669080301074645 -2.127100641915014 -1.992698538151639 -3.2058193145276856
Ni 2.48607449344462 3.394444768930905 3.0839609003932567 -0.030326933118315514 0.8568517530674081 -0.3218350100004845
Ni 9.364877388814282 0.5657976360550961 8.776780936943993 -0.5696654434890447 -0.9548686333335297 0.8050705067300588
Ni 5.626258952381507 2.9351297098843694 10.565344341226478 -0.7400208254185772 -0.2788597919905391 -0.5429722504685746
Ni 1.78487156618104 1.2014910419650997 1.8201083940443268 2.1951906527147163 1.307383331806058 -0.3529484435758373
Ni 8.806393324774364 7.280253578938591 10.785306651060194 1.2530790619365386 -2.0849404636071966 1.6218428752780778
Ni 3.593474347255892 0.29235530453732966 0.3433921005442887 0.07089919811372307 -0.9195876986440485 -0.5512252345059862
Ni 2.450444513717823 5.27471487163118 9.209314301577434 -0.35445279603550567 0.5402736205904888 2.111295042341325
Ni 4.780338245190634 5.43087668652523 9.613950936271628 0.500402495427164 -0.3290991477620655 3.191954126509819
Ni 1.2090982936855512 4.004815405415296 11.361306341134911 -0.636740125650355 0.8110429222634097 0.9057515640919046
Ni 6.427142455737976 9.172649811404966 3.098547308206431 0.5985913824947755 -0.757195794535967 2.173902175649585
Ni 7.435543828255702 3.380689190477486 3.4556940398502514 -0.054674765835060674 0.34169729614205024 -2.547865788024509
Ni 2.9041891319030566 6.16474437584624 13.921637274380792 0.7194892811241287 1.885674826401217 -0.8642701570186664
Ni 6.767479339993541 9.231158387526396 7.141250237663573 0.16755956435195013 -0.8097249747829345 -0.7133410021345457
Ni 9.314231849963056 2.234684665731171 3.0330188397750955 -0.1470521884272177 -1.9021363143913501 -1.8172801398769027
Ni 2.7634028706108658 7.898089364060238 10.957390642749466 -0.39077605594657217 -0.7065607459879186 -0.370633005339794
Ni 4.205237593955609 8.678794229602806 7.617210304521855 0.6865606487169079 0.2848381210611611 0.09296569099545925
Ni 3.5848250062586664 0.7723795195750317 10.684157676440941 0.5375976164202225 0.6567075699112174 0.19492201552530303
Ni 0.8868530266286744 2.1006909318157723 12.649575946592547 0.6270159563840556 0.09872316230452675 0.08155719204820147
P 1.5244345088374154 1.4181129819898104 4.153530071395963 0.2833749062520733 -0.04761837320891154 0.20764331974671335
P 3.8121804658341514 4.053319924479694 5.363916766369162 0.7122793936392507 0.9350569979242412 -1.871724534868712
P 0.9320977009645449 3.0382870747461332 0.8220341262594331 -0.8804614220665481 -0.8447984214472999 0.19511664803461234
P 0.7565274469675206 3.479232941904803 7.639644591943027 -0.09999894369315682 -0.01003244453533756 -0.27548650464293206
P 3.1534568869074384 3.074134945867164 10.856380929151745 3.0185954389775884 0.7993534017406233 1.2757525922746544
P 4.1136853142215575 2.6325638251424293 1.592311467557045 0.03530767416235854 -1.5957559483830388 1.1179557637364232
P 8.58103678190251 0.9972415437173623 12.079357957296152 -1.7206174596458301 0.9797803089735447 0.3422662812716428
P 8.812456389657413 7.238901581728416 0.7421987194118758 -0.9702407449142257 -0.9311903158799834 0.541021554500107
Ni 0.3889806643414947 3.5296700629006734 4.806995836244405 -0.23123010592771792 -1.8000069546187516 1.8353395684817746
Ni 4.86286224237227 1.6532367434467028 7.016557624220327 0.7174372836911064 -0.3324025011036856 0.3534040430560172
Ni 0.6714361207494698 9.601052713086828 10.993552088007418 1.4903417472115816 0.10367536410347951 -1.5927667838477277
Ni 7.487581977322252 6.500638170367195 6.573680102484072 -1.9093649709293052 0.27876517539420376 -1.5008063941883314
Ni 8.41360145574154 2.9933635533782863 10.493826701515356 0.3649570380009392 -0.3442694277446006 0.3693410260012478
Ni 5.583125929861936 4.526760029995959 6.466056911394388 0.15830590696416608 0.6922106479138337 -0.3141039599048139
Ni 0.6008232040013639 5.375939634561472 6.403190507388266 -0.543820971622115 0.6794736599631395 1.4828120144934398
Ni 6.342837433246946 9.301357310625455 0.8791311450877778 -0.3332337387557293 1.5690642980244653 -1.963192815383038
Ni 2.2650852519963376 8.31678188839034 3.2039110602732914 2.1537974344799102 -0.5597214449024553 0.595520971099568
Ni 0.3875368970162185 9.317898109509526 2.8403990578561578 -3.8449641929647913 -0.12767506945218657 2.2565952810744427
Ni 6.965258411186399 6.59363042801097 8.8361108688863 0.17271745440380576 -1.8548634974473153 -0.25294641455888695
Ni 3.27845075888706 6.114383043161409 4.721903562672467 -0.9330883042336447 -0.2618426886072523 -0.6914588573494737
Ni 4.418136433200572 0.4913829881545405 2.597059843482733 -1.3456256631167085 0.2363815682216703 -0.3272404972867719
Ni 0.2415761887879003 4.950842997948648 9.389857216132446 -1.680895715576176 0.17259661255522532 -0.6785418921774895
Ni 0.997696273583591 6.179532570037554 12.268136219199345 0.7784781009535109 1.506232193189593 -0.4980100839355875
Ni 9.243312937909135 0.909506152797969 0.5654300627465613 -1.3312310849579332 0.7438983060961124 0.44237732506263167
Ni 5.644580776574973 5.177298471330555 3.9652226443750935 -2.336698771395253 -1.472229610991903 0.45558148245773156
Ni 4.30686024551885 5.631649396004094 2.0716971660742507 0.5502713552331492 -0.08097946516786053 -0.3484166171437548
Ni 3.0345166062719864 5.3037512682976615 7.145034916446039 0.9550676367182132 0.4946095428944708 -2.1783404139265965
Ni 7.9876995683239365 4.3013940135852256 7.439108720936158 0.44409610752595136 3.465544185460986 -0.2490213684728679
Ni 5.191423517800286 7.430409170182869 5.693291818786951 0.5813338809659085 0.3962388788333563 -0.10412196472259487
Ni 2.8642107978304474 4.007022739974282 0.5996058542553141 -1.101889711412496 0.21286960114265918 0.6352452862723834
Ni 9.109878142787643 6.821933241474431 3.264017822403738 0.43715592876269227 0.48570375576440866 -0.4558313936850085
Ni 6.902354113024758 2.7908287656677864 12.582508975447137 0.037953596425637864 -0.8297448695482871 -0.07786894456333687
P 0.9876732694487995 5.419451598636233 4.369595914688431 1.140439803771552 2.0525684750343944 -1.6898598667479994
P 5.033215418508206 0.3610422508311792 5.188393880066537 0.0977245458366833 -1.3544990543469384 0.013556912748828266
P 4.920982403399629 6.610768059844466 8.0539035000774 0.04761734476764702 1.3766969306002161 -3.0801599899539474
P 6.257622951023459 3.4695036174752842 8.212954744329776 0.15232963477607311 -1.9030004621638583 1.6788177500012247
P 2.2350351866697222 8.08880117524879 13.050732003102315 0.2748594125818944 0.5210566813424058 -1.429990499817034
P 3.0292587921937164 0.9852669905733391 8.491359315512764 1.6443353999536392 1.3353993574030099 -0.2568750601893318
P 7.341320010557557 1.356279193721583 2.0465449203484742 1.191721998985296 1.2777002029193285 0.10835451474670371
P 2.7660270408805614 7.5494062920516 6.406462667717337 -0.4270270678588065 -0.7730841836314493 -0.5004891416036994
Ni 4.192732522634318 3.6379147181408706 8.588515193494198 -1.4266166982487947 -2.376174460892372 -0.5891186671176499
Ni 6.623917331809579 5.439886021999887 13.083634550985629 1.2574972456088924 -0.040946874726006895 0.38725338750529437
Ni 0.34417082544020533 4.432612000608853 2.535496998426467 -1.2461681937493183 0.5909415792590016 -0.6962092275502655
Ni 0.06678087027124077 4.990006607677597 0.15593255525315905 0.6232947987787265 1.441081467523873 0.09396687856646398
Ni 6.018709774014661 7.127653814663334 0.6289851930292419 -1.4855268423214414 0.12568015050934483 0.053160643183379416
Ni 3.4522712502529918 2.4296879900322574 12.958928674587952 -0.20773510812957127 -1.9254857877505678 -0.8347790895380849
Ni 5.152392537615652 7.74912743871481 9.927781806095497 -0.43865848145014774 1.1991568579967864 1.0415610897257677
Ni 6.302792784402179 2.0817438540562416 4.755111158507708 0.21399934387172823 -0.8761509676166523 1.287582752140363
Ni 0.735978393783422 8.275221473324809 5.718679008276944 0.18557297021023525 -1.271602574662023 -0.8098033934293537
Ni 8.269802609085584 2.230004737524567 7.692957879342794 -0.5399581462325991 -2.407295607777209 -0.08037525592495835
Ni 3.8021385146216 2.00918601977612 4.365227665910971 0.31280323881551936 0.366990009270568 0.24847912281615273
Ni 1.1908617313420033 8.354211840504293 0.9667045384923272 0.7224121111978783 -0.5674576372044485 0.3651964077052549
Ni 9.33955461938867 8.574774772702984 12.853245664260841 -0.565251116471433 -1.4738257518344293 0.8106243466687523
Ni 9.023460521126424 7.492584005850769 7.634736351449421 1.311814370994218 1.5971497434067718 1.2692291893338399
Ni 1.8784417096964807 8.760276137507667 8.15854631583551 -1.464720704209368 -0.5793708437022668 -0.5156049141992153
Ni 7.1447914464968285 5.619087483449524 1.8871478919269848 0.8914773135610776 -0.8054638855137354 -0.08333228167075327
Ni 7.619699950539458 4.906497362452468 5.019900359612697 1.8412497633186227 0.14071236225211894 0.5219282853140818
Ni 5.903767326786468 3.5893344107654346 0.8013647591315614 -1.251629988194838 0.17370372957647504 1.3262768262764513
Ni 2.8383480366886884 2.719511964980914 6.540680924504186 -2.640446070656091 -0.6698045123044917 1.6165111786525193
Ni 2.732017036302204 0.18853005518454308 5.506870573357043 0.7746684973994336 -0.41054166860927366 0.10864530651424516
Ni 4.707524625360759 4.290082608162786 12.862883095363227 2.520730108149981 -0.8919465398880122 1.3261644690683032
Ni 1.975422327208637 6.091921282477485 2.207093931097743 -0.1411095976905376 0.20576178645328436 0.9371172228873795
Ni 6.882289157677415 5.021070341664347 10.752958305201348 0.22130719038705113 0.06714204506413599 -0.536570717817605
Ni 0.6020443431629656 0.9812596836271985 6.451747130916503 1.154775503667934 1.5769444721034906 0.10695094953095775
P 8.596800750598439 5.007295816133169 11.99594344745982 0.5650179174147043 -0.39180218321824134 -0.5195695552739181
P 7.803552919579061 8.331551135503894 9.470387033379891 -1.840402584826979 4.350092118892082 -1.725521581815667
P 4.0628124104372185 7.790034179597636 1.86855417716767 -0.08638161002003833 0.030499197030121668 -0.48782620142405025
P 0.9620662938567942 7.150665040602283 9.234050658946389 0.9045865972495258 -1.5499311767394404 1.218820654974301
P 8.094598981043207 0.8903165524431166 5.87185097430054 -1.0191492976894707 1.2752414569661907 0.13368965107738268
P 6.937084106557977 6.704508727059742 3.7545093505496925 1.1377398883418857 2.1175898742111015 0.9097303462339945
P 5.21865994207961 1.0295842054528805 12.459840857262497 0.5532690044088924 -0.1749643414564535 -0.12156227168622936
P 4.788712853560347 6.514535851903811 11.942991101891371 2.4447326695777445 1.6934051608970964 -0.3570892052170882
