# total energy = -340889.97205106454 ev
CRYSTAL
PRIMVEC
9.11108579689583 0.00000000000000 0.00000000000000

0.00000000000000 9.11108579689583 0.00000000000000

0.00000000000000 0.00000000000000 13.33499502642824

PRIMCOORD
 96 1
Ni 6.851773432547353 2.0501492002557193 11.301795395999793 -1.7861448519246788 1.407202298277925 0.23373127508301683
Ni 4.684856556291699 0.6836731029841681 5.993800702088408 0.7972438115967883 -0.9674035325757468 0.3985551856713588
Ni 3.128919984723905 2.0026895541661704 4.735217172109586 -0.021145780839679714 -0.621622039061994 -0.34725524984580197
Ni 3.6953561907878827 4.550550040068615 4.929854565374552 0.17198571844410382 0.46111218246797364 -0.8968015539874684
Ni 3.827138936235999 3.116565352338144 2.4904706673665533 1.0029053250267825 -0.521295022605457 0.742627924024121
Ni 5.216789080316682 5.026731829898561 2.3365315833965394 0.807576560981364 0.07165021734713467 -0.05301151920002482
Ni 5.6010582362914985 3.1731725286012207 0.1947376152090983 -0.41471662592256964 0.0814450919503694 0.29738304760570716
Ni 5.897378080747326 7.912631822273351 12.28541091116588 -1.0468773597323584 0.5947295855465241 -0.3987647305790036
Ni 2.0299863673134713 7.162689236503172 0.13664259862994851 -0.8116815842886732 -2.5108750697327724 0.6646851888000552
Ni 0.85186921406129 0.2092051083988842 0.2568597317251996 0.18425090896470203 0.75948150524635 0.01719245261888652
Ni 8.038929694051683 8.99901947449559 6.869243028518192 0.3800589266393842 0.06058290378937953 0.36587286494698923
Ni 8.85208499331184 2.4065657668475926 1.3300727538369588 0.7399863726362158 0.9321030575022399 -0.5366861603495467
Ni 7.2518867667809 0.6415871753172753 4.706733184478608 -1.0571075221007988 0.4066011959042868 -0.19785178757758828
Ni 0.8173072210729823 7.455883978519237 2.214702699217925 0.10097827688729061 0.2671504739734109 0.9820387659904183
Ni 8.173309098961408 4.2764703561243245 3.6441072441015505 -0.9112141298683727 -0.47203294314553546 -0.9198481513942868
Ni 7.97589920227831 4.039409013908164 12.690128077069431 0.47255590552854093 -0.25098774817061936 -0.7730492166284557
Ni 8.398717362400733 7.330925436357947 9.223495673854485 1.2102416550560382 0.13326053395976403 -1.115424255563821
Ni 6.979055301595347 1.1462110417833788 0.23625318890302013 0.10879751582139327 -0.7965987218136217 -0.6095368257626858
Ni 2.0736922460409746 6.743679510257776 9.315614218249376 -0.47030001961482876 0.1963374078155909 -1.6273368085131132
Ni 0.4760542346283229 5.231612816962429 1.1357205375584782 -0.2160847656458472 -1.1347733495143941 -0.14677322373421817
Ni 6.526197891490732 2.2388397877993094 6.909821071480186 0.5873170951325368 0.14365936069558483 -0.9486216239825535
Ni 3.488862541532068 4.66557749867498 0.3558963235909682 0.9835824563284545 -1.282308134004985 -0.6092298360452282
Ni 6.478264468938011 5.884431227782601 4.447100949335278 -0.9002514602092817 -0.7609213230166701 0.7563249618952393
Ni 5.715092586542371 3.1246377743837077 9.2152419412009 -1.7528547224129811 -0.14732729646547532 -0.1428008693500315
P 0.3487395656713405 5.887246553304135 12.323815960157368 0.18279257925162068 -0.7262039741401428 0.14150811868053692
P 4.002946448415676 6.363637898108175 12.649602878405252 0.7490415408599487 1.2031397539039346 -0.65890432045222
P 2.601533892528195 8.798101809767862 1.5963989037397437 0.6550697771974783 0.08740696596075916 -0.16268603830973272
P 6.463632065094698 7.817375419918536 5.775879928984347 0.44826103753691837 1.118275866080003 0.2447381677164817
P 4.9149479178477495 1.400291892330365 12.261327577990894 0.05428241549264844 -0.45035031596577924 0.8129406535067547
P 4.08101023180889 6.382953400068215 8.177512042854882 0.35259106023641856 -0.045061668225328845 2.0788052972437363
P 5.2160510823644355 1.367993093062281 3.904486588282959 -0.3557180359011745 0.1024242653051978 -0.6161332480332807
P 0.6558478468587156 5.705735501394749 3.6497880061166845 0.7375170851601169 1.4267105435141816 -0.7018065191323849
Ni 0.6616197197321517 0.013783250643937357 4.402721761364922 0.9846798031576912 0.1709197390734347 0.49263519277691936
Ni 2.184938604027804 6.82305529001054 4.8922631363477 0.9250101552112006 0.06890813582562326 -1.1768841626415152
Ni 6.0913166537291135 5.663496507485908 9.067850083508473 -0.3393956445920671 1.3572707035548044 0.3862899951507605
Ni 8.8872720067881 2.1675728744354292 10.131862731148889 1.0746696993542784 1.493231410054551 -0.984055796420447
Ni 2.617469181645227 5.368306437673027 7.016207576285182 -0.7653798730086561 0.09442350648790836 0.5027262584643342
Ni 0.7711276825425774 0.23157646854637481 8.801483844828034 -0.27232867574024067 -0.32460614498771834 1.066919108874582
Ni 1.94240149922769 1.5068733743721283 11.479270236886398 -0.46400955862042664 -1.573564242777348 -0.6815577961856778
Ni 4.4997375143935505 7.193931149814952 1.4465270084843345 -0.4448311859197629 0.14257306960994154 -0.24821147097706286
Ni 5.718737020874454 8.012744433375667 7.977607530871474 -0.22310799104121576 -0.16940304531859213 0.18399559842078633
Ni 5.783097731179037 3.5023287263891145 4.231460681014518 -0.32806633562217696 -0.04059386226196234 1.551308002482309
Ni 1.0380806751504803 7.736386977973825 6.749907848531305 -0.40881440150552173 -0.07315662668933208 0.880930905503799
Ni 5.569151213714113 4.712690923502982 6.881817238072461 1.4146173597950733 -0.09715427515551009 -0.5123853788206532
Ni 1.0432831051595286 7.730747215844926 11.324010956579588 -1.530161707421997 0.19561955581295984 0.30129909483066175
Ni 4.819254183373084 0.24174352922430298 10.057746781245903 -0.5892482507169787 0.0929507785971238 1.4862171835202467
Ni 8.198865694715138 7.3802984104718385 4.597985997335005 1.9893450482983739 -0.0828684546604573 -0.45311322342289706
Ni 7.535678868220191 6.266349723613224 6.9275567111572665 0.2626255895198638 0.1859979735627958 0.36954697136446674
Ni 2.6317826974844825 5.615991305967208 2.254894432140717 -0.3172378775481053 0.0595626900549813 2.3845678271623902
Ni 2.402793777313887 5.374802641869964 11.360308611418551 -1.2500436175443246 0.774737402964156 1.3249429379563762
Ni 1.2520818591303857 3.495231190527383 3.986950115023581 0.9538376209658541 0.062257463278325036 -0.7147067721338207
Ni 1.832931802977751 1.4832665509860616 2.5793884873092936 -0.434422074771297 -0.1672165791902346 0.08668911395812812
Ni 1.010610751372406 3.498702514228692 7.877101320861293 -0.244740738819643 0.8171855448260377 1.1643384647660207
Ni 4.0544331944421765 3.151087256548799 6.949599161106287 -0.8290370448479851 -1.6023752534717695 0.8326108782421725
Ni 4.652821978512691 6.715453366355795 6.208520750740316 -0.6646412229359973 0.9978381949165203 -2.057991445822178
Ni 8.340069302911688 7.611911323361534 13.155638963175036 -0.15686068987720728 0.17183556601948471 0.39016361917355386
P 0.5532898203195719 5.837527357928694 8.05872443912639 -0.6420882773361458 0.17250122462794162 -0.6024747767095818
P 8.530900995625377 1.9287895369973604 7.892489944828512 0.35050435291071896 -1.117983788760881 -0.01393692179606632
P 1.9517130289461615 3.449438873144762 10.338768201484228 -1.6605919710218175 0.036948295089575076 -0.4541465497834179
P 4.4309397052896555 6.474929811524156 3.915914623239788 -1.2697477808414712 -0.16755236526309855 -1.342527740917675
P 7.192828708429497 4.095378414163127 10.39336182777883 1.3333794987595036 0.3701915469270011 0.5619336220624257
P 6.6193860773620905 7.887886113158509 10.160492496153148 -1.9201250376592864 1.222231737538379 -1.1627374388274878
P 2.6416955588677484 8.967221784948167 5.726753865296454 -0.48502858407425503 -0.6840273407720928 -0.21785676994460543
P 7.275038035875456 4.25648974489868 1.4505404417925405 -0.6443739880465289 -0.04465466259489729 -0.007676028488019039
Ni 3.153665693838748 1.8938758560960067 0.3680541565227966 -0.13510401492640603 0.02437431507930641 -0.471064408584679
Ni 1.5304893088440252 1.3440036040713457 6.851027234617859 0.46183980466261754 -0.1517930455463128 -0.5627044387901793
Ni 6.9307938799527395 0.7756914254349281 8.967197185016426 0.9519267770963862 0.1555255160055515 0.5020950526382385
Ni 2.7966113512387603 2.0637338292285583 8.98253296468583 0.6458418308413071 0.2566845414450805 0.48788353702454684
Ni 6.752480819169755 2.243449997229394 2.5644399287876727 0.041195243291387115 -0.24484178317388156 -0.6919172850431309
Ni 4.014307972445944 6.966281559261397 10.49177431026523 2.1192739467817434 0.544936573283797 0.4039401041323559
Ni 7.427457390728991 6.340368184897826 11.2414007413571 0.8566769180524407 -2.2722836383439766 0.7426348660026565
Ni 7.620685299016024 4.061239175557341 8.214130407915068 1.7783392398373308 -0.010901477403852193 -0.585007987383386
Ni 3.437986238256191 8.709815388073155 12.799541284587223 1.5895153667899657 1.2338770350867911 -1.760148684971233
Ni 0.21046061602628674 4.921261900328083 10.069681392574893 -0.267248690114172 -0.3237090870947458 0.5978622176382348
Ni 8.895125762773738 2.4075497641172547 5.728566971376664 -0.4971366801916986 0.39936714004969287 -0.6577473240296414
Ni 3.7459773836605135 3.180388508578745 11.417182742496452 0.7389178221623854 -1.5102744815797668 1.4046080551881874
Ni 1.4798590048855642 3.484243221016153 12.67425929887896 -1.3508488591888608 0.5602850307154092 0.30581420909219587
Ni 3.1811082843593312 9.103140963363197 8.09136854854744 0.48663989442543293 -1.7478793806855768 -0.5986255781668207
Ni 6.161882013484068 8.014767094429974 3.278942212895513 -0.6515463374252521 0.08599543032521319 -0.05777654468883598
Ni 3.732037422340297 8.760454803117447 3.7096888399073817 -0.5517116872241014 -0.18618797808641482 -0.14619961061893533
Ni 3.6262394936799316 4.590474818176583 9.546456333277836 0.9554772134518059 0.3163349061178617 -2.339110209050223
Ni 5.377481301104045 4.708727601166841 11.267657068502592 -0.15010974430661891 0.4427475639178568 -0.20186090873698137
Ni 8.120073024455507 0.008120710800463622 2.1226515768581757 0.6215353928854586 -0.28058114555702 0.3286008679694083
Ni 4.821121955968277 0.54819490112332 1.4402194037640819 0.15721498789283245 0.3468343602582995 0.8179211374404816
Ni 6.064010729495984 5.5786540762350185 13.218394300156339 0.16353013147758286 1.0542929354701391 1.940815733239419
Ni 8.084776677949286 0.14295293667595 11.152176788930465 0.7876669665416305 -2.032758125176686 0.011464548996173803
Ni 0.35390828466281704 5.2171261904924 5.931552852587849 0.8528560016444536 -0.3597862924332771 -0.8982598837005499
Ni 7.6745227051867175 6.4505941012716725 1.922265999542932 -0.8187978836184802 -0.2800579260636983 1.0324655551824025
P 8.753384600513206 1.7030714966398088 3.459830977642696 0.6740098086350909 0.6666279143487229 0.25857661626147077
P 2.0187797317423164 3.452117532378843 1.4962935815060918 -1.1777714503424748 0.27428399969439865 0.17079298368758328
P 4.958763129605216 1.38246149736065 8.18779390321427 -1.0099403774966929 -0.4146227806571827 -0.9794692054910291
P 8.918668808558992 1.7732997462190454 12.316614557917173 0.07169315476992813 0.4536426135638058 1.5745764860919462
P 6.477134694295065 8.147725169950187 0.9931821552878026 0.5702053751529148 0.1746205849637896 1.0049532086947468
P 2.0877597625628144 3.4216409502768004 6.018469878082276 -0.03118953822892693 0.0002118589004899577 -0.33432748604054036
P 7.586819392985144 4.16454977778606 5.774679998980509 -3.063002504338054 0.43826176023236135 0.18308697056358791
P 2.579239065501678 8.705542288818789 10.34726246680373 0.7927253549011444 1.279233094624087 -1.0946062903772051
