# total energy = -340866.2591484264 ev
CRYSTAL
PRIMVEC
9.22910524876384 0.00000000000000 0.00000000000000
0.00000000000000 9.22910524876384 0.00000000000000
0.00000000000000 0.00000000000000 13.50772842381986
PRIMCOORD
 96 1
Ni 2.3073131784009364 7.2392546249604965 2.67581380766491 -1.2885667133201872 1.5379272103000288 0.890028754040009
Ni 3.845574262263499 0.2594319887181245 13.279501761425536 -0.8176861386115402 0.2732087643523488 -1.6165813697688223
Ni 6.122689808947631 3.7935590262134045 9.186389981029675 -3.8262146802714296 -2.0718188386235736 -2.711642488295259
Ni 4.32923474140495 2.9175969787998914 7.146695930434877 -0.17203636917638113 -1.1137013593354432 0.5816339287048305
Ni 6.612432268315664 5.977469841018563 5.374968021996017 -0.07478824875548411 -0.8210501699877667 0.48774392612288897
Ni 3.2506292344541916 5.309070366132837 3.63903612039603 0.10192341440937931 -1.5122591161099634 -0.4544149729534561
Ni 9.090788450569757 7.5162385256587605 9.720606574713145 -0.8395330592833025 -0.7065082954834284 0.6043269994269721
Ni 0.72341324716589 4.120906153158185 5.039693093815071 -0.39606250115649205 0.9699000737453554 -1.0133874555050288
Ni 6.27874474620296 7.6080773499906424 7.1472496767377525 1.184278141112741 -0.9004715466398879 -1.095331598579004
Ni 7.943093863230247 4.197230851904508 1.5412319327774888 0.9917125416347565 -0.36669818906176205 -1.5390003887595496
Ni 7.546316179009942 7.965105278769543 12.31788623588326 -1.7055415391493143 -0.3804160528684868 -1.9608209727167525
Ni 4.45840529565568 7.501822663573905 10.940517063231642 0.7215150533049057 0.15416334555070224 1.9239768073052088
Ni 0.12491409100262792 7.498020272294162 4.260229645872135 1.8390879797806134 1.9450138304811664 -1.818173341115133
Ni 0.8813453843879672 5.461655159890148 2.749835844701776 -0.4042928594860844 -0.9802055694364216 -0.22749763546847918
Ni 4.356783619973 8.618018315384854 6.3575474596546515 -1.130920294316891 -0.6309942243055133 0.15965367924131213
Ni 5.341750627107532 8.617003113829583 8.875063657537586 -0.577046052223832 -0.870981764710887 1.4038045854502854
Ni 8.649194232236738 5.8815886686756915 12.061117766881965 -0.39612240786015007 -0.5036873368260228 -0.5521978828319006
Ni 0.6864700625695591 0.788273551621683 3.1503670059450712 -0.34533926377001173 -0.6246867940302467 0.7483437434619756
Ni 5.709576608792503 5.714671074778956 13.401598206657033 -0.724004652495979 2.0958560820784355 1.022301213054891
Ni 6.567504984942375 1.760331809525685 13.339071019957355 -1.195757088286618 0.2849967581262124 1.7407126877338084
Ni 3.140138388820458 0.7448183105035378 3.2783931511698587 -0.9593827191537992 -0.11186818432691702 -2.2814005130435806
Ni 7.1390726896652925 1.1955751843281341 4.630043576784428 0.01658130139744886 1.0562886257439292 -0.19682283209244167
Ni 4.46511485502552 2.4196867614644466 12.457461683165016 -0.7848217837833515 0.9825781834336562 -1.15310814326784
Ni 1.9876723541711718 9.094867715000937 1.1799826113496685 -1.257138319607577 -0.2642245585758675 0.5027123745072632
P 6.144350518495106 4.3083031311562605 7.046955146360963 -0.3895025885507873 -0.6457127614626106 -1.8316927157578065
P 5.868566401453071 4.81565472295573 3.0818962755945303 -0.5631633807044688 -1.476091665050471 0.6153847999030305
P 0.9857145646434137 3.6706458051851665 0.8787086290757755 -0.1102987829572681 -1.257510358235015 1.26119526328577
P 2.6678204797829035 8.1590272340365 4.623330325772568 -0.1475808072371781 -0.03080464408568243 0.5259800867859522
P 6.899586642776739 3.934958144652633 12.886791343799851 0.6165294550304349 0.3122324539137139 0.36951920345032485
P 2.675157618296002 1.2887983744172042 11.45214911395234 -0.7060164434486744 -0.005520672707913073 0.8330667348326685
P 8.218896438482377 1.2902011983844885 12.298097188839503 2.212997341878834 -1.1506074883331732 -1.582853638499074
P 8.657952652927216 2.6370137271329366 3.7038327440269927 -0.19960142327884334 -0.22687131473838992 0.07633091065225564
Ni 5.507025440305736 0.3745244661287528 11.366699599045136 -0.32291384488696 -0.21602383050092472 0.11247933554835468
Ni 8.09540178383612 8.980149939255256 7.9613194998788845 -0.6445585932535093 -1.2344421635616416 0.8530328935419502
Ni 1.5243805098704863 3.105861492672472 3.05701460838533 0.7826386600891038 -0.41761194519249367 -0.797957035613729
Ni 8.394683202330166 1.8210500916359702 1.4878489433592925 1.981401110860949 0.3261256669560383 -0.24784251767341833
Ni 9.061882893559662 2.456400141345084 10.597812705487119 0.13189990616681155 -0.778834198741349 -0.8514822612253786
Ni 7.696953631602141 8.859968533321203 3.1109245797017624 0.775077045691762 -1.057226049956534 -0.056315643872593336
Ni 2.6142455249797107 8.04158687230168 9.597375872471257 -0.40101058919038685 -0.2335530976339397 -0.5089357297091558
Ni 6.478425663019823 8.952241125590337 1.2013904434188305 -2.4392263950475344 -0.34264320499508727 -0.5637745319259065
Ni 4.333886210349103 5.878109296072624 9.381657539812622 0.23982093292052245 -0.23261644475228324 -0.7340036726902197
Ni 2.294447805964132 2.9835850798925403 9.654797518258425 -0.4150696383866142 -0.7577390686339466 1.931866237355615
Ni 6.653815575350551 2.5422308182907676 2.5683999456541535 -2.0956640206722876 -0.3059425071399441 1.8301842495330802
Ni 3.6556761967974354 1.0970914043617483 9.551814549581175 0.933834695481366 -0.4760482349525156 -0.799538778278552
Ni 7.96547444297146 5.372686587228171 3.5517223262691453 -0.23878683522905325 0.1184610070530863 0.6106218312967484
Ni 7.165237202476154 5.659684066903431 8.244225717286401 -0.13308621316542887 2.383644544017172 1.354240658479229
Ni 2.8784194278714583 4.475931366141686 8.249034081016369 0.5802262497240266 0.9093379958915824 -1.1319549062289924
Ni 8.51219739690537 9.034657033668289 0.47627073472957965 3.1017467149857874 -0.4745135434755441 0.4594551064805249
Ni 4.635428759579891 6.952349436335714 4.492224428193289 -0.30972511411082787 1.2493715311779645 0.07211404435743064
Ni 6.565474581831832 2.5664572190415655 11.069312915817425 0.22629513051994576 -0.62581293721489 0.3450988656244315
Ni 7.738632269998561 4.47711269158782 10.252082124197381 5.233566873863658 0.8908905878196721 0.8862875418300219
Ni 4.105973461190645 3.0450416904066593 3.1232703535243687 0.6401378384779943 -0.17783986323203566 0.6793736440501654
Ni 8.10339418880762 3.2730559597206446 5.851993697518517 -2.566903264271934 -1.8496788679225822 -0.6920160154045243
Ni 2.754878627699961 7.228373510108995 13.044588736088228 1.5150582761216553 0.5814976602372824 0.8576361966419166
Ni 5.955319988903547 5.213309172155588 11.257826615526302 -1.0224945600126196 1.081689582315537 -0.25960248642282385
Ni 4.160674366809685 8.055707403025004 1.7071878539282301 -0.6333334139616511 0.7344608148322964 -1.593298487981482
P 6.319048247947241 8.420589300199685 5.111513066387503 0.2720823640573895 -0.34240460662172 -0.07456816232487803
P 3.4453818091754624 7.067667103909512 7.540959606440128 -0.00653831533915003 -1.9067416743738455 1.1565889027275889
P 8.9884007591681 6.0928336541176 5.591821534575549 -0.3711960769321156 -2.7016972041570892 0.561282104521356
P 6.741815091982496 7.012929281870281 10.187352873033268 -0.0533439628387791 0.6865837886453595 -0.05172339651622059
P 5.253612673899868 7.8541160614632215 13.135981794646296 0.3796750609374042 -0.3264946202596829 -0.8731340351671995
P 3.0772512670239105 0.8982226487891039 7.350554863106933 -0.17512066452865968 0.6836972111261838 0.978313237509715
P 0.7333031561352442 4.51568112158309 10.067525864733055 -0.13931599612522458 0.499696727609391 -0.269835991225374
P 0.8535307075945368 7.525679900122785 12.172908070506447 -0.6687362189409773 -0.0017144115879454346 -0.71234984186587
Ni 5.25769193833105 0.11825529171055149 3.3565895124199003 1.6359913988643178 -0.3214447165406012 0.17063640350506096
Ni 8.78484361823111 4.126683572918185 7.726798711506114 0.18817364105787593 0.5708430087369137 2.3494501575236506
Ni 1.0618639103938263 1.5748360271674813 13.39737035363458 -0.07960649607973387 0.4785275497309437 -1.1825539593327827
Ni 7.786826656558814 6.386254590906215 0.9553637297828141 0.2091553855158656 1.326751709030341 -0.06861580139618505
Ni 9.05940026430177 0.37584884270312974 5.977372012505055 0.7644303646111932 0.3613587791267196 -1.7448691331043436
Ni 0.635193154923299 0.10790577330981067 10.908854772543732 1.7457569350259352 0.7902920628693034 1.3939778291678508
Ni 5.371957487929384 3.7945465404535326 0.9704145542949669 -0.9481626820682639 -0.7911906634241729 0.8104533683085269
Ni 1.3769732440450604 6.149906439733956 8.580837942788792 -0.07014072268114373 -0.38820006768927984 -0.48813164847961094
Ni 0.8954917566054234 3.772082898766888 12.257493741181166 0.2953295075107881 0.5378948359456671 -0.7817274611287439
Ni 2.3281801849142902 1.0387173149336353 5.301513574919598 -2.338515769999334 0.3588444973452981 1.518600999167591
Ni 3.145555873483589 2.6297135050400295 0.9135125071219979 -1.4348385719379546 -0.3290991477620655 0.13388582624858877
Ni 5.6888295806447715 3.2325217303501668 5.0705173817646285 0.9000195467041339 1.7429721731919465 -0.37201805861277865
Ni 7.66034177187703 0.20856300751498263 10.203899735473689 -1.3762945529554749 0.776369025030308 0.41823620904005393
Ni 1.1157711129787444 0.4425429703319452 8.383719948443739 0.6826726265164114 1.0387714427957722 0.6115631121640952
Ni 4.562777244642641 1.2904780715359263 5.299635452042345 0.6127103383946608 1.1762131047164195 -0.994025248928333
Ni 1.6138013086798118 7.994278479826027 6.7550662410103035 -0.2882803139734906 0.7098584429025839 -0.48967662436922765
Ni 0.9686038038845645 5.757069583369114 0.32693458594913793 0.5366671341861532 0.5763485119361752 0.33208702674579577
Ni 4.167679257541058 5.106509968541024 6.210002680164011 1.7945443888422836 0.16997845820608792 0.13153480951790894
Ni 2.1937859572064355 6.031626229439775 11.06843522792737 -0.742727682826779 -0.26390265646007455 -0.9054636005378407
Ni 5.786944196409241 6.795196235579683 2.3585845485841674 1.852683201966545 -1.046172877466166 0.28357699496055033
Ni 3.151610166395026 4.701878315924936 12.843174593343367 1.105033142137484 -0.2492846494365836 0.6453000994052241
Ni 2.115587750135384 5.88959030275224 5.79374789265057 -0.94434819341818 1.0008754390809471 -0.1412880322499309
Ni 6.451273635968833 0.9497395131666099 6.835882745183452 -0.2321158509667809 0.592381911249954 0.6160910819414358
Ni 1.3412658366146464 2.9346892813486445 7.273222346089377 1.5162903487565433 -1.749755257552051 -1.1004519505247048
P 3.2231265014113815 5.857592995551091 1.3541635109191188 0.7593341810352083 -0.8087358713967878 -0.6467900536871892
P 2.7131261564631575 3.615095821901718 5.392879869073026 1.455250045714771 -0.05550008994983345 -0.04165212832314762
P 8.687762662232007 1.7405261500928424 7.635013415983511 -0.0042934851690313155 1.9948703489919775 -0.474679379629447
P 8.765803974517244 7.010298986931623 7.510661377478301 0.05705843557588883 -0.13811554805922022 0.7073238494061883
P 4.356248331880221 3.918096569730077 10.678682738469545 -1.372971402119513 -0.30708870492924534 -0.27429634098957273
P 9.387661072646294 7.497927981243682 1.8806544207669713 0.32412997668224824 0.6787498944232374 0.7660699570971452
P 6.03085098461575 1.348732182598416 8.974993638264982 -0.008367655238404945 1.4902944389134138 1.108777953891897
P 4.758489646288896 1.2066870268058336 1.4318328902709243 0.5757890398882793 1.4309415508763939 1.5266426385251448
