# total energy = -340887.6102841728 ev
CRYSTAL
PRIMVEC
9.08941054277107 0.00000000000000 0.00000000000000

0.00000000000000 9.08941054277107 0.00000000000000

0.00000000000000 0.00000000000000 13.30327110104583

PRIMCOORD
 96 1
Ni 6.099530876239421 2.3957596124432547 11.575868120241955 1.1776156414909011 0.7917763607243138 -0.038745753309630045
Ni 4.89942870909388 0.7001973020741515 6.081044832693182 -0.21362319147923206 -0.7875947185427984 0.5544288290449484
Ni 2.9886255168325744 1.872718561295261 5.1314313733165084 -0.4309528852757739 0.21955575491358315 0.7265654712446197
Ni 3.651452615624197 4.6557416073755835 5.254499267801225 0.3180143507028136 0.4372130072528728 0.6098322455159174
Ni 3.6543521376476256 3.237339062685531 3.105502613667893 1.182860177719292 -0.6746009052518703 0.04655239383824241
Ni 5.4177341772506304 4.724557536025685 2.577069724073824 -0.15093121176664973 2.2948224428764417 2.5730669698804847
Ni 5.390347782715859 3.223359548980095 1.1080591583115176 -0.10527741848327676 -1.7014761108306893 -3.0366705513117442
Ni 5.789672864393962 8.105936490577305 12.306404057456552 0.39563184137697666 -0.20772765193040352 -0.35439983131038316
Ni 2.520411791218515 5.366124503115737 11.735320925885878 -0.14757592214117166 0.930517458182675 -0.3249804976080016
Ni 0.6448846020071419 7.895207592172345 11.809845913416595 0.556375668358674 -1.218853050874133 1.0025834229109896
Ni 0.794605375580577 0.3418227425658147 5.0874904350159955 -0.6389839273792092 0.9631445001890767 0.027496919868688127
Ni 8.623023977696 2.663061003242646 1.5936518372446886 0.9316723977227244 -0.2026890610652316 -0.5959292622815802
Ni 1.848331672301968 1.5443181515570261 2.9447718368750855 -1.1687391649368775 0.0042358924582185115 0.32458326216958294
Ni 2.2371948422278236 7.101774750576164 0.4385640678070812 -1.7313777834861281 -1.6821226460047416 0.359657994385529
Ni 7.972094917552243 3.9416593214676054 3.5973778932988516 0.18632321811269847 0.8454879913151566 1.520352177530743
Ni 7.7430054094691405 4.102541891419633 12.930233948444661 0.059824428356800186 -0.32318406782921116 -1.2350682271814148
Ni 7.9898192684791605 0.17655544087678934 6.887941818406309 0.3498970583440232 -0.7405301609548279 0.2544407397162263
Ni 6.270293635656864 0.9697946780243839 0.3518220033118161 2.738035633576807 0.284260137070504 -0.1241475159149023
Ni 1.4484339577477638 7.072006930429672 9.574789809533952 0.24599440872108605 -0.7662872153142738 -0.9202800967253828
Ni 0.23620651668606463 5.68642624789198 1.5400797593328097 1.6119423283349141 -1.534028646576571 -0.30644001560165285
Ni 6.662192668767125 2.3454224558108066 6.986718262710415 -0.13778259019983366 -0.3650848218280551 0.80577704587878
Ni 3.5960435678034304 4.766932368857118 0.7277118573002409 0.46644130799037087 0.3944241942221207 -0.5339186249067386
Ni 6.202632062169695 5.831947713707345 4.824364719506772 0.5336579150461841 -0.17463421181054442 -0.28542638946446325
Ni 5.685989956176855 3.25325462087683 9.147834737113465 -1.3225366425077287 0.037924285849599206 1.3504871049740677
P 0.4706478698080228 5.861933679711399 12.659752172830231 -0.4197405614997222 0.478886218621943 -0.8018298883055739
P 4.363835181725336 6.453190758401198 12.780425916528202 -2.4411146132091828 0.8621217432170958 -0.8408492069915648
P 2.5380361586273836 8.877491120542157 1.7871344877272215 -0.17560454614361368 -0.2507128972426779 -0.95797606861426
P 6.526769538274738 8.030248967413998 5.639855743066771 -0.003190996133471924 1.1963283874090558 1.7479012350624477
P 4.447030558153071 1.518486046257384 12.705768223600803 0.1823341515579634 0.18868220526317828 0.8983295605962205
P 4.017310486987986 6.381184446584251 7.89042292636315 0.8147329695204871 -0.7264569706912134 2.227299874544435
P 4.690263189334781 1.3007128545353146 3.7682978995219543 1.4271319473223163 2.109652878752212 1.6385941265944877
P 0.34572391765188304 6.138297213010348 3.6786072301853086 1.86501832649313 -0.8673130576100482 1.007665208309271
Ni 1.2997221087655535 8.12011597131884 3.3581982303624307 -0.8886416438844954 -1.397126916319794 -1.7535877439242638
Ni 2.2274691727448483 6.883683429478482 5.169837769422458 -0.09324902656383295 -0.6465128887664028 -0.10359411724358289
Ni 5.928031874552706 6.281828097875459 9.402286427961378 0.0881538714291127 -1.295242582678466 -0.7732124816791974
Ni 8.612698407104729 2.7145979620916854 10.423765313288655 -0.004750370200791819 -0.6347475207003584 0.726400406421665
Ni 2.0165312178930566 5.713912625944801 7.383634650544604 0.37518334371463774 -0.8279363555846385 -0.22825379690821337
Ni 0.5161321900507879 9.525702446877121 9.773155291461581 0.506214731233567 0.33231611203746636 -1.702125314378914
Ni 1.7645727524088644 1.3332893025979173 11.956620808971868 -0.45995955692076906 0.34509320919747666 -1.2373523952299013
Ni 4.135845492340776 7.206021202258638 1.8554604971388817 0.9111714495558952 -0.23818005488298977 0.2060376658224903
Ni 5.848908554132796 8.13681321883307 7.832979668420617 -0.20892681444482727 1.1935647086209897 0.8048180243996204
Ni 6.991183890202924 1.096591957732338 4.909532498063297 0.7963308128642156 -0.5195803539071955 -0.6440767685210843
Ni 0.9718125272068331 7.848651630404305 7.003108288141911 -0.936074126334846 -0.6131996193262537 0.5027432277451986
Ni 5.4665534022908755 4.675838294503489 7.3974969108516 -0.29675852664783087 1.397321548829103 -1.3650866000547974
Ni 8.233406386679409 7.6963494641830525 8.874013511996187 -0.36741629817470917 1.7520445678068601 1.0578644548714815
Ni 4.634990482674991 0.641021602446147 10.706259654126173 0.04352723385867342 -1.145692053309427 -0.8972232149059193
Ni 8.352114090836103 7.454143936414031 4.9942076305581615 1.7196167862954579 0.21034272095574744 -0.2754474238748805
Ni 7.431711270728065 6.417160334260529 7.047049226442424 -0.7358371263545327 -0.9049576074356994 -0.6578152011530994
Ni 2.580720031423696 5.527825120033622 2.997653119571351 -0.7853442319457249 0.7238444727690309 -0.3112513209473672
Ni 3.4002394818200075 4.711377890464643 9.3298101936096 0.2062793495196512 -0.03665107556413043 -0.04446362963001375
Ni 1.5486083534224135 3.6849016471170475 4.28560898614465 -0.6808155187030146 0.10497274275866438 -0.5309978517155177
Ni 0.7221891313396278 0.3357510161970037 0.6157575853172396 0.1100378159863976 -0.3773399850463243 0.7271426839043283
Ni 0.9910729885474175 3.343703347068504 8.40957007395366 1.0089890693270172 0.7107228477854082 -0.12150673585794558
Ni 5.418170468965754 2.9883619239213535 5.11349796594276 -1.2174744253590517 0.19253037536467488 -1.1979538388276207
Ni 4.613184986329516 7.214683410685998 6.04098870853942 -1.5713636355816034 0.300575843511392 -0.15249984180535026
Ni 8.274908636080593 7.585476832077129 0.5128654558337958 -1.0073780160861552 0.4688635442786183 -0.2558149943559336
P 0.055322698418814494 5.940629797826915 8.288270978797343 0.49248092658724213 -1.1053247052359738 -0.7689881591852046
P 8.58407585271044 1.8796628710943206 8.011469335901124 -0.30523725354280334 -0.024526010165822273 1.1748126248244672
P 1.8619657883995975 3.45842988932469 10.498263032587177 -0.5578386260574457 -0.31188895453136606 0.19949266561512097
P 4.293537679125959 6.5001921012950925 4.050673169078885 -1.1710783545930155 -1.217657487904135 -1.6650986006429194
P 6.968424005730616 4.311880109982636 10.480436880260063 1.1809238799285275 0.7733909162385906 0.7125647860901534
P 6.474623588906671 8.212864318425648 10.03057376597234 -0.15213860181118957 0.6826510292498565 2.0768851974028877
P 2.7617356461465565 8.944625508206885 6.130626659293822 0.08870485883657626 -0.7711651122318655 -0.8192563113121375
P 7.387164068731744 4.622356201757854 1.6586783905607225 -1.0230283210289026 -0.9884379846485427 -0.3145207357272583
Ni 2.7500739321777172 1.9759469989757796 0.7869430023337093 0.6593758607719999 0.015528434652902287 -0.9317503021485114
Ni 1.439817196374062 1.0851393002103293 7.223410153929555 0.12684434602077507 1.9965140552429876 1.5573714350675694
Ni 6.867895123037427 1.2382595133974397 9.276929819854407 0.19230103296268816 -1.4725540842108575 0.20940144008840064
Ni 2.708480788669216 1.627549885627688 9.526871345097224 0.10537074952803144 0.07095601949358749 -0.24892109544957775
Ni 6.591395248577501 2.1007991447871386 2.765510478423453 -0.6599857264418569 -0.6368478548728128 0.22753054558894362
Ni 3.7851578474882825 7.076760692242379 10.439117328014586 0.9043372002428813 0.1346872391039616 0.027959204217087336
Ni 7.489610817089331 6.593285846009707 11.568843823628457 0.6079661388414562 -0.930579678879178 -0.509475918483342
Ni 7.724862945648562 4.204725046866001 8.249504642026416 0.8536561289482459 0.20353109735055272 0.23376752763759095
Ni 3.46013869854226 8.689922040681703 12.760378312218247 0.03625538278760852 0.4399928839908552 -0.5009807365281372
Ni 0.2470847234498266 5.042605106940453 10.316168504810456 -0.5169236330106388 -0.06277862588911769 0.8402719943318562
Ni 8.933227387149266 2.793703103690132 5.80030656600904 -0.01691400214651926 -0.9490695101532493 0.8377253166506025
Ni 3.6013154260278473 3.173958601653017 11.720900575759952 0.17093105192734434 0.13006233873744052 0.020639787737538648
Ni 1.1157160779119462 3.695927102334664 12.686784080346463 -0.3228901907378762 -0.6837249790403257 0.5851745948682374
Ni 3.2411657046035987 8.473684959373298 8.208943146635969 0.31714223251050544 0.04273430564373285 0.5486443611526873
Ni 5.751024689962549 8.267855253352753 3.66098013595322 0.615054156036489 -0.05318583999436001 0.37072685060518085
Ni 3.4681737376291295 8.648565221852227 3.990555806499071 -0.28341115880664736 0.0892447905004463 0.18718967987805182
Ni 4.020637211315807 2.7171793547395033 7.515962836682829 -2.100741692305511 2.2293336171450124 -2.4207792440859404
Ni 5.082162222445042 5.0414961988311795 11.278898892814123 0.1281782343408502 -0.3772520533182083 0.39396988029352153
Ni 8.27535401720645 0.006450754796325088 2.856664542887911 -0.7593467794406987 -0.1170589844992371 -0.7704266914039442
Ni 4.583617133219123 0.5775057091937303 1.8369953592373256 -0.5650773098977301 -0.0008235243425598721 -0.7311302077971666
Ni 6.084978729657885 6.0124906790721555 0.5062465469389333 1.3092476387083065 0.394056783580373 0.4398674141565844
Ni 8.0768231080035 9.30019416662233 11.364186651592307 -2.6527390290908315 0.6712993516824632 0.9587653972847747
Ni 0.17546289370683266 5.1512690122385605 5.779726322230205 -0.3005190221315276 0.8924905853169403 0.02729585960147557
Ni 7.56235337117555 6.600239245219497 2.714239839308854 -1.5965326786480634 0.09649144476053059 0.3988074108914809
P 8.841342534061976 1.8726367565986755 3.756790705535555 -0.03606743514651853 0.4402001149056548 -0.057348456012481876
P 2.056633698041551 3.752935886444219 1.7779560007702973 -1.7810273281924554 -0.06159283311113263 0.12816692148694056
P 4.750880469504842 1.2045559784040998 8.519202001494698 1.0101977449231379 -2.0061999150721834 0.8558006860950745
P 8.537528980353132 1.7302329586643015 12.845665162055358 -0.32310282096931453 1.3397226673687122 -0.6133757398928017
P 6.353398117977282 8.212437116121254 1.6458141475520724 1.039375137818042 -0.3051048417299971 -1.8300564657059646
P 2.0676773320806308 3.645471783362703 6.491118142561583 -0.028414803697267194 -0.42497892708052615 -0.7252567797355252
P 7.078733094371169 4.127810453253907 5.779526355194107 1.129276845176197 0.6156069432161656 1.006681247129447
P 2.2835599263704958 8.596419272484159 10.717754122937546 1.717808015221493 2.33149357304523 -0.20384297216401667
