# total energy = -381170.87044613546 ev
CRYSTAL
PRIMVEC
9.21969870185663 0.00000000000000 0.00000000000000

0.00000000000000 9.21969870185663 0.00000000000000

0.00000000000000 0.00000000000000 13.49396099159036

PRIMCOORD
 96 1
Ni 1.9910676257427915 1.9675205160448546 12.524635734685244 -0.17257064441329634 -1.4126797764527284 0.05526174868678224
Ni 7.478161905154513 0.8133627142768114 4.356390468387838 -0.35066453263766706 0.09902321004344881 -0.43209342663812034
Ni 0.7405270969652599 1.5544780279996 3.5562257523618475 0.9379147790880105 0.8834199904742398 1.4654390704326312
Ni 8.723180756563957 2.3823055270865496 10.700089691483287 0.25314104706819623 0.26856380938116975 -1.1600519215755247
Ni 0.02860872411617019 6.849203300423281 12.188136104675717 -0.3528911079753406 -0.29741364373332646 -0.03599904380242832
Ni 7.0598826284215415 7.821033268724044 11.494682021800024 0.04874863015861282 -0.0341722750063347 1.438174321179407
Ni 2.1418742323712787 5.249032447183674 6.342903563124058 -1.0301911573259293 0.9743565668548123 -0.7967126216836666
Ni 6.584782350487167 3.349995850808466 3.843606517208209 1.9933613685466185 1.922559101022076 -0.817963817752959
Ni 9.148679057139327 4.704729113104932 6.629164134615566 -0.4897175049094922 -2.008705712213173 -1.2323369442931809
Ni 6.458140573349006 3.571268612261281 11.262248815441431 -0.03734938718273568 2.929024118375659 0.9260180276504245
Ni 7.554408810871796 9.128100690324215 7.060660770965985 -0.671179024054515 -1.4563448214408468 -1.0002622309769806
Ni 5.561073139324113 5.721108664044862 4.85458701276869 -0.9121500114190807 0.04720802514437031 -0.7578043746542432
Ni 3.423458407610801 6.608624490533709 3.1280758665284023 -0.3383250372357076 0.11317636161537926 -0.5893130425166432
Ni 6.582366789507973 4.131927691290745 6.240578740499723 -0.10780429867018854 -0.7630100872248988 0.5270864324762535
Ni 8.978050098964026 4.125520000907007 3.157290324829049 -1.17284727356798 -0.22691090972707373 0.5030026520541725
Ni 4.057211255506844 8.651193351504642 1.7600312036908712 0.47126444041062715 0.6589660269280909 -0.3627847129399688
Ni 2.2670685168616025 4.12464412955959 8.412931451821448 0.8271897072266013 -0.2835649107756923 -1.9665992699614256
Ni 2.656619213399283 3.5928980246932936 0.5092454309360627 0.6797755074742745 1.3658813280419506 0.08143197932424685
Ni 6.5133204682363015 4.920626790394121 8.409733138448615 -0.5838998419208719 0.17528418668971746 0.8758380643619239
Ni 4.459245423669821 0.8360523920241189 6.5416018930594895 1.6538561949598807 -0.3076355785716508 -0.8218821789707588
Ni 4.944616445614964 7.466093319956941 13.087373855702525 0.528493083015793 0.19912756896621836 -0.5062317005144314
Ni 1.5734152885006034 8.705294541679855 12.982323690232962 -0.6051618366234417 0.05338175805525001 -0.4434103943128364
Ni 0.04231011789929636 6.1172330055373685 0.9301560095906435 0.6054230607046283 -1.9496603281142422 0.41448445530710554
Ni 0.2894579628944998 3.417843611288936 0.9339978579113679 0.5762880910118849 0.6091262205878284 0.7249317922959385
P 1.3256082350702383 7.512689675639546 5.369705391581645 2.180915887963257 1.960591373204449 1.6148044803740575
Ni 4.417489409643996 4.191846511152488 9.838230441684896 0.4953302231105791 -0.4479555904813575 -0.2881175631433812
P 3.5365748872051586 4.665075190312908 4.1027851466375695 -0.04477833265695514 -0.2743585616860759 0.11851345755757653
Ni 3.9123421346440077 0.2788885006557703 12.503584397342527 0.8903959075714407 -0.07243826046606879 2.3934342764140846
P 9.01394238481135 7.899050356532949 7.943220087598288 0.4964846484299965 0.12181809645077729 0.537378815541197
P 7.564578138200231 5.258298244069511 4.552376363055792 1.6104719144369748 0.1420907306568843 -0.10922277628426998
P 9.307285528609027 3.7641078238674095 8.816684171765042 -0.4955245985095724 -0.8148273290065065 0.3272494961478364
Ni 2.363414365077516 7.641544180392235 8.775473041914294 -0.19023797978607235 -0.8198661769819945 1.283419107680977
Ni 4.752468711388376 3.9917145181168108 2.240969394648243 -0.6310669865249776 0.507110760685275 0.2699442346684641
Ni 6.983100980197415 7.11516393999117 9.067739324939566 0.15223218996626042 -0.0577901715355908 0.26185014480642
Ni 0.28785373537396686 7.806899471086245 10.077788630962266 0.6012439896262742 -0.9851917097971034 0.81309106304169
Ni 0.8253686055253053 3.8974984202298812 12.00017872336914 0.2013006653581372 1.2051395579427824 0.6279994033432474
Ni 4.719333115360817 8.997780253526901 4.388991321908552 1.018373852976027 -0.9399618914250263 -0.38018388225302263
Ni 2.7703073142940604 0.30622214048406865 10.61488953665572 -1.2519130666528955 -0.5978617034176026 0.5986600309491819
Ni 4.934327262207408 2.2304478748411616 4.661124549551136 -2.153364717817866 0.19185828899831475 2.3104763473636143
Ni 0.18468531034659194 0.36091154741681064 5.840779427227419 2.0076569592336844 -0.06760484363316745 -0.1282409692579856
Ni 7.123968751957314 4.094495715811644 1.5362737335209091 -0.4436423078179843 -0.07327026944906091 0.3632575388113293
Ni 0.2599715234912334 8.589200099504279 3.5075521986311036 -1.756532942595517 -0.6487790590927601 -0.10162233822919273
Ni 5.492681416638406 6.474201287951122 2.091307874560274 0.4555675985006606 0.2618043791701491 0.3537827665516746
Ni 7.111844848569379 7.793088362892233 4.585989539460154 0.10763871962660174 -1.259683968847566 2.2782146591164314
Ni 5.640482401590492 1.6015169292051108 2.739854650499117 0.11422742858771294 -1.9687739090152414 -2.737441965856866
Ni 0.43109465750044657 5.896955971511091 8.456287083518609 -0.8132759253589864 1.3951106572207135 -0.18860455794770742
Ni 4.800070014195913 2.741652491685921 8.027732452925672 0.74775238973488 1.1821294702008545 0.24480887305341711
Ni 5.255772046709591 4.947788021862454 13.233661888148179 2.7790334161454076 -2.110230605632553 -0.2755258425212997
Ni 8.02028017071391 6.827684524371995 2.65635368608554 -1.8014704265381556 -0.10159225632220568 -1.1458028678556782
Ni 7.952257235963956 4.709366621397047 12.979853733033245 0.003859997176038513 -0.9403555273190192 -1.4232405826877101
Ni 7.699084318068361 -0.05859302723270538 9.800015713812154 0.31538539772039875 2.659420554876065 -0.5059707335435609
Ni 7.555017310965791 6.350141026363245 6.848792101874914 -0.5037904380627904 1.3321412554770282 -0.8124961097701685
Ni 1.8523572634070582 4.7430000811378745 2.5423161586216345 0.6917848732303247 0.662735264162536 -0.3100974098485821
Ni 8.698637919439483 1.807199180673896 13.06439375745581 -0.24149626374041636 -0.9354660604372019 -0.3581395008584735
Ni 2.7104253732258927 8.677358855546437 6.809052435887828 -1.5877369347333041 -0.4476856246494225 -1.9019149424091635
Ni 6.01515250492047 0.8176821429743383 8.422781777585456 -0.7350154017841858 -0.2701373245158767 0.08922627855768504
P 3.195446046632069 1.6311859186365758 0.9997711862532171 0.5303301362245317 -1.5160669198918277 -0.0786533881378452
Ni 4.506579355223936 2.571171048684921 12.251868191793163 -0.8448824965206739 1.121344734813314 0.9696015686683302
P 4.290607920347595 1.9004840890230454 10.257326583695562 1.3121301024624241 -0.22669159462741606 -0.4561633231031305
Ni 3.4370298036465736 5.197918439288074 11.773304995142052 -0.2609641426570409 -2.2327444425987744 1.3177520766348916
P 1.8048850363770355 6.146118320605356 13.18454394495485 -0.5911115291779626 -0.11490825670482147 -0.5251910152257535
P 6.566720961333581 2.7858609454845147 13.360613447152373 0.18681481303713635 0.20680565433676643 0.6935543064259218
P 0.5954689722853488 0.5225227185930709 11.310785917635947 -0.4925657729915645 -0.06217287398431873 0.4648729350619864
Ni 3.5983560861424633 5.874847134762598 0.6492659124135645 -1.698880325079055 1.223175846619203 2.448486223082906
Ni 5.676752695071966 6.016655315758671 10.94453339893957 0.7011331472144441 -0.13302784912366766 0.20628037796091572
Ni 8.307787245428267 1.8975061264418263 7.758420452991612 -0.5153969119534673 1.227994351053769 0.23949286015714238
Ni 3.3033626163322856 2.893547022724885 6.459963307721473 -1.227250016688577 1.0026050201775443 -1.1555473488369519
Ni 1.1428738129037888 0.6620038477145316 1.3670056028285418 0.17186770480900077 1.9612354345463514 0.7042084437056582
Ni 1.4922081850474203 3.5306281817411143 4.786104937038722 0.36359255355324477 1.232097317478549 0.45668371438297484
Ni 1.6344128130744293 5.2512451747982025 10.192488132770851 0.3992185302869705 1.0003355074170772 2.0090857212604107
Ni 6.623726356502862 1.4096273465335512 11.719977337662083 -0.12473038500156582 -2.6026266858154727 -1.143834688385714
Ni 4.724053600938477 7.896275227316395 8.325166376900707 -0.2412792626336038 -0.8759704761747302 -0.5014319651329429
Ni 1.0186660361416089 0.6955865991141932 9.19177561531162 -1.334716215293056 -1.016874385612365 -0.29245629972805115
Ni 0.3375746468422538 6.302908511491462 4.184125935717464 -0.22627404747402322 -2.755596782389022 -0.26557001686016846
Ni 2.277339260872371 2.7273343000802455 10.215251568105309 -0.5754195723640025 -0.07049116404202697 0.6622251572953369
Ni 6.75140995955953 2.8247680727066347 9.233201564134944 0.626920568456772 -0.3096019582694023 0.31030566920464625
Ni 3.6357143040344138 6.767249401400194 5.414371142420576 -0.4949016202135928 1.8206032907128646 0.7265410457645874
Ni 2.824380845374092 7.333975041972822 11.632630837048424 0.2608276170791766 0.9271487988207581 -1.1331409561172936
Ni 2.9155175639974704 2.5246576702878607 3.1550905047922724 1.0122985933162245 -0.5608385892260341 -1.1157991224047366
Ni 8.285125226776142 5.180834338164238 10.591517601227267 -0.12254160488036316 -0.11532194720347236 -0.8851506000121013
Ni 5.155314213010013 8.986015918376326 10.375236384484891 0.2518423828614308 0.008466899820430578 0.7687637018792244
Ni 2.4644530397759072 -0.46097846590448865 3.8096549778727926 0.7823779502285494 0.7383663205342897 0.6830341236208881
Ni 8.53883288717858 8.442699092025727 0.7476327185174134 1.0444916331090013 -0.5574946124544656 0.29981428275501915
Ni 8.497187509533482 2.7967770683828537 5.258178387990391 0.7320910290485392 -0.11951387379763287 0.019482277094327736
Ni 1.3313428874712239 2.023281251930964 7.539129926693478 1.2106638301951214 1.3908264280230629 -2.057256881648999
Ni 4.259224067014871 5.078956670912004 6.995444312407125 1.5510678614470448 -0.3147673045204256 1.107153016693964
Ni 3.4074345718022596 0.9051134648132211 8.541541634566698 -0.6112026435008829 -0.14386273495564256 -0.01001418970289243
Ni 1.647707618158386 7.685890929666737 1.7252701748364734 0.5604855767619895 -1.2228793984247068 0.0408363172900716
P 6.675033978064734 1.9461031566759006 6.022800244738184 -0.7462845469401018 -0.2840531632660205 1.2139425009463933
Ni 6.967860818752353 6.570556355865429 0.3439260970657889 0.6351686673981771 0.9617553331510341 -0.6101464343222266
P 3.8468914957459437 6.2688048471325475 9.898413866890541 -0.7934169816515303 1.0635797600887038 -1.287998499521543
Ni 6.7569602179926385 0.4622369547352515 0.4329644123347228 -1.5974685601987715 0.40440984467992286 0.7590459603708282
P 2.316781130601335 1.5245785461082884 5.104049924030593 0.15875533579675885 -1.1341835384491952 0.6540025122752285
P 5.7676404818387095 8.069338185867677 6.428643992277506 -1.1323089471343015 -0.8856393667230618 -0.9138322842175101
P 6.3836915088185275 8.474193581739177 2.786732206982735 -1.0489604675136321 1.1571846273300588 -2.03313376334855
Ni 8.220578118320676 1.8046822030123704 2.3605387411484684 -1.7820349435213632 0.46027348861676215 -2.1975560676230987
