# total energy = -381166.05429255654 ev
CRYSTAL
PRIMVEC
9.28292420521417 0.00000000000000 0.00000000000000
0.00000000000000 9.28292420521417 0.00000000000000
0.00000000000000 0.00000000000000 13.58649790669457
PRIMCOORD
 96 1
Ni 3.0646181007238407 6.86813838262028 7.622772335023731 -2.835836798287697 -0.1254127557805711 -0.33588686010786023
Ni 3.6640072177385092 9.074067451423371 7.842751640630447 -1.7972036808420018 0.4283072201228107 -0.12668802294856893
Ni 0.4685472321254796 8.484295443628719 7.5116213884332845 -0.5266848261624607 0.1873614295692257 0.7950694296532888
Ni 1.5119005420412597 0.19997460447820778 0.971379087303357 -0.6080730967329656 -0.28730740853726 0.27342139458378717
Ni 6.767242282125733 5.992415185237437 6.679176110832908 -1.323201015564605 1.3530358395378503 -2.6497146404422107
Ni 4.874147750691881 5.89182542123349 8.284910304821816 1.3570315909608048 -0.21274490263933685 -0.14121501292015035
Ni 7.999309081466825 3.8433625915222196 13.114924250142344 1.5586952960853158 0.6968370909422515 1.5287565995443542
Ni 5.169186922834507 6.096226123854654 2.820217278769618 0.3608147336977915 -1.9481336070570707 0.05698541624610831
Ni 7.9572295871672765 2.085640940161234 4.395122882295521 -0.7676164756486586 1.928101885217176 -1.1164542394902321
Ni 6.566313393064691 3.615726730235322 3.077953020988853 -0.24051487366375351 0.3210400249030148 -0.8994644455316121
Ni 2.8168754261449025 7.101752446935837 12.840531229173692 -0.48525586959371264 0.560578393586112 0.9251654498421422
Ni 8.461366621453585 0.7894328494430958 10.17562098138337 2.128846163851211 -1.6430243944516993 -0.23704491283728207
Ni 5.42364115143475 8.185812306697844 4.018532294893474 0.2457969479982992 0.7227836356046843 0.02185849063598816
Ni 1.0178076314770141 7.070106959164569 9.343094942344564 -0.3551050849075239 -0.4310577862847544 0.12771389310992198
Ni 3.5840533936921815 5.111205779795686 0.08181876346939845 -0.7523623777030655 0.5034726497120555 0.05381396049666216
Ni 1.5289811221231406 4.05972898312466 12.685848938976738 1.8164501877764392 0.8020083228649671 -1.2816995538867089
Ni 7.745551072163397 8.039949722552953 5.650488892477652 0.4706810571033313 -0.4080968066132069 0.636350089300788
Ni 7.391825254761177 4.559465911455091 8.119018883946126 0.6124342019151389 -2.6533679209240817 1.3666529161006529
Ni 7.734318734174768 1.4810719515782553 12.799757842274971 -0.2876977019971433 0.4846177217890815 -0.39159700918597073
Ni 3.822773066184387 4.178058414811474 6.777868445179934 0.4760202099280576 0.3249319037582533 1.1705528211068486
Ni 0.7058661113924918 4.909951988396129 8.098775611671911 0.017125603936693087 1.6265130270602375 -0.1761511626757031
Ni 2.991988503680015 8.893263941502285 3.0176158718496073 -0.11430019080717736 0.30860771267693304 0.2774842517992512
Ni 7.02395226124766 2.393490547365271 9.656929250624028 0.4354487162635985 1.0551730240822472 -0.9877396730299375
Ni 5.466788181989415 6.895801496013762 0.17380140037991199 -0.3887536261999047 -0.40939521370965626 0.15615106540469237
P 4.247801022504504 7.667583793843985 1.8482394428709994 0.3468662419374994 0.6223167511361734 -0.58770738859242
Ni 9.107699484921554 2.6377799742320027 11.288409634209184 -0.5642152190077508 0.9970321540754572 0.920546205902576
P 0.2047450990999897 0.4114860268508514 12.638934897880102 0.5360801513344315 -0.8707081993345261 0.23836594564155075
Ni 3.446573289880953 2.9078480809288347 0.6103058355887406 -0.7133764833581714 -1.0599707025812066 -0.2654394048195751
P 1.8400797527123183 5.2398299741514185 6.323889833913425 1.0791369910970126 -0.00694480674894933 -0.19012896501203386
P 3.8035017160485256 2.8769916416939583 8.609600064377233 -0.011154988175554983 0.008261725788159964 0.3259613734640322
P 7.722547986596603 4.35372846778404 10.533217778075887 -0.505743190913787 0.40707684998912474 -0.40336263436233116
Ni 5.1205908159167635 1.106738042990287 9.034001423330215 -0.2258253899723788 3.4954885384289023 -1.3801604636687843
Ni 6.553447260459534 6.236556085320848 9.697620947791924 0.7313405240357599 -0.5137915151395603 1.2904307631121197
Ni 0.53180664572656 4.910304739506516 10.788046108511619 -0.4140741072425643 1.015794779394941 -1.267483924507959
Ni 0.06427032402005697 6.235516397837604 5.919378996124272 -0.6973955345488827 0.3379846231771534 -0.19632609496168127
Ni 5.70705810278253 8.149980220221725 7.222759073892009 0.4814645208720806 -0.6177795253874522 -0.5616389736401424
Ni 5.703038596708914 4.453167149217253 0.3645422803975506 0.757725698897508 -0.43497666172318633 0.48846280656678454
Ni 6.755842851505869 7.950583013613675 1.9035498886872348 -0.3971634475301547 -0.09571857115024805 0.987560724249912
Ni 0.04155779397313369 7.638175490746484 0.11340855369692121 -0.06760947161885775 -0.5881303350624516 0.3014309924228357
Ni 3.7359962930292645 0.2991218020991539 0.4373306154410501 -0.020805881001757717 -1.2089985266775565 0.6221136339864318
Ni 2.075049123925676 8.562002800077321 5.90553444333399 1.3756250376922758 0.1913201571066576 -0.6276415057831966
Ni 6.186428295950111 0.29436801674049556 0.3457490008455024 -3.1885440723870055 0.8559757782203581 0.22733257064552462
Ni 1.3992615427404187 1.6433281794321695 7.381204661461351 0.3584997124113697 -0.5343688250702797 -0.37994914053439727
Ni 4.060629426748541 3.553169105685432 2.7844984439657794 1.5690082479755494 0.9074765172028114 0.7819182369833114
Ni 3.8852842761144895 0.7979387926653935 10.91848975596303 -3.0971794073300787 0.6596633101054317 -0.6904643546466883
Ni 2.9811274826496885 6.496004527010251 3.9775695363460186 -0.5863837846849901 0.009620296698583431 -0.13096016796136156
Ni 7.557757520502279 5.676275926939314 1.7411915486697873 -0.8153770308623892 -1.2654774356008915 -1.5960752793956705
Ni 6.257878961651327 3.2813929409804117 11.844464205605247 -1.0456414304427282 -0.1969436739410221 0.7378184184506197
Ni 7.56164706564049 4.365322839807012 5.147394330551776 -0.27994711151744694 -0.853536572651246 1.678154919606245
Ni 7.033820009414529 8.354993595824087 10.173311389902734 1.6143352540471232 0.3093469048358027 -0.561624061241807
Ni 3.719500537156708 3.3251155128204446 11.451026039512652 0.12932134680635793 0.5805296398970582 0.5302578882256997
Ni 1.5323601064436867 8.383427191906044 11.451420563780847 0.3188491878992831 1.7797654307608959 -0.23774810955189377
Ni 6.05122250850848 1.0001236613378925 11.198018090464995 1.0278743362672944 -0.9138811351775744 1.0967061103290272
Ni 4.52295617153007 8.29321573688663 12.002842027829699 1.5738964293057862 -0.4544877351729205 0.21682010114997496
Ni 7.043613494189738 0.5708283448744926 7.969798666205791 1.985974332053928 0.2726683184678465 0.14046399368673873
Ni 7.248255552833799 6.389854291555733 4.045434208522437 0.2546975929220388 0.37799741612466514 0.12675769984423976
P 1.313988603266418 0.6033547821293317 9.236617019674345 -0.47041366237455756 -0.4736152000309909 0.5716580484390413
Ni 2.067994101717942 1.4036987803921246 4.351293556829976 0.2564372013209648 0.3255777648723683 2.040875869187814
P 2.4931613018974224 5.696735491341741 11.332307653312016 0.8984172352140205 -0.8894235163558424 -0.48014863027413435
Ni 5.015870150751707 1.5590113811257962 2.1408242099192507 0.6328623878625036 -0.6432730416728664 0.1228244262281046
P 8.84112175763276 7.2376080390544955 2.3526104068410376 1.3144050145395298 0.2493219304324222 0.5170902404954901
P 7.350664769933426 0.47271990644439565 3.196332580465039 -1.4018104378383922 -0.3216714878394266 0.1729426830407344
P 8.669099893775508 3.662596213296963 1.6261408457247768 -0.5425385053652656 -0.20299476523110846 0.7904787249588129
Ni 2.7238512451663524 4.060963612011013 4.781374208660185 0.31399365957919473 -0.30114765685446204 -0.7871933693393217
Ni 2.3199976383933936 6.722804925140969 1.576346313324114 -0.29724189404215257 0.7014270243057791 0.5597309579841522
Ni 4.4641024336392405 6.520882763216469 5.849734787425192 0.7116024221768842 -0.48870320471236484 -0.8715440649722602
Ni 8.172027164620891 6.734278619152494 8.220238958486792 1.370208494662395 1.7763710603673666 0.09501331755310734
Ni 8.824793094391438 7.461697823389612 11.320378167734177 0.6598450870989346 -0.24443966263945643 -1.6074840354532443
Ni 9.174211635077357 0.768604752959554 5.750688773675384 0.7661067238723516 -0.3750208499948445 0.9133306619907431
Ni 5.023175811906295 5.883368677508167 11.473049776601927 -1.0709336293506138 -0.1306449507137879 0.7051561523309081
Ni 5.924751952510898 2.666993335926394 6.908027106865848 -0.24585839736385404 0.8074770592890222 0.30930551007490603
Ni 8.219602149903304 0.3074615809826116 1.1914326563017328 1.5897189981603395 -0.1198630296069355 -0.41671771551299847
Ni 0.23524600234729257 1.1470352158899864 2.917428986745416 0.5210983332136186 0.9407807877818959 -0.1874413908775417
Ni 9.102779535224055 4.872142639117052 3.4750727947230087 0.6268925434323138 -0.12876778829573307 -0.36284127720951703
Ni 7.549115118297806 5.930516648288533 12.195430209714887 -1.2681161587753191 -1.4049788082640449 0.40941938207937234
Ni 0.5968270300023866 3.170016419337797 5.374411020810705 -0.10674783238121616 0.699639336277737 0.46153461471737284
Ni 1.7112884657253506 2.7785276672762875 10.182522835345804 2.9646781201338426 -0.7973409992962848 -0.9362330205102135
Ni 0.7236633332038953 5.238428252633829 0.9083758824035048 -1.075183148655587 0.4081955369746002 -0.5405597843723401
Ni 3.1514412884987513 7.466153626889233 10.063505538993736 -0.25115589831736745 -1.1018614292777218 0.3117974232588243
Ni 2.9143182789272433 4.9329550739629235 9.141226621379017 -0.40785872246047183 -0.6034584807790898 1.2069239035367147
Ni 0.7253472556097939 2.444917946090065 0.2255007887766627 -2.2383101096120095 -0.8117846855254407 2.83494333993915
Ni 1.9942876854950415 4.192261288466518 2.5510143405856285 -0.9358568681177173 -0.20215632849021314 -0.6313076417808741
Ni 4.859025867565042 2.035940165292542 4.5214235607846796 0.4427925582231793 0.4155488920158779 -0.003372001796026451
Ni 2.071911495628026 1.4462424208895495 12.340778519872533 1.207089739690618 0.2147089683442431 -0.678882820456676
Ni 0.04000940225701532 2.9302570593623467 8.686527655213402 -2.3842284415451003 -1.1377440021069436 -0.08743113433047524
Ni 3.4736422961411515 1.706711984214281 6.36903733458094 0.367118050208 0.29315821089108224 0.57653414558442
Ni 7.034822565201944 8.200367931463273 12.469415710321803 0.2099233740301417 -0.056853261543618215 0.13257070698159104
Ni 0.5196942865467564 8.525177440737743 4.181978593598746 -0.3729233440358674 -1.9282101286602662 -1.285788893464734
P 4.682706009915448 1.7516042044729647 12.837609893004252 0.7786760758969299 0.6274643567753838 -1.0819029838779237
Ni 6.604243420355216 0.7111545931711046 5.6617110192499265 -1.3879658186458161 -0.4887893366682679 -0.5889086079893728
P 5.277453664951344 4.298105187430435 5.078958758551969 0.20308886760681152 -0.1895178137905962 -0.6513825581538781
Ni 5.494423446611024 4.125944079713822 9.875712915625012 -1.6298397774406255 0.0847096216342541 -1.8564539818628865
P 2.3904271824592813 1.8175686621152736 2.3588197546762393 0.5409621620170811 0.3457987199049335 -1.4040375273966983
P 4.315371425991468 9.00044458151609 5.647676166518517 -0.2900690304427972 0.2766427297345623 0.32450047264778953
P 8.123041174896931 2.449485144677177 6.670929161189026 -0.2245616927686068 0.6149646816464763 0.8413341170477833
Ni 5.040646274794392 8.337458152468285 9.548386805665652 -0.2813023399937607 -2.1369597940972813 -0.11904490458101433
