# total energy = -340876.41205888224 ev
CRYSTAL
PRIMVEC
9.19487153697503 0.00000000000000 0.00000000000000

0.00000000000000 9.19487153697503 0.00000000000000

0.00000000000000 0.00000000000000 13.45762392622193

PRIMCOORD
 96 1
Ni 0.6519283438145469 4.285039998225339 13.101737482579889 0.21842626929483028 0.7743003154267375 0.8008893787691755
Ni 6.235989446738736 6.4748630138518655 2.100869989606825 0.673086268379557 0.9104798228055092 0.3297136414176128
Ni 3.4628621718827284 4.327897294361229 5.537395291006388 -0.26554919092456203 -0.5328642155002952 -0.17168052849885918
Ni 8.508345629092522 1.2376940701488508 1.4739057219581098 -1.013662049322654 -1.0007669385275408 0.11778532114230038
Ni 7.340707285023771 5.269111927349461 7.056127850579107 0.7263376715045298 0.6192193431577722 -0.1239099459827995
Ni 3.837139416939887 6.062105231500413 1.7051751303275398 0.7124328884979795 -0.11115316053776342 0.6177237324488523
Ni 3.5906433013400267 7.814132829637528 3.298355806103533 0.16235642288445584 0.6148433255772636 0.908517556872816
Ni 1.5702541831380983 8.620660984659976 13.392193359410403 0.24025956311983784 -1.3178294668400465 1.0197041417516761
Ni 7.923027693001044 1.9910298934514676 10.308190237061236 -0.4677957651357363 0.24209250256351855 -0.8564617167178412
Ni 3.762541424330902 8.011914515945831 0.5665659151218275 -0.10980281715745606 1.1858323729737386 0.07811371358429128
Ni 5.334579412543097 2.0617568451522335 8.415563858573574 0.6216145828628262 -0.23681685598687605 0.7485468606117173
Ni 0.5009853330085448 7.315973080645838 7.47357041996794 -1.7647748708893352 0.774099512269841 0.03340557204363924
Ni 8.86065632609805 7.002152115806117 4.146683847037535 0.5952528050398458 -0.22630335805006188 0.780263732099024
Ni 1.9936596267050322 5.663231705138061 7.554625970842585 1.2668097812590697 -1.466202430961217 0.2621751322460065
Ni 1.7569928287557335 1.8480036670207072 2.553005728712528 -0.6241543185655444 -0.11851422888852492 -0.6420345412800749
Ni 4.678534524750855 4.502480319834765 0.2710767656234766 -0.4357896445427849 -1.6419424742414304 -0.04739905810925385
Ni 6.525278494373875 8.746318098797087 -0.23234612782394917 -0.6767446910677506 0.4750462760505626 2.3853718111209243
Ni 2.64204518652448 1.574235562504509 8.34624372221475 0.7595007885200596 -0.2610505317232601 1.3706625514806783
Ni 8.569068560583922 8.012640910795593 2.1488727358430464 -0.2616742813501881 0.4317445279391338 -0.8027053489319919
Ni 8.286482574283918 4.4200850761802455 9.370031979364908 0.23820962256934455 -0.5296752762493523 0.9557993726779153
Ni 1.1188963301626453 1.6018661514099695 10.661331230964656 0.16718109796660885 -0.10563094516795356 -0.16159589056934753
Ni 6.61683183005829 1.283355802097109 5.635326189574273 -1.201640800760905 0.6807720670595889 -1.9601234324290953
Ni 5.155408146183097 9.171553321795697 7.027880285794926 -1.2584791499061874 -0.17153783227340777 -0.3837086075768295
Ni 5.4312634865334175 7.353138751313349 10.551745832750292 1.1643564624881495 -0.46456568823421285 0.9779553399496642
P 6.263592451029648 8.606234231251433 2.1930945509119053 -0.04367018719444092 0.8792787146123566 0.48344195631342546
P 2.8502906366179457 2.5213165235199226 0.5619528480822703 0.8716749341231697 -1.3653326546273326 1.2733318986483038
P 7.014041084676253 6.347495653612786 4.865617058563187 -1.5583628524465614 0.055295430138195094 0.8069574393401264
P 8.920091975577218 2.34729438520886 3.5135976339334936 0.4063931936585388 -0.08315204733914712 1.399296413167287
P 7.571369831873148 3.17525578573501 7.735912977138407 -0.32294161280110184 -0.7713168073183814 0.7422725975672313
P 6.378445591135507 5.472024351963669 11.367506558261915 0.17068654001670605 0.00437833157335375 -0.06618122381276344
P 2.061802819509813 8.97382680471649 9.539302208076522 0.3149115434077738 -0.4426442055707732 0.08794586918336467
P 8.40132651951826 9.089654601203039 5.84779484415502 0.9802955580470666 -0.3890043087581301 -0.6228561685794112
Ni 2.868956225795345 0.6812848101035529 12.001226298013405 0.3168858935253252 -0.7867123159378451 -0.6454415100790949
Ni 1.8882588145175807 2.285247392219161 4.934991444663955 -0.5815359696743856 0.2505118369754653 -0.9252994043168451
Ni 4.213522287574201 5.0719003230751465 11.44460555592324 -0.542173408716363 1.2211071370156326 -0.5389271338649234
Ni 9.00156773208014 -0.2216469753279779 9.291614437128194 1.0399214972398154 0.5282125756608967 -0.575158348282816
Ni 8.950058061847733 3.471376622906507 1.697490976201652 -0.4307294564110582 1.4193289063381298 -0.18586247642619605
Ni 0.31114341825427305 2.1474162681949185 8.40101573286102 -0.26164317100193646 0.5463689348549493 -1.0214319230760602
Ni 3.128674566635156 7.379895827424794 11.377599768724982 -0.1398682690842688 0.04508223705061913 0.20588391385344543
Ni 5.750665738383327 8.321542619374275 4.709925816106342 0.7464881783104756 -2.202121575506595 -0.13194310069992116
Ni 7.529625115190688 6.951966507072007 9.309742126321911 -0.7281035051557008 -0.38001778898880356 -0.13619673376995253
Ni 4.740057410064145 1.410787526436801 13.448849399230292 0.3413825931151088 0.1618799974686696 -0.8475582435806241
Ni 5.872139185980676 3.431112280538118 6.384404787365001 -0.6898321203793281 1.2880296098697948 1.9660999617275046
Ni 2.4285402699238845 4.263992937325306 1.5944054326619193 -2.472533750950413 0.6598533146290507 -0.4729415710027339
Ni 0.7874818981642866 7.770788205311292 11.109793618899733 0.6122413691780424 0.8144915429336425 0.011392815217973928
Ni 4.2964692235196775 6.493068859453466 6.077476298213645 -0.08508551691643411 0.3812529469474853 -1.1347350400772909
Ni 4.112121244496191 3.282587520940813 2.759822295772414 0.5431979933261355 -0.7018602551884557 0.5929107871702305
Ni 7.688687197545283 0.36043528547703235 3.7394163224682626 1.334767637356282 -0.22963730751930128 0.3773458985835953
Ni 0.6922331436176067 4.584829589131704 3.7269407207954077 -0.29904063781378826 -0.49802833876803265 0.7185390013957175
Ni 7.494096131653019 0.8563459688959186 7.574529189726031 0.6423363887912098 0.48551092302731225 2.62033644439041
Ni 4.3149049409091775 8.896332427579976 9.276542203739233 -0.619694740132294 0.6361798822715107 0.059977408994896717
Ni 1.6127069049272864 6.533140109520021 2.58202014578114 -0.9949297630204735 0.6078836064299789 -0.3297257256024709
Ni 0.9927610827067037 1.7286726244865762 -0.12126104606533115 -0.1616740521054506 0.8572806130747108 -0.8519478880078876
Ni 1.2567458439299202 0.3347668821530779 6.583308247998251 0.003445278236123099 0.5971173690524103 1.6081828612924818
Ni 5.612034660537195 3.235960327483379 11.7590830345892 0.8662036265959533 0.18635741378474358 -0.9622235310367042
Ni 1.3538896614960396 -0.11063361356718439 4.405851415073539 -0.11113747680847955 -0.48225333532196296 -1.8911682454156202
P 5.470194572531993 6.398747867442747 7.749276803399703 0.040353721226698246 -0.7525760363757684 1.9323706877958593
P 9.575263350575442 5.289781998517339 6.234069557566204 -1.0268186413092704 0.1554183010037259 -1.0745743114269943
P 0.2381306214946397 3.530582400597775 11.223456023144275 -0.34040300281065894 -0.47814265558769903 -1.456605531301401
P 2.952776674534838 5.11311173720968 3.649654147755156 0.0445145374726072 0.8114440143565703 -0.5688169794458203
P 5.364747785986962 2.853389308318824 4.496919261541913 -0.011810105261050627 0.26595645366530973 -1.364604003991424
P 6.7911849837439275 9.100136754731235 9.447723126751864 -1.1782759007827193 0.16464779002179386 -1.5009637457018021
P 8.736930134979291 9.000933285945539 13.227431376203063 -0.2533971289430603 0.40516189235459904 0.42088881617155255
P 1.8135228988358565 8.724002145627852 2.2391470648995915 0.5986926839593303 0.485230415672416 -0.491402863031715
Ni 6.193950494167766 1.6170009099252396 2.48555582922005 -0.706977521810363 0.5150297584220356 -0.7147697641612722
Ni 3.0276045389317217 7.846195346613682 7.620877778576532 -0.853224440727466 0.8361425455445147 0.2982132568164864
Ni 3.8384542835666693 2.059890286234493 6.385427257077576 0.8834598425732398 -1.0286922041828994 -0.6626432186693619
Ni 3.1458873661130333 2.9322629161827307 11.92965893505608 -1.0294614782487561 0.9969123406681412 -0.7954815774900429
Ni 6.325795756835119 4.1600173302228285 2.130961126129956 0.936707903264103 -0.9702255754055742 -0.3945895161553914
Ni 1.7810833921275488 4.057420953847745 9.266946435825176 -0.6339293956744373 -0.7741771595853119 0.5378614116045705
Ni 3.8682640570214124 0.8728673140357959 2.0190071290130795 -0.6929693804567291 -0.9396160780498334 0.24574295483191225
Ni 7.313986988398391 4.182747052610282 4.628709354980169 1.5538042865416015 -0.746758915473359 -0.5527450135846222
Ni 7.023778453611656 7.734137447448675 7.082801253359756 0.5491567820127317 -0.21599529125583444 -1.1204214516680961
Ni 3.7755245829114377 6.120832875872852 9.203318844421883 0.0008057837307469994 0.05868645809761506 -0.11151157231844666
Ni 5.326304028178733 5.142002023512827 4.024865591758336 -1.723633877874651 0.9971609663438376 0.26405537998785494
Ni 5.497871135795034 6.606837004720442 13.29463853108752 0.35833387625746677 0.07386599405153085 -1.3569961097371792
Ni 4.472615377150927 0.9273395718706471 4.327527660526288 -1.568395554092215 0.09519843698071993 -0.15081139835933383
Ni 7.714727073678483 8.876305997418216 11.349473576244813 0.9052838804268668 -0.2462450912793114 -0.5032047407626494
Ni 1.8277105855849831 5.3171551310203515 11.21118270864477 -1.1643418072001304 0.3876889323808162 -0.8797026895236527
Ni 5.778958358037936 4.6755094120221035 9.352106577344546 0.18286714124329795 -0.2948530820950019 -0.18149982858212613
Ni 3.740436953206534 3.9152406555964525 7.952136817246271 0.6476431457161039 0.6347315798607585 -0.10031981736768528
Ni 8.673384377932491 2.5619026863913708 5.9261323910095465 1.1975848855239761 -0.2629981423679341 -0.574484719254559
Ni 7.309803321858629 4.933995640078776 -0.14120012494769077 0.07571230323165025 -0.24896069043826155 0.5697060669189931
Ni 5.563402985089281 1.01714588196703 10.898670174021772 0.1191112390425755 0.5437500091748635 -0.22281000018482272
Ni -0.06565689954686521 6.784822132654883 13.738080519174881 0.8585450816094311 -0.7578750799911786 -1.8090487531060457
Ni 1.8834039223571537 6.685066971578231 5.327630848138486 0.21772127280800568 -0.12849576558126904 -0.8750315093002284
Ni 7.8759499508393285 2.509685011052233 12.635323027497051 1.668580645654249 -1.0483979101419427 -0.39684283096594236
Ni 8.463474656094636 6.144417721311289 11.466931623451142 -0.5639946183565127 -1.2201879676354728 0.06333372706163931
P 8.491031686027968 5.6799479815540765 1.9656336583243856 -0.3284998236151697 -0.638651483740455 0.7027989649526412
P 0.34506329927665014 6.182962622706194 9.40200714506166 1.6890530545759879 0.46068717911541307 0.1121882866704971
P 2.464703699596156 5.789872670527381 13.139916428088458 1.079253976290851 0.5650657399335042 1.1893717535855646
P 4.653441720383799 8.744699801410277 12.126544121391579 0.3145693295770067 -1.104584998856472 0.2659122306909356
P 6.257045702510285 2.8841553484112272 0.30258115389861096 -0.3708021839278065 0.5575874292785882 2.7291604425743645
P 3.312240981579785 8.538293325620003 5.5767447436589395 0.29314201294116615 0.6050829037563902 -0.6150359012040439
P 1.955390571455606 3.1143765414278377 6.857076352514449 -1.08938926495264 0.35260725818633465 1.1011564327908971
P 3.9327017166052607 2.995045498893707 9.899980238161577 0.7077943612847035 0.07248119788886227 0.19083036195443265
