# total energy = -381172.97957165475 ev
CRYSTAL
PRIMVEC
9.13068872357134 0.00000000000000 0.00000000000000

0.00000000000000 9.13068872357134 0.00000000000000

0.00000000000000 0.00000000000000 13.36368589111441

PRIMCOORD
 96 1
Ni 7.511196682566296 0.14395808985793557 2.7252430390298943 0.761476938409824 0.14368841416130737 -0.811449670783525
Ni 4.433743719545702 4.227006666663409 7.0262521112317025 1.2912128926937827 -1.3897997865307614 0.3594227384462713
Ni 8.742798754604141 2.042370703242512 2.4834541854096 0.8783394906275389 0.08565887292140087 0.14570467326038777
Ni 6.1109507907803735 1.9269770598220364 6.73037944940817 -0.9265823847943269 -0.16684196945963525 0.2988208084934983
Ni 2.4368073231286593 0.27385035381863715 5.586074065613282 1.0501483171741464 0.32463339868122804 0.8526395147582736
Ni 3.0902359271595925 0.9012172331767528 3.575106539915954 -0.9040988589798301 1.2814568417482832 -0.2331376073630759
Ni 3.6299418037967905 7.580480348199669 4.8433071513526205 0.4779680776830477 -0.8075138260642285 -0.6523356660957669
Ni 0.4393796956611331 7.438918151048929 12.513501081086384 0.6137385225488591 -0.28771981348433034 0.27114314007257173
Ni 7.51687597091948 0.11613414227167065 7.034229593923304 -1.0566444664214512 0.5434749011366059 1.0857627239436463
Ni 1.6987828885635672 8.520493877538282 10.412797147133286 0.29559690223956187 0.023126301604818236 0.05816221016302887
Ni 5.463931930196281 1.7868027273492444 10.723047904406588 -1.9033802141007798 -1.7057073753032175 1.9696290579266853
Ni 7.267900352246467 0.7187395070236787 11.545796912216097 2.462657372376965 -2.192495108160424 -0.13375367154609868
Ni 6.233101143817177 7.547829005513198 7.890468141639256 0.06356538345647117 -0.1367142968363194 -0.9492003793041589
Ni 6.669502408833924 2.44871374115527 12.576110213301465 -0.1843180147572116 3.1188340094853766 2.6048123806128816
Ni 6.586723585345236 8.058882781101698 5.153411817607192 0.3842953333182349 -1.0394756679516486 -0.10015912342010493
Ni 6.225769200814594 4.678153993883358 10.617916241983126 0.2564791103024938 -1.0736515425024091 1.9203063004321574
Ni 3.246763323041632 3.8987401475739216 8.978766794196856 -0.7579797238898429 0.41136133629709154 -0.6675763943049212
Ni 8.993947477180784 7.796950715204942 4.221588516006208 0.3602092389033087 1.8232355861293892 1.1419706385937816
Ni 3.669477685740979 4.972344782853743 5.068939251370087 -0.09203032366538344 0.7939815959057488 -1.5124095256448984
Ni 6.603067518065813 6.124281596239615 1.1208166871894794 -1.3078101349308315 -0.9518915529830766 -0.7162242372196116
Ni 0.29517690334682245 8.907607685110518 8.483121055740186 -0.20832671896698313 0.224908020364432 -1.5012280551067825
Ni 2.0724197996578297 4.680053177126866 6.902009917420437 -1.417819925892771 -0.8152919273477507 0.411044319277305
Ni 8.73920126326788 4.370212387774878 11.419229132000403 0.37465446779436123 2.5571400142375835 -1.5028702186958955
Ni 5.598463497070573 8.948385340713925 12.746871439752281 -1.5502332813608914 0.23984381573865793 -1.7136916790602745
P 0.44156284332230067 6.4071777233243274 10.53522142083021 -0.30390156545051533 -0.8263864945990155 0.5770666210491223
Ni 2.541052395682194 2.8061710719250286 5.533996269711 -1.5724812941258144 0.387774550116087 -0.22000698351838882
P 7.2853673596735415 0.7593728977460874 9.360847766173796 -0.5685616689019046 0.4219648228445507 -1.3405276797685106
Ni 5.760743226815161 5.92315078620114 6.3147158045003495 -0.17495765658823417 1.9681923254801583 -0.8203505728175808
P 4.298910839945277 3.4399960873799396 3.6007920802155375 0.20812822980293189 -0.514306764213082 -0.08151579728730478
P 0.7539264419540068 0.7490040876916252 3.958911385913923 -0.16459662506888426 -0.29077222715740886 -0.1295684298201575
P 3.7861861483300374 0.5302921366176921 0.6331995632809674 0.0816338109224078 0.8293478912201846 -1.2096495299979941
Ni 1.1477001738426609 4.875522960189499 4.575993457553347 -0.5182248683205655 0.6998943897113366 -0.07878451439907076
Ni 5.358974663926431 0.1391653913746781 3.5346813288952372 -0.992694960152684 -0.02603627616276161 1.9979055362738753
Ni 2.0625495252047887 1.8225219814290752 1.331790379614983 0.4472397953612556 0.13855880624422587 -1.716162766308586
Ni 0.5241270956272265 1.989969680961288 9.886388292407249 2.0070553210939437 -2.2331830727980893 0.24226168115153116
Ni 4.432995003074704 1.7489377614317958 5.164864440406868 1.9269806271285397 0.5900663757429 -0.5988654620917686
Ni 2.4176054848541497 4.366039663052362 0.34005606430111285 -1.1776945743579523 -1.1985796453370776 -0.6368820505448579
Ni 8.653893239017405 6.636084088299112 2.2648371934978426 -0.43033196386232336 -0.21968276740975068 0.4034256263897827
Ni 3.555426253555098 6.373759402789517 7.059741651138145 0.28567424380921125 2.2926033237379353 1.1225639519323956
Ni 0.8197705771651224 8.971458590984817 1.4671053595772212 -0.6792407180167269 -1.00060495902838 0.9507782653142399
Ni 7.65127057746371 6.1985323565098565 9.375146424632133 1.170103649384572 -1.706652512825306 -1.1655427694867668
Ni 5.488831318201317 8.215026688059567 1.43191933771576 -1.4864655520856271 -0.01671628431341637 -0.5325091461537216
Ni 8.453976810572136 8.313291159533785 10.330863825415506 0.8910998756170008 -0.7747422880601624 1.6775417115022786
Ni 4.82255583521069 3.9796471798851134 1.357149041260155 -0.05402916183126178 0.986454635669927 0.8228509706419314
Ni 3.6457652872631368 2.1309201219710907 7.421843763234694 -0.5767483184777551 -1.7035011116805179 -0.31868977950328337
Ni 6.636339747581893 3.964919379059252 5.692115144628345 1.0882368965157516 -2.278388208579818 0.08306668671419241
Ni 7.688761185145659 2.8019983472025123 10.317246316332005 -2.283495705009712 -0.44843330144872445 -0.42118963524142305
Ni 7.327405050313506 3.854246301681535 1.4451752715279016 -0.8536774691044846 -0.6407957837769673 -0.14528275523162076
Ni 5.331893041329096 1.5421276630401375 1.7561090043137744 -0.32422022240320936 0.5675856781418805 -2.1629791009791783
Ni 4.484391649602149 6.416746685051236 2.922103425977076 -0.16722326405845395 1.4176348064651587 -0.5357155689061613
Ni 8.80012121807888 5.376122097250031 0.2086809765002874 0.19763298669856288 1.002226296681887 -0.15318041281214265
Ni 6.392413399743784 2.531163859851812 3.472460250948661 0.07399634898180804 0.5983867226831372 0.7645712610644316
Ni 0.08519662984869249 3.084227934014263 13.110163280582626 -0.6742082977991422 -1.7383508723698513 2.8464595681088656
Ni 2.5248362926030072 8.7068329719302 8.013935139982376 1.34144222116298 -0.2747917925687525 -0.03628237937080203
Ni 2.482049885492045 8.375900291748867 12.773304783453995 1.8199389176559884 -0.3659389422982343 1.340896375961839
Ni 1.2884497397017074 6.335145720401069 8.559855363328861 0.6698762460826915 1.362888306851898 -0.13715344125626702
P 5.916850611018348 4.621415894483545 12.837690747684398 -0.22064384577143933 0.33392022329979265 0.29482788528402126
Ni 6.263232416430531 7.815559058715856 10.138881052356219 -1.568453403913344 1.424927997692462 0.8967743002939589
P 3.4920501434916766 7.130255220535463 9.480359350184763 -0.5697947699780573 -0.20742091932326215 -0.372884520378132
Ni 4.734389905406282 8.888159318241899 6.3519471006240495 0.12826899428244362 -0.11477635911264751 -0.011064742454593848
P 1.4133758220944082 6.449900215614596 1.2920161866964883 1.2119496388860806 -0.2513962964629477 -1.529316585812882
P 1.5044087881414205 3.114176592854203 11.660577886426768 1.244665898172179 -0.3415854531545343 -1.1697892034679467
P 8.056673154443384 1.1643636806667126 0.46031636478307886 -0.1667460673117193 0.5596713083908103 0.7341443120331421
Ni 8.044666298841396 2.577264706950244 7.935490654405676 0.3567284794435598 0.03492303712943018 -0.12163400546442923
Ni 4.209904886783163 2.699469844119072 12.838773647360744 0.42849902441864274 -0.12727372024870987 0.5629373807365918
Ni 8.775176176630492 5.1717772847994645 6.975857101251433 -0.24113450952562343 -0.26651515438225715 0.9619831328911239
Ni 5.077995981462569 5.71655982433758 9.017186905985485 -0.5790612828816479 0.32351599724733315 -0.6671112817430447
Ni 0.6306511880729713 0.7154634159286267 12.574279510222988 -0.7097512279007583 0.4381000378435164 -1.0279805228278556
Ni 5.948269310734273 4.958676141913685 3.7302725501171903 0.7560413692165496 0.02741181635404957 -0.6582571737865244
Ni 5.440959117500767 2.8275551447918392 8.984339253492593 0.4366687047136286 2.419691924559033 -3.2241489660748086
Ni 2.753779180332475 4.888707674630009 2.7597616075495264 1.0401086735499572 1.8290743042983533 -2.0533526614985864
Ni 4.8970439933863705 0.3372885525650196 8.501616178711583 1.4620536989001658 0.8928412837881397 0.3608584424515333
Ni 7.52891934927615 6.615978311846201 11.968142395093148 -1.623090888752566 -0.7718294852887417 -0.6991407993747637
Ni 2.494485883461556 6.359369437444473 11.455592099631518 0.3132956050709056 -0.05691959600517939 -0.5808317445185094
Ni 2.803514041521851 1.254538361978678 11.738995893006324 -0.4871145200690062 1.0539399230060944 0.6179800714340326
Ni 7.678507421768448 8.169044539913854 0.4251522565744275 0.38031757961740953 0.4864925702142912 -0.052763150634644616
Ni 0.43430577196681763 0.853812523736143 6.299788041592599 0.4187884819990981 0.015027326646767668 0.6045077479792105
Ni 2.1458579286363775 2.9792341449897304 3.2302029929995593 -1.609008699627887 -2.48714070223031 1.3732382826276543
Ni 5.069276173782036 6.595288171318365 11.762034446660268 -0.7313538937721986 -0.5158900495398019 0.34545856295669536
Ni 1.8670340886988028 6.864524788151691 3.3356423596312235 -0.6287491370250784 0.7592809591997699 0.9533401125041452
Ni 3.276209794004683 4.1590926043306435 11.11453713798983 0.6395251445946599 -0.022962779443760455 1.5591565519924504
Ni 7.700905001077707 1.222398337857767 4.93924512335354 -0.321150325228634 0.1343491390382525 -0.7789252157932585
Ni 2.9936241103347743 1.5870323899227061 9.529697939485828 -0.299392107615936 0.310939189023587 -0.23314480645192753
Ni 0.42867761547018995 4.098556138443814 1.938415986588706 1.4154835644501107 1.2372305249400564 1.4705105714182676
Ni 3.201602936876284 8.43367015896847 2.255883640187341 -0.061821404182170955 -2.0096881307311003 -1.7602291605001814
Ni 3.614876167490113 6.265359866890807 0.4336766675174055 0.4898599440246273 0.9280047190631503 0.5598127190646811
Ni 0.0517554825922047 3.0681579219538078 5.597767738593864 -0.4322042411843718 0.2733586596666518 0.10273254057423598
Ni 4.100747503724785 8.902549283586945 10.510592301209828 -0.08248227496563214 -1.4231372243406264 1.6607341530266366
P 1.230488128020019 2.479968088475122 7.585375310396039 0.6617962972880344 0.5514198670152954 0.3383291510007657
Ni 0.7156798132501226 4.121072416705792 9.112230070496674 -0.11452439100284145 0.4850725499383129 -0.34834591180681945
P 8.503401228346707 7.369424479576129 6.935552415321171 0.4009735653048643 -0.4320993401753913 -0.36731833914426415
Ni 7.896256085187621 5.878821292704827 4.987648730134726 -0.018401642435639277 1.4760932077123674 -0.5142090622929532
P 8.119757082469343 4.122259406232986 3.8741329416063492 0.5078746354344931 -1.385264617664569 -1.4027494047128939
P 6.630651328540038 4.469837331861032 7.807907541609798 0.3777266789617817 -0.08197036832622012 0.9344985543176099
P 6.565330381789755 7.416073167994804 2.9467325455974587 0.9594315701138638 -2.3936687610223935 2.2846794409051685
Ni 1.544218590745731 7.352185739365821 6.123494530876199 -1.3325814283382404 -1.1157037344774525 -0.05723815568686272
