# total energy = -381176.83995707665 ev
CRYSTAL
PRIMVEC
9.11270878176892 0.00000000000000 0.00000000000000

0.00000000000000 9.11270878176892 0.00000000000000

0.00000000000000 0.00000000000000 13.33737042883930

PRIMCOORD
 96 1
Ni 8.675854668741131 -0.5029431573863011 7.340542107702874 -1.6943572403977205 0.8725892184073231 0.6192262851363077
Ni 1.0848953227551994 8.464494500446472 5.732028713798033 -0.6889772285782005 -1.8511305127674442 -3.217378994340827
Ni 5.8331633787875905 4.951618153277167 1.900668661110172 -0.6977847995675014 -0.39598511095133737 -2.206399891166974
Ni 4.808557737563713 0.010979902853248048 10.69669079847543 0.3284540579788988 -0.979872868687351 -1.2032107163511858
Ni 1.476012785168185 6.5141743340776 10.812752991777632 -1.1607571751726655 -0.15087773282089498 1.1624265924552883
Ni 1.4890986350289734 8.703019653723729 10.03289010505665 0.7530102956997097 -0.3277583174634549 0.4125926376010314
Ni 7.803841336652981 2.1636213416414893 11.776617872383763 1.1257369503437389 -0.6642884675822688 0.07440104061939445
Ni 3.2482797339674545 7.574401554065979 4.427260130171608 -0.4071748090195697 0.9330538514512833 -0.020234581879319993
Ni 7.308383358288721 2.203188723323623 8.040153924229543 0.9899654770366628 0.6701089309187879 -0.966610604360806
Ni 3.0075948687006377 7.02238099207643 6.747468792494069 0.9466117926413761 -0.47074199224825386 -0.55721539065115
Ni 1.3484895379872128 6.8753565480277095 8.440487980339743 -0.19144202739650254 -0.7820203097788144 0.4039401041323559
Ni 6.690487024263211 9.317653637992859 9.206506839826387 0.38926090485362635 -1.5520384528904303 -0.23303810567073416
Ni 5.470450229756275 2.678051979762129 2.455556992564338 -0.007630777072380406 0.6352182896891898 1.6019782751436669
Ni 7.636969412801477 7.874537731652979 4.9081787816188145 1.4567924505012266 0.662897243661697 0.705307847417424
Ni 5.417815223630986 8.520902168021877 4.593016658463948 0.5535106881060532 -0.4866352664397426 -1.2030780474280633
Ni 1.389806559762154 9.06170498545806 2.74496386679055 -1.157043216656188 -0.39576579585167965 0.8969357655724876
Ni 3.5274475685672173 7.356161290614707 11.556471230248036 -0.4543077579516305 0.07794016412090449 0.6272075035695714
Ni 3.8789429730451688 4.181794737859548 6.1021668979732 -0.5558565626304104 1.9882960382085695 -1.4940068547679946
Ni 0.10032727898839712 4.349413903834023 11.994470845710323 0.26171361922855574 -0.45037628410770825 0.817263963472457
Ni 2.371819399976752 6.503649155394306 2.40835589470645 -0.43189210926059163 0.5851853935015148 0.4950067783328895
Ni 1.0435418501449913 2.3630985376391656 8.045462077115275 -1.014411525894169 0.6513059392796718 0.5520454164144364
Ni 7.599990040423287 8.4077223245184 2.404154024671067 1.684818704779666 -0.2016397938651108 1.5533486870614217
Ni 5.457974931386205 7.914606312320032 7.569090667367603 -0.5687778986777688 -1.2682035762828028 -0.5685063901839371
Ni 8.783229716728368 8.902378384506788 11.487717664767759 -1.304470014814005 0.30727536701875463 0.44263700648192156
P 1.6134142087064651 8.433948700492875 12.482685131836186 1.7514658124852547 -0.7810011244856808 -2.9246506718983114
Ni 5.635618077059055 6.356788740104285 12.08905894068596 0.4032829301643313 -0.21710677915245835 -0.7634525740789562
P 5.816878968132137 0.3521004883433807 2.113413049874089 -1.433435263832525 0.32175967667785876 -1.368074736148844
Ni 6.759652484182004 2.8198366162412447 0.5291112120243516 0.08670479768741197 0.537124790548862 -0.3284460875590989
P 2.819207839332892 5.096637801386213 11.84851987876021 0.3724314920011134 -0.5483371143249137 0.35832076363134413
P 1.827489964228503 3.3086058663340427 5.521670943473211 0.46454254830576125 0.16946089513972104 -0.8565743310363055
P 2.4831038000463557 1.3272113629002062 9.53747404515295 0.404904010707522 0.9370696574788958 -0.2008702626889379
Ni 4.249274346647249 0.6545877448050917 8.26428828774346 0.1717275796867107 0.12924575637341612 0.5472595649900188
Ni 3.190897006548662 2.934182886473261 3.541711691678006 -0.6566939430644626 0.2368942461920307 0.24032178381634095
Ni 4.877249336624035 1.7528568790196877 5.076977132114171 -0.5625545434758763 1.4619750231434308 -1.6535533190074814
Ni 3.172689814332885 0.7626590037459249 12.148130253048489 -0.7848708918537322 0.8589196913400303 0.08137567216501468
Ni 3.7759693634164 2.885138287621754 10.955609282813594 -1.1460185834109102 0.04050155965847218 1.828978145040121
Ni 6.874345037349054 6.243453980550923 3.236899783197153 0.38227393201283194 1.0383479821051087 0.6406268622992709
Ni 8.822104532540433 3.966051356624053 1.1165683647894216 0.015358484733941288 -0.20057998514202874 -0.4859768069201372
Ni 2.8016932129871845 1.8028036360440487 6.7836398676002165 1.9151928904649922 2.0616915203815847 -0.5926112536519407
Ni -0.2601878846763291 3.4987516485034127 5.984864465001045 0.5603696200094156 -1.554987508216425 0.2795082242078154
Ni 4.152615844228458 1.662905330289991 1.0066244441867556 -0.9837724608520734 0.4935826442918531 -1.2552362174888574
Ni 1.6284592909628455 5.3876430447388755 0.46918603884569854 0.7501489149915145 0.13669321379039684 -1.3503832324063518
Ni 5.193323641931454 8.892864716502148 13.263894876920277 -1.156859382780156 -1.1709390008016738 -0.2728439248137624
Ni 1.9620391099071546 4.56904841173425 7.408802675636167 -0.41039331595686734 1.011258067866852 -1.311420477989909
Ni 2.280901904112485 3.152204444912932 13.154608893894178 0.6467640855452603 0.15614540897773752 0.5754715086478606
Ni 1.589930758085816 4.575846492511513 9.639518158482412 -0.051012229381808924 -0.6571441432280037 1.06974243725599
Ni 6.259547024321225 4.360121336693651 9.138966175889614 -0.013793711349982696 0.47053861798819613 -3.1308513456612275
Ni 1.9477048189384774 9.048455106838572 7.601581119382683 0.32024349714364847 -0.34478647659033523 2.721389026159062
Ni 4.196602889686694 4.950360599460461 9.993611596244005 -0.3543419814892543 1.8049087627957432 0.4355399904258241
Ni 2.1265599548839496 5.613966280910565 4.82331303567972 -1.920873742899853 -0.6105835218596452 1.3482844408957941
Ni 7.251383364640231 6.328320637760898 7.521836715798578 0.6676877230718049 1.3426082164466233 -0.4506580770141852
Ni 9.050623931536949 6.3758889777841 1.6289996745956763 -1.3125350512103267 -0.0689202200104813 0.15699978655823285
Ni 4.020891638282985 6.54736281958804 0.5395243043892007 -0.08023333103045537 -1.269907446347787 -0.7553875376826346
Ni 4.140587068590407 5.445290040713352 3.8166083996553786 1.7637911668198272 -0.8080190478354213 -0.514980650351655
Ni 6.216307220985959 6.777404040956946 9.531792271205731 -1.484687377139282 0.32926626946754906 1.730980033827077
Ni 1.3535653167981176 2.543630412006911 11.09689272030779 -0.27833811515911416 -0.781047404342584 -1.4311654939617418
P 4.870733749820091 5.659620952082257 7.857845071642539 -0.5352897942226523 0.751019490521926 -0.2930391688147147
Ni 3.4008629303943656 3.0913315500173417 8.764706313516651 0.10893609828178659 0.10200157594548241 -1.58402940397473
P 6.649908131902424 8.191678223891953 11.428365680973677 0.24646080683454327 0.20466186852088622 -0.020135080186978228
Ni 6.3657829837063735 4.038962139866511 11.304208668429595 -0.45968701998567285 -0.1247769219687851 1.4885340045788815
P 8.434486350313062 1.117609947407171 5.689295577072976 -1.5922939579763673 -1.5668492926510176 2.2004354460534232
P 7.932540123271308 3.238310430521979 9.960908818113497 1.1515456838767266 -0.5061499394339025 -0.8579874093337482
P 0.2966824609454699 6.2956060131089275 6.719794407088617 -0.22778045681622064 0.0350770462087912 -0.9439720410256839
Ni 2.91018001145006 8.590094966067118 0.9788233921287512 -0.3748241606030061 -0.21216589020741522 -0.8708519240012421
Ni 8.863713160997508 1.2138310398027605 9.616658017144825 -0.15860081249676558 0.11193966099480075 -0.10005087997701478
Ni 8.656152992279415 1.5367216513050748 1.8680852594651611 0.32050857787957704 0.3755515256873339 0.005489562359661513
Ni 3.466310405115942 4.300779376879267 1.6321736310765347 -0.2775927523526574 -0.06271074876565973 0.4729749953438306
Ni 0.7266647151908212 4.613372627418704 3.2137325435724438 0.8986082681789039 -0.6024647494072527 -0.5351072458982009
Ni 2.2009196588282633 1.0806579131554315 4.756159661867657 1.0179815026336145 -0.25427464645200726 -0.9288544686579552
Ni 5.865367691745826 6.357736461821223 5.610578175772513 -1.082645261360587 -0.6521767719203992 -0.3892017694809168
Ni 8.698171692633242 4.701456070840976 8.106880823268984 0.7428948045322625 -1.6209463316057373 -0.15212394652317027
Ni 7.64591809285948 3.707250426229627 3.1985680848305647 -1.4499813411166642 -0.19602758988465596 0.6596707663045994
Ni 5.588742302905924 2.112362354547523 9.725650570947028 0.042118012215972625 0.9946770235797191 -0.9709495980557924
Ni 6.291004095156492 0.5428194598973213 6.509663543213331 1.820624373758787 1.081043464091106 -0.19189685554573402
Ni 8.259121381844388 5.424695318787598 10.20254140509725 -0.10206791040704356 -0.2024635753179868 0.6623750526096399
Ni 8.377550145626287 7.490245688143706 9.382666436503879 0.8997644932705343 1.5038899182096614 0.8673701361002287
Ni 5.113532763532383 2.7940385375811525 7.0691528813490505 1.5715320428386677 -2.1818391711084746 2.5538376893372274
Ni 5.4920929131959495 1.7817897295127265 11.97434451701775 0.2580719087109104 0.1676888908409628 2.0924018049812485
Ni 6.76914792676901 4.254477703381588 6.598757586043376 0.24206139221526699 0.13538272250908942 1.1814992928160235
Ni 3.6354331680451732 7.381394381328164 9.005952521646577 0.09168091074576469 -0.15290093389851087 1.1169933998231536
Ni 8.328842717000999 5.4431850049766926 4.8617650218026895 0.36745872137687036 1.082853263606335 1.0979672364296382
Ni 4.716182208288772 7.509755997720272 2.4677069672296503 1.3711258642703417 -0.8685713554971816 -0.23560483795664586
Ni 4.686456552128679 4.092307937279503 12.948586039153462 -0.44327386873497204 0.1941267733175173 0.3932376301131873
Ni 9.507562489732996 8.461961167395428 0.6551427087720291 -1.7433102732576558 -0.5209386677073028 2.387346418348792
Ni 3.6870748889094416 0.3552170347586938 2.9927593787470417 0.533965418984274 1.7303053763575555 0.7469275798407395
Ni 6.8519733372040434 7.294413575672713 0.6303552295197095 -0.4262439098358788 -2.9561348585495217 -0.2604733190635514
Ni 6.845813146043951 1.263796022244755 3.6878631382220863 1.5300478075519521 0.2746863773391398 1.6848228185447243
Ni 0.6458714388219133 1.4693696204408069 13.04944367779499 -0.05679772571533444 -0.01321341336648047 0.4156669056509809
P 3.8711607197157023 0.06187893794895472 5.861214119067172 -0.7468116230881654 -1.3074841190499806 1.6772992564741693
Ni 7.370486468874567 0.3227502757865367 13.582111580070503 0.49829341950396117 1.8106821749444104 -1.1197722481198715
P 5.898747544141417 4.1982431772737 4.775378364762089 -0.712209973853896 -0.24017805914962503 -2.7368015040593896
Ni 8.64786953996503 6.689721556722608 12.326424046130851 -0.20163130922467856 -0.22870194018922546 0.48650388306820086
P 0.35929041559976105 7.049108567035827 3.5999564813508584 0.20236175963279987 0.4141324712843255 0.5974932643345903
P 7.2151603470938275 5.039018143538185 13.024862145761928 0.328796271809666 -0.021836379148801103 1.2466883279188463
P 1.457003674576538 2.8042356587470456 2.1133064311809333 0.05354245200283037 -0.04167655380317984 -1.0350225172763012
Ni 0.23037110142806977 1.9504750824187558 4.115538965865929 0.09119291536575262 1.6335959020489481 -1.871960305028602
