# total energy = -340893.91409812146 ev
CRYSTAL
PRIMVEC
9.06990653463313 0.00000000000000 0.00000000000000
0.00000000000000 9.06990653463313 0.00000000000000
0.00000000000000 0.00000000000000 13.27472501364352
PRIMCOORD
 96 1
Ni 6.394093486303592 1.745993245880213 11.445494367091122 1.245973818350325 0.6725748759607773 -0.14386582027943612
Ni 4.435465356699322 0.2007750742223681 6.170224616613805 0.8508831941887991 -0.06868984916723009 -1.234190452562152
Ni 2.7806065295044586 1.6199578276824018 4.903086144709673 0.756262226978104 0.5432180479307934 -0.39991401369209834
Ni 3.563992478020675 4.257051229513864 5.0350632585365425 -0.6608501313246812 0.6501173182882093 0.0612858433936751
Ni 5.088525821329216 4.5919937999389475 2.761780124959755 -0.11154653932144014 -0.16412662741100123 -0.23851686939711822
Ni 7.534017452188545 6.050434735906711 2.6475646086758324 -1.479433327829194 0.6124174897445904 -0.44287843306876634
Ni 4.864027500140945 4.583313899592423 11.486672648766415 0.4554986929359381 -0.042940251006951854 0.01163861268019286
Ni 5.760950535948482 7.72069426402989 12.1826927246725 -0.7972270994262399 1.0009852251859341 1.2964386598690962
Ni 1.811568668560853 6.581405191587213 0.45253299885001225 0.7698016562254355 -0.11110122425390544 -0.6239244619429255
Ni 2.9329174663061166 1.848455977557003 0.3494916071501207 -0.028671399792763525 -0.7560670802481624 0.4639848760300783
Ni 0.6414763802802788 0.165346206162186 4.669410892308639 -0.28763136753558205 -1.4197179142464325 0.44550301517580687
Ni 8.561492719540361 2.341260267450488 1.2514865345708002 0.28385236010912407 0.261628258603601 0.8151361184961768
Ni 6.800751805986742 0.7698672531489283 4.766740963999955 -0.4387800946296766 -0.0981631760359987 0.2872089352861828
Ni 0.6879723480299375 7.283660828087064 2.4897672855422903 -0.004429239415947211 1.555774522894095 -0.08811736176422243
Ni 7.864542978236662 3.7944950771915997 3.641257195964221 -0.2896568826060431 0.0639541342544576 0.3529384162735083
Ni 7.544574823142939 3.884985532528356 12.636568976648237 0.7781471999766535 -0.7344726419068383 0.4731351750707787
Ni 8.022713074519883 9.098385824046652 6.720820535585644 -0.1805374646688568 0.3686686825245715 0.6215464486290522
Ni 6.892720656053367 0.48468037480426684 0.6178565302464027 -0.44457073316952467 0.03823256111863738 -1.5294088884163726
Ni 1.8154324486524096 6.61081889777716 9.057530431036287 0.36645830513681404 -0.5824039741016357 1.050894194201235
Ni 0.1241225749553012 4.79887836305726 1.3214526989000845 -0.6665376686277618 0.457461987309896 0.2633555257073529
Ni 6.494878285311514 2.0317950638732487 6.911684923174107 -0.560676352616557 -0.9925679476565165 -0.00878957326717196
Ni 3.580907853304132 4.306509428667049 0.47184917833589873 -0.9256701573927026 0.6697656886467561 0.3642844374139468
Ni 6.018944021169895 5.582436639793523 4.778077439907083 0.5062818370260764 0.48721967818830286 0.43444495758943247
Ni 5.322030559491468 2.8111630438904998 9.188897140167942 0.6593735467791547 0.7498349832955216 0.7195725848665542
P 0.12582499637122874 5.629645502179793 12.519007571923527 0.1406678821674287 -0.895195385842613 -0.8057839878573155
P 3.7936515759040064 6.196188130440304 12.620187818846922 0.37591996477034617 0.19247561086733947 0.21990182539909223
P 2.3629192037383677 8.54996486860992 1.4042264779413096 0.7521615745461692 -0.05607910238175503 0.8246923947260443
P 6.272774419391248 7.913221165446481 6.028119138401393 -0.25087410541089056 -0.25720750382808605 0.202729941605496
P 4.92476866275398 0.9096209046530284 12.678955369845117 -1.025136368510841 -0.35000093091173917 0.7919370546718942
P 3.810412762780054 5.991979189685863 8.11947174211315 0.7070775377233371 0.6270360109887138 1.1895208775689192
P 4.712142848936242 0.9650743118825488 3.7956424203408536 0.27448685973382403 -0.2610111938448924 -0.25740702143340183
P 9.316698469125907 5.639685888474048 3.7515962342877422 -0.5996334506060447 -1.0176346608171571 0.3522884413943352
Ni 1.6248374372815975 1.2701768905207302 2.7466197765488714 -0.24334000181737445 -0.2680267059307771 -1.8265659360542028
Ni 1.820176009656832 6.484311844450802 4.8711201668817825 0.47425746160068 0.9937336858298433 0.6202215591700415
Ni 6.004649848812399 5.458505439861535 9.359198236151764 -0.6851858798565684 0.13608694766496562 -0.6820887289884834
Ni 8.724850802237595 2.4521308022842567 10.520471854519144 -0.4113459096781238 -0.2942450161973577 -0.5285761296479027
Ni 2.024348670786001 5.228655873945522 7.032564099630017 0.9721117366846936 -0.06607015215619588 -0.22532299641466355
Ni 0.7758769730753726 9.058296838120176 8.957478480458876 -0.7604700944118644 0.16126601803375454 0.82849479919127
Ni 1.6076499648085942 1.2234487331693256 11.614136577209344 -0.9421622415104549 0.6018877938578602 -1.2586208176903741
Ni 4.064107112406636 6.650091592134998 1.6813103019812845 0.05771689509549415 1.0202103919641332 -0.05392348949133294
Ni 5.518892876128161 7.773444839176586 8.182593755134716 -1.5901046636345324 0.5451353195581644 -0.03523362639131351
Ni 5.326792260308527 2.7614418174540862 4.753718392508273 -0.46021718145753004 0.5661114075891993 0.014566070739632979
Ni 0.5555190641213628 7.55286471751778 6.98061983915501 1.1760506109966262 -0.9486254806372952 -0.3201823048884099
Ni 5.424057935664984 4.764412719048071 7.023908688030551 -0.8374003292110158 -0.07285092252345518 0.6529645579290174
Ni 8.282003556344797 7.0558066415610545 9.36206614052958 0.7462639781148115 0.9417652631823524 0.8124341461839815
Ni 4.540658130177893 0.39247389319210596 10.274902326972413 0.6954430388082022 -1.4333984970573186 0.37137348305024426
Ni 7.949255903248719 7.35881407183973 4.859119773832162 1.0397690308223513 -0.5171750868998125 -0.43392430919927205
Ni 7.278110045420321 6.473391677243679 7.413495630041571 0.2569917882728542 -0.9427816202620085 -2.2241219910370855
Ni 2.2483934966583616 5.302911196972687 2.801006562795371 0.7281821809124362 -0.45095092566425565 -0.8828288938574602
Ni 2.2834668243908705 5.216674527699169 11.218363959089304 0.258583044019374 0.46066661029012274 0.4998337674078876
Ni 1.1558870010049977 3.3363287595273494 3.8577540457985697 0.08997909756330956 0.4404811364811833 0.09837709181901767
Ni 3.7494992719469726 2.6491110277030865 2.6310900308394403 -0.40900389180850855 0.13287281160304212 0.12001369625218684
Ni 1.054739405744348 3.3944849988396952 8.415817326201104 -0.5819509457246171 -0.11399011576592626 -0.6331650067045871
Ni 4.087026765672746 2.661935875237032 7.1376598251109815 -1.5134752479052516 0.6259533194474962 -1.159880428994667
Ni 3.9230519293458728 6.719984290223104 6.1270418856421855 0.8760504374830461 0.8237896804061167 -0.3260325930215998
Ni 0.9511973552156914 7.381425348291022 11.448361364478307 -0.30496600215928765 0.40372824523186596 -0.5034070865814427
P 0.1209181770530785 5.546955166276694 8.047934670009553 -0.243664989256961 -0.15308811020865248 0.22851090722434195
P 8.689940732818815 1.6348596837632166 8.069545535793946 -0.4418268518758004 0.6003888407148306 0.05619377358274838
P 1.7424650523224303 3.2442782803038615 10.492116606396534 0.6843016774794021 -0.24493280022579103 0.3550747458902207
P 4.070329068140926 6.211797439213941 3.9662219624486448 -1.02354716964685 -0.348724892412793 -0.8680226820825632
P 6.910406973373871 3.7653353283785633 10.479917582398542 -0.4664346231221515 0.5877562395524846 -0.3581112187236994
P 6.424885818253906 7.78151705579979 10.144929662441868 -0.6087426119961645 -0.4172309077039912 0.16356741247342152
P 2.3545476802066623 8.53407439274042 5.7986786252603295 -0.5859572386705327 -0.48059497378293364 0.1026291822271523
P 6.832351359599378 4.014394955876541 1.6241227286637228 1.789729998172776 0.2108489711682046 0.2576700452868014
Ni 5.4274319408153575 2.932663508929207 0.5089460021679991 -0.426372207883627 -1.3538861033532876 -1.0870354200084826
Ni 1.639938831301413 1.257878097553241 6.956512935151847 -0.6690028423388027 0.7084232531179541 0.7957088630095006
Ni 6.840741022943719 0.8563787405838867 9.130926833935117 0.3902039854931861 -0.6815719372530649 -0.34578817838197223
Ni 2.8888105118806737 1.8039045977219679 9.291112263402244 -0.8796795495952011 -1.1274449341737809 -1.000709088706412
Ni 6.451388084515709 2.0300264321411983 2.603518422622721 -0.5129798178715423 -0.47925157238116173 -0.09705014547747802
Ni 4.075362866147532 6.881990956878927 10.53305634953566 0.3905387431247855 -0.054489389297131964 -1.0560747099609102
Ni 8.156340004306033 7.313818266595103 -0.02819652476204342 -0.8994433624856897 0.17581974747821333 0.9652180948886537
Ni 7.568383327228233 3.7419984594218154 8.034022340708054 0.9873498937906867 0.8503897994921482 0.7628517072701636
Ni 3.0009780433179456 8.619367791756844 12.254813898742988 1.4428424160790376 -0.9208310841328464 1.485601661423435
Ni -0.03851354319900443 4.979986252419227 10.26746863175401 0.25474695810273545 -1.0126045545924174 0.08726452684562391
Ni 8.70312837660549 2.2116150265380305 5.649974790201422 -0.04233321355057225 0.8699975464207469 0.21074227038701127
Ni 3.8834255086416243 2.444031375942097 11.35221310158025 -0.24700382382220687 0.5263467260967517 0.7971939321954594
Ni 1.3294124486849435 3.558133318539113 12.713442781629468 -1.19852436661911 -0.07711226890297042 -0.07926119692517317
Ni 2.893554072885096 8.440309701222791 7.912851113268698 1.3094057615527255 -0.09382161123785132 0.3420819331749786
Ni 5.669770767731542 7.873222878583187 3.8664357601263584 -1.2378249639909455 -0.2894825618117079 -0.6132772666417244
Ni 3.1093997034457983 8.491935607986028 3.6771250474902044 0.0734726152678541 -0.8443441075187007 -0.3580250867677963
Ni 3.387646289475767 4.206595340665675 9.145581988564077 -0.11489977206438921 0.23301290885975354 0.3451052933823347
Ni 7.079134440611485 5.910286543477769 11.429405260273253 0.6354381190094799 0.3458555412847979 0.016354787208939577
Ni 0.5944552649547956 0.06204904310412102 0.3792127831642548 0.03021868967522538 -0.4501597972215279 0.42964727909047296
Ni 4.497050020599952 0.30786799307460294 1.648919852537702 -0.058980592299266166 -0.5432620137948514 -0.38685795183908855
Ni 5.929913820750369 5.566283136640795 0.38366882813839015 -0.19209560182010144 0.7207879453308942 -0.1990164973096508
Ni 8.054838682698973 8.862577329679576 11.041544321434587 0.6089750397219447 0.6636289796213991 1.0856809628631174
Ni -0.05351607523995142 4.856853204243243 5.939417268590588 -1.1312511952937485 -0.39150727768564186 -1.0036982532417231
Ni 7.634158287847873 8.783016111456261 2.727212897999803 0.8389741014560389 -1.28162576322598 -0.2698822710822771
P 8.54794227950096 1.4875009158113 3.451016817930451 -0.10920477856214096 1.4764210233654314 -0.08882930022958249
P 1.7495667889695865 3.4445327419035645 1.6014098692616674 1.5803735523896976 -1.4690231882394635 0.3558800154003355
P 4.763415029353069 0.9375199364878345 8.151995519179613 0.5000548822797583 0.0985861225060302 0.4648477382510059
P 8.653824365859712 1.544478067302279 12.535840411059489 -1.0465199763929396 0.152697302528137 -1.0042749516807994
P 6.189857335830196 7.502789764734956 1.450715189765914 0.6229137612902239 0.8381559764301179 -0.12638360433427268
P 1.7438436780827977 3.3189870986469363 6.012587830822094 0.6192172862752433 -0.6712862390563407 0.1826326566349887
P 6.877102277373414 3.854782744488725 5.75221712315468 1.6016792558460093 -0.26156655212773017 0.39749640538954123
P 2.539573769098095 8.457234146412565 10.12364984823809 -1.0269068301477025 0.6991662532960604 0.660297858365637
