# total energy = -340869.1041554813 ev
CRYSTAL
PRIMVEC
9.27764256134517 0.00000000000000 0.00000000000000

0.00000000000000 9.27764256134517 0.00000000000000

0.00000000000000 0.00000000000000 13.57876768700692

PRIMCOORD
 96 1
Ni 0.7486621665376723 6.22878669168336 8.468385534249917 0.6358862622904919 0.8266950269783698 0.5705987539365915
Ni 1.5656578831261723 8.261072895519398 6.290894015671909 -0.12475121093717226 0.5995519466358319 1.2797172333493574
Ni 3.942747680472273 6.313083353882538 2.4760070967849526 -0.006430586116692151 -0.18582930919541543 0.7239655717279273
Ni 1.6358896388875388 7.0984636472071 3.370712349206637 2.623691476905572 1.7843422514983012 2.385797842914749
Ni 3.4107769217403074 6.526014533073966 7.855574963014505 -0.8450128514509512 -0.46890545326014726 -0.22944987409884354
Ni 7.678761647122813 5.977195575073488 9.551997509912692 1.0483300330184848 -1.8423530236851302 0.3251777012204722
Ni 5.23746128417243 5.427142690584732 9.332103459823127 -0.27318716708579405 0.08470705053109283 0.37151849326854086
Ni 4.594158812212407 8.070287449617583 9.387695095295003 0.8276615046566973 -0.009382983876796744 1.064842428851211
Ni 6.805420022705315 0.9529901875894031 1.6516263765523245 0.1985508705271419 -1.365110254203881 1.290835711860022
Ni 2.4159074546916166 7.8398400808782736 11.842600193601854 -0.454680567910017 1.0123271325613146 -1.372913552298384
Ni 4.577273502372818 0.5288710982828412 13.253596988475884 2.2889341024164644 0.8768580209860058 0.09913608147222926
Ni 7.265349885335959 2.397769663078212 7.904268671087627 0.47438061744210563 -0.2547485007646322 -0.2373159071104816
Ni 6.639016222000445 6.593639271217242 2.336865649356803 0.8122780802220914 1.6370504362564517 1.290601741472345
Ni 7.181155277207241 4.710416953750805 7.657732942022586 0.15356530695538714 0.6830014706107399 -0.41183853304382617
Ni 0.3516773990376187 -0.1436837813278541 4.324063437099754 0.053115648878056906 0.48540807890086074 0.3553218289040203
Ni 8.922309050951908 7.903521820844722 10.572361011526331 0.38585573582681937 -0.3552680928479494 0.02030965809162954
Ni 4.058987266725134 8.684458123282932 6.742428539360881 -0.9675819671351401 -0.9259588922777151 0.2573085481823246
Ni 2.3386989115679584 0.4943295064895594 13.193361892798121 -2.450058452666032 -1.0165355142157073 -0.8784729308816097
Ni 6.753140505701974 0.29004230706601225 10.688418755980921 0.17508903995977587 -0.5095653928733547 -1.088341797524732
Ni -0.2038780553774341 8.887935384492744 8.301773914347022 0.6264834809193532 2.248962961340166 0.7711833670643106
Ni 8.6787802059083 1.8121741291413989 9.716898332488984 0.40233033644307487 0.36845605229313316 0.7568525522639352
Ni 2.3191880288247417 8.338457713855668 8.675990418727661 -1.3362923015309243 1.554353217066536 1.3949998426744619
Ni 1.6755237287967273 3.9374037582373265 12.71317615270991 -0.004642383868017811 -0.7139156436910932 0.6672426651145863
Ni 5.556964745851417 0.694642163750865 5.430366671446962 0.8487882593329833 0.7405648708475052 0.030703085510811638
P 0.5197084982841721 4.377312467772457 7.587095753272214 -0.22217030971829482 -1.1712881566109763 -0.46272143593662246
P 6.426131431022862 2.705574017225484 3.3285361851787414 0.048268090977768484 0.05946730212769759 0.24062131733463074
P 1.723609751268479 4.359174676159053 4.388222975668807 -1.393562596007303 -0.36918701692188677 -1.069994662476112
P 8.961330816438341 2.9097285463574347 0.454826231343414 0.012795351992455385 -0.9729260050558729 0.8043621678091244
P 1.0105301280427708 0.3819522029214351 10.450559478433453 0.6153963698672562 0.032938916819865854 -1.2393506566068526
P 7.4368935001348575 9.011931080100494 6.611325241627796 -1.5939363786757967 -1.3836684768220429 0.4257859963628538
P 6.941894147837376 7.908327639799067 9.177292073758128 -0.224602059088239 0.8046190210149369 0.03821404917587612
P 3.1473382553144162 2.3059024443795266 12.47504504022931 0.9083504351673324 0.4987379632405475 -0.7679710307746
Ni 8.306255015804451 7.134210404796076 7.28336613982909 -1.8681131633683696 -1.8651265699362203 -1.7113514609628722
Ni 3.520345882842254 0.16624236972068923 4.028589997956766 0.1809393280929658 -0.643418309001479 0.25106359571387726
Ni 1.0703523686173138 6.0639508126064525 5.99578611565402 -0.3985425872658685 -1.1806623987370248 -0.8128928309879548
Ni 4.398456215643019 7.138042071259675 0.4140259417381616 1.2178829736513799 2.0802679978321916 -0.3893429230444714
Ni 7.394457562109429 3.634785606397928 5.460823317129051 -2.3333882189647817 0.08196368345800079 -0.48109916711286177
Ni 7.558198679339594 4.146289885181469 2.034845905476006 -0.1326771506524683 -0.3356220364822478 -0.4428686628767534
Ni 5.847206522236962 4.8478373984453045 3.727738309300587 -0.2869376839026671 0.29309239065015324 0.3648377388142556
Ni 8.694756306756528 5.087469633525929 3.946723150398791 0.22589352420615288 -2.59288811837147 0.48213892123128577
Ni 2.426428301591668 3.9198875686894454 6.394879691355468 0.4710914051678725 -0.5861904377272614 0.7774494025786804
Ni 0.7612148172041359 4.567884527890585 10.476698309170846 -0.9649951802445703 -0.32002855291936494 -1.420189197455896
Ni 3.3727293087446184 1.6028797859154198 6.532391984713381 0.3858775902036903 0.22998003557070068 -0.3792526286880049
Ni 6.574610825898014 2.5880448386277313 0.21855992505938415 -0.48116653001568743 0.7446123014440015 -0.32974912264123857
Ni 1.7997606431164703 2.5204015451989177 10.45297630437478 0.6015748906031317 -1.118245784173016 0.7226401680482845
Ni 3.403920743734013 5.751600413502368 12.532971858386146 -0.052479300845638656 -0.8704456897017591 -0.2955668203325748
Ni 8.89283397987478 0.5464717143799203 12.12627432667122 0.2221237727510755 0.23604115416311605 0.2200748606418468
Ni 7.926586040768468 2.9833280864439495 12.039438373646167 1.530363796130474 0.8690536944502388 -0.91714695041304
Ni 5.760887333914142 2.3313231855665997 11.27036353748813 -1.127109662321549 -0.023700428940733376 0.4348349939389995
Ni 3.2111127717085552 3.8336054909377006 2.7327677159457138 0.07389941839262758 1.240252856706148 0.848567915792061
Ni 0.2723823140552116 3.139359482533072 5.67502924443694 0.8642333902434599 0.9271439137247517 0.5378375003451705
Ni 1.5733026607678324 1.793377624891395 8.177568544012694 -1.2048806478544412 0.18560022390374487 -0.06521706012728123
Ni 2.797821619277699 4.329235722943475 8.7455003738816 -0.5376670362055772 0.24196523295703487 0.4592221645341123
Ni 3.769571200546029 0.592833950825191 10.861887481654387 -0.5830290092801443 0.5477136218083019 -0.16703017421104138
Ni 5.752435401351579 4.678947189478341 11.934800479675946 0.7884722360517453 0.5946709643944468 0.7457394730699093
Ni 3.706817224856481 3.980953013395035 10.935103855094543 -0.41124486532388527 -0.5419430378731118 0.47029667718071905
P 5.766175590292474 5.564804353991225 0.8298090690167726 -0.05176967637312374 -2.528127171945001 -1.0980945060361218
P 7.909079128863357 5.419971072724292 11.91388867287461 -0.3190816156250634 1.0595999495053494 -2.2119622157461003
P 2.6526636205138496 5.0757148601376 1.0399884993629147 -0.4825063318730335 0.5145623318673138 -0.18816232820396628
P 3.5936670936456987 1.462026613396389 8.762162092530454 -0.26928783203138784 -1.3098857865129374 0.7378305026354777
P 0.11375688904787534 8.099846019479632 -0.15404969159366314 0.018433009894206962 -0.36680746094611666 0.1530459441168074
P 4.506141815262858 7.9642811033389345 11.954217658227195 1.259578039397321 -0.06848518935559172 -0.7745008614733178
P 2.1759041139002315 6.477177021537925 10.028911025396276 0.6058591198007824 -0.6631101310034515 0.340449025557246
P 7.119783670290274 3.6164993725002192 9.997652791378945 -0.32370523044000377 -0.23712076038054 -1.0315402151546558
Ni 5.627187223970013 0.5996363185034252 8.003352968096321 0.7709254854172336 0.15472590292239158 0.597944750049712
Ni 5.179392518081229 7.423422362834262 4.744040986674233 1.4607303521030521 -0.5334452848147457 -0.6496118394067005
Ni 4.476110085619589 3.309242399276319 4.87627151800375 0.06784395622716702 -1.5198811514315955 0.2533891585232604
Ni 0.8527721626343364 3.9050433402590374 2.2695146016752132 0.07351632402159597 -0.20378152279846193 -0.7388975104474113
Ni 3.4052845572210564 9.027322689454271 1.5848598203651816 0.5039259351993902 0.18368706604143203 1.2890817052833927
Ni 8.787402847447808 4.962147235002213 0.06958881511747424 0.6137477785202398 0.24206987685569922 1.2301026556460235
Ni 8.616350947715668 8.365316489671935 2.1893863843721495 0.2022494024246517 -0.7072469734216659 -1.1743017466263197
Ni 4.9234965752265385 3.0600634697863884 9.034293910230902 0.9377983081148042 0.3087545226674424 -0.36192853558726057
Ni 4.395570868741859 3.5260238002168847 0.330391703232691 -0.38537313976344595 0.9193958943482167 -0.05666737078505725
Ni 6.660076471086087 7.121435090703156 11.318242668526134 -1.7267747374964777 0.36545943155865446 0.5230315456805895
Ni 2.5008257189563174 2.1503720409999305 1.2065129094237819 -0.8998403408137922 -0.01985817237650774 -0.010106492306382595
Ni 2.001799869697088 2.097526587787679 4.369593468988645 0.3962401643849369 0.05048746722659046 -1.60110075763472
Ni 9.713506426292636 6.264542726915105 1.8574128430473429 -3.3987312416014954 -2.217926917969967 -0.8023572215639536
Ni 7.196083004422569 8.528426727193809 3.9295186896479493 -0.7274075075299408 0.9124120068312157 1.148929329299802
Ni 8.699617791567485 2.1814243113477896 3.500606770086919 -0.8067545793007008 -0.04735252114203458 -0.5637459926808163
Ni 4.436086334714103 1.9520902597407601 2.5374232363872102 1.7514760968978997 -0.8220996942982034 0.328092560874422
Ni 5.6894030963789595 7.106609417558287 7.467317674067255 1.5513468261400445 -0.27740891847662547 -0.21224790839826024
Ni 1.9004601777312482 7.393251468549458 0.7826925602143818 1.7605258658049938 0.06985944399529903 -1.287978187806569
Ni 7.339292698204927 7.3342178276102805 0.08739817817685583 0.049807410440430355 0.01983914621311422 -0.07737400720478932
Ni 4.724982852898143 4.999944351643137 6.677698425761534 -0.011121563834458266 -2.0393231799887137 1.9616504105965828
Ni 0.18847252955950164 0.8241116685923268 1.0701399105979035 0.4108625422838021 1.6555826907326843 -0.8562660557672672
Ni 1.0023008589066635 6.090123042857814 12.038840893451843 -1.5535469191151567 1.3487873486741417 1.2388765451839114
Ni 8.113187269781461 1.3586551176641375 5.720693802145981 0.5063777391739925 0.5075722737027258 -0.788961516983338
Ni 3.365650467311868 5.555786485219753 4.959237766229853 0.7077773920038392 -0.6501222033842159 -1.85175374817374
P 6.388742530663772 5.74225782723398 5.740872675168568 1.5313595843848402 0.5392611201655745 -0.8740781442480238
P 8.835266206493104 7.036117887799389 3.9846622149740827 -0.18400408306121857 2.3411948594933936 0.10928859652519887
P 3.1789286289428778 7.539615560873278 5.139387322461279 -1.6530023316000177 1.361017057971114 0.024486158066822344
P 5.429378602492063 8.696732444666326 2.486530726977835 -0.33161162977127406 -0.633005084087955 0.8456376295191436
P 5.372608706388522 2.666709971666123 6.866904816864064 0.25481972032219985 0.2318137463453298 -1.1022401527733792
P 6.8374278902583825 0.49330061590647684 12.81376713890429 -0.9188395076241143 0.450101947400399 0.9557937162509602
P 1.6327723509171532 0.4003070913756342 2.6732924592107317 0.2675991314750552 0.5821175532094685 -0.05193988340240087
P 1.2244354597249454 1.1070268904831897 6.103669329064839 -1.0824061487665875 0.0792012902215152 0.31846352242509024
