# total energy = -340859.3861275664 ev
CRYSTAL
PRIMVEC
9.36129479492331 0.00000000000000 0.00000000000000

0.00000000000000 9.36129479492331 0.00000000000000

0.00000000000000 0.00000000000000 13.70120118655190

PRIMCOORD
 96 1
Ni 0.12279958994870391 3.915370816420082 9.897720155189095 0.2536827785042792 0.16759658823747267 -0.8055315055268772
Ni 0.7254638203527841 4.39445378877862 0.7406525207973536 -0.08022227528686184 -0.7154516207196452 0.2969554731499853
Ni 5.719722900172913 4.6067398658088194 0.863761033466964 0.7483735682586466 0.25772275290160773 -0.4623923347319778
Ni 2.637011152130712 5.666606914766142 3.8563815547982587 -1.2319780182918654 0.06746137607676769 0.29559304558481997
Ni 6.985903520222909 0.4612281752195991 1.1244852570058452 -0.22406392719658186 -0.8102579644682689 -0.41473333809311796
Ni 6.000449401825762 8.395031108401458 2.967543485429345 0.029194876396401333 -3.0599976560734587 -1.6500473627367518
Ni 0.7617051361624025 1.0864344029552806 13.077645202853283 1.349967742135488 0.6745147732959673 -1.2265092818678103
Ni 7.830039535747195 1.1859449642654638 5.943142364838692 0.872091452835298 0.9683227019559066 0.06786555349372184
Ni 7.775744027224236 8.265161868791282 13.332076764180245 1.0217401983450984 0.19399513283565945 -0.800744368550879
Ni 0.03883813892414755 6.095550793392096 2.305008159454671 1.292745013067593 0.7024485235917579 2.754237183037334
Ni 0.865208289607938 8.667135857752642 3.8321573328319025 -0.43231042774493295 -0.5138938450453795 0.4741759576304672
Ni 4.824970364892827 5.753826096302075 4.758605339276996 0.21387181715492845 0.7750765314711296 1.1312828198626323
Ni 9.345530152863306 9.159577397466743 11.24519238505145 2.4737077166538564 -1.6200022225249133 -0.4442380324204543
Ni 8.899015124323972 9.278840290325794 8.721060659010515 1.5519726326495014 0.5273977930690852 2.363456756215388
Ni 8.250736113854405 6.155874975620019 12.024913332619445 0.06355921280888409 -0.641132855401412 0.7351560411271081
Ni 5.262863641130497 3.3702251882604193 7.548991941690495 0.1138949849489587 0.49123779820876035 -0.8044909800775049
Ni 8.189110711680845 4.101763552661574 2.63110979203194 -0.2965903765010828 -0.6599083362367023 -0.8876448271888648
Ni 6.624351601227435 3.748309153471679 12.221882459469425 -0.8505828893395608 1.1385109621799554 0.006021009383099308
Ni 6.586522609858248 0.7791882899067957 4.00238124108704 -0.647519475654046 2.3712798518042324 1.026000516283349
Ni 3.0566779878348993 7.710121352268038 5.238338921608351 -0.18692742735560064 -0.16050085773295583 0.5136722159528766
Ni 0.44529993250376865 8.866877800055125 6.372661026951425 -0.3836939522888102 1.3127744209146424 -1.9181455453354128
Ni 2.066814699693904 3.1043176159165102 8.929648088554952 0.03058815719950216 0.7509246168152744 0.6993094637421441
Ni 4.1221056457685386 9.222887832663428 3.9843364096682716 1.5280292344600264 1.9152777368693146 1.6127128879523516
Ni 3.2341962168212595 1.5561560807408936 5.624069192226774 0.10566436950905028 0.16149484621510896 -0.4351383841120312
P 1.6799872853515339 6.660458114395203 12.03321680090563 -0.4616318024168695 0.652275759392109 -0.5740175498101533
P 0.8792418063022085 1.2926637223967987 4.955107337527788 -0.10510129791672866 0.3443414186331167 -0.1475520108817717
P 5.801915066523187 2.5424246317658867 5.304474595507145 -0.4481060000162928 -1.124533416953941 0.33197106999322185
P 4.96946194662591 1.6708881070266517 9.848696927769605 -0.2507123830220456 -1.4223977750714405 0.3888844953508141
P 1.0965633236831847 4.217253843807739 3.029335518646303 -0.2921066296981163 -0.16414411091249795 0.01613547210928189
P 7.72889074788675 8.75347507759872 7.18121008115674 -0.102554620235475 -1.9413636353230888 -2.8498387689937434
P 4.90709700218109 0.09412126402455089 0.3263478346245366 -0.7682032013900641 -0.9533457689311002 -1.0125387343514884
P 6.551417755209783 2.157750315175289 2.239803934365883 1.194521416107304 2.60081380097645 2.779726328447374
Ni 7.91607919416694 7.011150931686086 9.866714611434112 1.9332255795969866 -2.5431462710616524 -0.32556748045972317
Ni 6.720782296623126 0.826611672083772 8.302804570398466 -0.7611570931765601 3.4010213231872526 1.494533673805742
Ni 3.5714649376945693 6.709061955817825 9.90558457875981 0.03760726882981265 1.6983203388105268 -1.0768024294265648
Ni 3.132598086821314 1.2118102211704533 12.984518108312377 1.9358298499890534 1.788750922088958 2.8596858369911526
Ni 5.6754720607267 1.6276857325726068 12.069100515262562 1.4584726664171268 -0.18481500899828815 -0.15755925860612865
Ni 2.679268035832891 0.21598659677487697 11.20539003278629 -1.2298465737711595 -1.8308884746889564 -2.6903051602700634
Ni 3.7436285061852166 1.8316402574329045 8.151981945145714 0.16950923187915323 -0.7128411796799917 -1.1427728227801028
Ni 4.316970353598526 8.965583290032036 9.153525320525347 -0.20154286327593032 1.748471505743621 1.3799804864474943
Ni 7.278603117634527 5.649747223240305 7.682413792591096 -0.06012396187509001 0.18868220526317828 0.038681475730597895
Ni 7.45119730567553 6.759453804503876 1.2733223516796803 -0.5406546580789915 -0.5234141258309888 0.32017407735829373
Ni 3.5120675236293657 4.487411443887756 2.0758277541087153 0.13794251281646566 -0.5464468392807362 -0.36929860279908655
Ni 7.23904228676935 6.196830639376563 3.657700247170889 -0.7654307808512496 -0.5992529273381745 -0.5155010416314992
Ni 0.9020936624841736 2.0031110901251554 1.3793961166149407 3.3563980280509225 1.9063598655543945 1.5921620603841935
Ni 5.264848235579957 5.2139415156923965 9.06153562327505 0.4864707158374202 0.380556435101093 0.8050427388159168
Ni 7.182968132277535 8.665993779814746 11.169274158323951 -1.3853432934213044 1.3605776564408505 -0.0981408074384955
Ni 4.092842238933578 3.1290876013564675 11.17778263896128 -0.24701539378643264 0.6819648018161093 0.4352247731782504
Ni 1.2394447627497251 1.8644422336164306 7.052322841347263 -1.4716685962821106 0.4830565479495487 -0.6468903267104794
Ni 6.606059631631941 2.990952338638399 9.724700964374481 -0.9639505410301399 -0.3522298202422579 -0.8713841423556282
Ni 2.5843164249797215 5.02161371869167 10.886645441613885 -1.2973115493923528 -0.3196472583205463 -1.0706618637464655
Ni 6.480168942215258 7.974362614177966 8.637866834140938 -2.479762407488368 -0.5563759254689902 -1.022409199387665
Ni 8.91965677885727 3.6438183834487 12.12130190218956 -0.29246041349310925 -0.21665092256196236 0.3093718445364672
Ni 4.687115941011946 5.622477772149376 11.816641378702114 -0.08927564373838173 -1.018180248907982 -0.39214054039426655
Ni 2.223251293302039 3.7386670200615666 5.926426837249278 0.3615660100415192 1.195605136089786 0.0038450847777030555
Ni 0.04514203468955464 4.660520503130269 6.997011632363141 0.9926049715420389 0.12850322178043674 0.9382150839372486
P 7.529336031475728 4.762764562455746 9.933466258515805 0.6613013599294868 2.9944255265996045 0.884638179152057
P 1.286344848560075 1.761758193446026 10.828648477216788 -0.622968011566927 1.2923706604473097 -0.46018555688864615
P 8.122785939631678 1.0377650324706482 12.577989849541288 -2.581494788932864 -0.5995434619953998 -0.7169217775072686
P 2.3463335943468446 8.478412159162492 7.172030395698529 0.5793510462079249 -0.27076570212849493 1.1000634568370344
P 8.373219292046544 2.3933179318083515 7.888658090103932 0.2828845968792161 0.28258686313313913 0.32940536614857463
P 3.863687109082968 3.6624005531759543 4.390207505560341 -0.629403997000258 -0.20365219630944928 -0.8410839487101902
P 5.4186355828239545 7.914300548198085 5.259809050711352 -0.21006144226990273 0.06991138027915701 -0.3226541634676701
P 8.007754351919587 4.8015671284605155 0.177905786581679 -0.5953993579200391 0.340169289533298 -0.27036178182185694
Ni 3.8731794617799133 2.0730305992903255 2.358415281122661 -0.32552891391230393 0.9734613087340526 2.380610899397171
Ni 4.885107321229291 8.93767727091015 11.667463532905826 -0.32184966528850373 -1.4834342214584708 0.5799352008461689
Ni 0.9415215629664153 7.238096796017485 9.989709852439391 1.3235422009541076 -0.39293038328541363 2.224048457486673
Ni 0.9936826963267485 6.501830977857004 5.409864049809125 -0.9784302227035537 -0.09167782542197114 0.25954669348422393
Ni 1.9095355895742059 0.637341273890563 8.84037129447189 -0.01958229300730176 -1.8426438154526716 0.9606006507213004
Ni 8.314786091322352 1.6577729333299849 10.374439400667969 0.4818702409509314 0.25803899859044593 0.37313314605382836
Ni 3.1643984044855373 7.929334787282201 13.029527212618996 -0.002769849435653294 1.417842037379958 0.3678176473781859
Ni 5.246537543395318 2.2480774465094333 0.7181180125014106 -0.6599119357811281 0.43254619790482285 -3.516309588939312
Ni 1.790497367784903 3.6356927797594016 12.389447760065854 0.696212312874059 -2.2902026847162427 0.20729416393741076
Ni 3.6062515083275555 7.725183675235872 2.3325060261331787 3.3035934826553817 -1.5357757111746648 -0.10701214178619635
Ni 0.48517343060768164 6.8305153916069425 0.25486124474785893 -0.6776687455439169 0.6111044273601217 -1.9910381197300808
Ni 8.5859359886271 1.5607056699033348 2.809992897767032 0.2537534838412146 -0.30367299437947703 1.2864676646993134
Ni 7.296436383795948 3.670310847090075 6.27077924972592 0.08498678655504073 0.3501899069940937 0.3314126263865905
Ni 9.168133620706394 3.390923010561155 4.974700527068919 1.5436774825202448 -0.7713697720435038 -1.6343086118452563
Ni 0.38972754340106197 7.200838843617246 7.914224721712045 0.04676142452525495 -2.01242635559787 -1.5891770096139404
Ni 0.5262826195952206 9.138093226421882 1.2243131662020508 -1.829452256463062 -0.04273122031993931 0.2566356904850161
Ni 2.545598110626108 0.3545618403378726 2.604159561085949 -2.214538975334341 0.6238493857306159 -1.3354291821996809
Ni 5.133546717900123 0.22012148058773753 6.733674671508957 -0.2830463192680609 0.4087146427028638 -1.399508272067777
Ni 7.703268884640656 8.039582753467528 5.029121476939155 0.371896702543566 0.9086980483147383 0.4501477130366699
Ni 8.307053662005117 2.443915728975006 0.4651477492572824 -1.8888825347052374 1.2088326905236537 -0.22544280982197948
Ni 2.621536932201668 5.898458097453753 0.17669162667557073 1.315348866510038 -1.5521448965613074 0.4910840462397156
Ni 4.366023537160649 7.488324199951746 7.510093890481081 -0.4253627927825061 -1.211690214577107 -1.0896720863003815
Ni 5.891156287686872 4.109224504436194 3.4674038510924876 -0.10963980921703054 -1.1769942058568181 -0.5120243959368085
Ni 5.6025288534144755 6.85621214520962 13.432232318686504 0.04450168195680078 1.5314639711731883 0.6199515933381065
P 5.2983991153293175 6.410520910592702 2.0372311365845492 0.5956906639082128 -0.75743799245376 0.09271757954039515
P 8.254405741326991 8.698205994440176 2.797922444544704 -0.7375664503408136 -0.7750148249952589 -0.16781333223396905
P 5.702984905476525 7.118637315972401 10.533167639187555 -0.8950897135026843 -0.11288171319309591 0.4939163734821881
P 1.6458747279277983 5.256778799658098 8.634688674633429 -0.4272448402965674 0.6692548104486087 0.5097209446146125
P 3.5509075348124277 3.7412694599528393 13.618500549710175 0.8900390384526541 -0.04909161532032835 0.3069750621695165
P 4.349884665316928 5.42364387542047 7.074189889340158 0.3796133544615333 -1.8030115457730302 -0.3479520188025105
P 1.731914386347544 7.620168672716809 1.8769002444340779 -2.205848389538879 -1.6968720363997742 -0.2214804827401218
P 8.214423652206033 5.900873311453568 5.495811967542056 0.6213335612872978 -1.2420125197097318 1.3851759146055047
