# total energy = -340858.693865471 ev
CRYSTAL
PRIMVEC
9.40670958667751 0.00000000000000 0.00000000000000
0.00000000000000 9.40670958667751 0.00000000000000
0.00000000000000 0.00000000000000 13.76767032488191
PRIMCOORD
 96 1
Ni 3.210811007774713 4.168959636177314 5.088517238366739 0.035798240645531894 -1.664385890846611 0.6274281042208096
Ni 4.408774291211733 3.73262941048611 7.756609075326934 -0.07432673573803328 0.7459683012512637 1.0079480296570125
Ni 8.778096842280124 4.328582091707205 7.493894726395291 -0.2895653513335013 -0.8251328246975724 -0.6514689472200974
Ni 2.256415656510212 3.452582258409947 11.044535347889699 0.715181140667078 1.9395754330744146 -0.05720910222114018
Ni 6.102800406422509 7.649348128221909 13.457925471171972 -1.376394568868449 1.9486951359874956 -3.3773998271135706
Ni 7.422938034394992 5.742250633424383 3.0806268499984184 -0.5072575706757845 0.31866046892724476 0.00240063902169264
Ni 5.238107438087648 4.261502845411981 11.996060712049353 3.707430742661286 0.11028104234545523 -1.5205686644169232
Ni 6.670420078270276 8.945931355307666 11.050703327387074 -2.088093921634514 0.9841727816142858 1.4101169008215586
Ni 7.718873119018152 0.7061692164885035 9.127125277336535 0.12634478067653723 0.3278182241671128 -0.6284331484465565
Ni 7.033773050734955 2.68194697955846 7.54738221796159 -0.9083090404064357 0.6022842579653305 -0.49399376368734277
Ni 7.364061438887797 0.8575382249984222 13.416498322008577 -0.9522247679527794 -0.620414391907138 -0.672874666589383
Ni 5.832959534283287 6.704547620769094 11.226750838583227 -0.11014888764296514 -1.0603684522402574 0.05960614169840702
Ni 4.457002491429882 8.821076098530705 7.235365422573275 0.03250208639276338 -1.1006733225068914 3.114960128352268
Ni 7.0344785539564025 1.158981878774644 4.689998222661272 -0.8850048184628565 0.5020274326250966 0.3017410674640868
Ni 8.238368064453581 9.160357301079596 6.470130535714229 -2.3524701752968973 -1.3229585605364957 1.018814025837239
Ni 0.780764423769548 3.2179789205046188 9.316541604243634 -1.0711102641377939 0.3128677735048676 -0.8090215209580068
Ni 5.355324446653738 8.875465693549494 5.302232977562412 0.8278936752721613 -1.1074738903684926 -3.0880072539125076
Ni 2.180418849495892 0.6044149571946177 3.3410967580148956 0.6114574398241663 -0.8133121779135606 -1.349294370217547
Ni 0.9877985771226331 6.832243703851083 10.048333757064148 2.4485741548110216 3.684766468294551 1.5876898835454527
Ni 7.598486049310357 2.656736997778738 2.907869805827098 0.8254948360226815 0.558459033250264 -0.06704845690906518
Ni 2.2314220290517333 1.3280957043104091 9.252425471478489 -0.2837852543166145 0.10422943683473662 -0.544828844061339
Ni 2.2359184362497584 6.445609125078639 5.331874460243787 -0.1634915649301636 0.9885814522049425 1.6593347015759485
Ni 3.6101258311139737 3.596166274038933 13.07309133662066 -2.4759461190660716 -1.2416471659505133 2.3087416240606946
Ni 4.554474816505063 6.616811240149889 2.0318878452781157 0.4142754246200929 -0.12687468503807825 -0.12770180892506394
P 5.5273167253330096 4.578960481644098 5.211696219489542 -2.0801641252644756 0.11348437977410132 0.8404727974887526
P 3.9315625055150543 2.6660590470114633 9.690154474890083 -2.2060229674435297 2.8146010288373717 2.9268723621399784
P 7.666214358569313 2.027080075991692 11.187691358231008 0.3758274050565398 -0.4643139772347229 -0.26461048116037655
P 3.850683616208318 2.139922964584808 3.877389264817509 0.16884922969765112 -0.1460826254250968 -0.11593669796933583
P 9.209385071615385 3.1265268895857896 4.342846426173912 1.6518977856819292 -1.5333673588434882 -0.0801104322993459
P 8.60659371250106 7.657992894362046 5.011872309059649 0.730660981470232 -0.5160954806823885 -0.48070116034349464
P 2.7983079775491944 8.629179222296996 5.691651001711208 0.18037368539748289 0.35443042743800246 -0.9273210627325643
P 0.370819077889517 5.070489279381352 10.633020022174207 0.7455661807168384 -2.730309468577143 1.6576999941860031
Ni 2.977496389087229 1.3761075502073135 11.826042901719173 2.2370548970486697 -0.10781972528915626 0.4193993761102196
Ni 4.1026705534901104 5.931908712768697 4.231603618887038 2.192561185511669 0.65880404742893 -1.5435846656961223
Ni 5.462965424827383 3.5240544380973837 3.3157089894233684 -0.47182365534820675 0.08585504809260698 -0.9158269460500357
Ni 3.1178727167360347 1.219203633757399 6.839186796221089 -0.5790036901708351 1.4092501819458891 -0.7077313692572521
Ni 3.398747659258696 7.86982258827905 13.474570643843323 1.607627503009644 1.2320723777778846 1.3517909113871558
Ni 8.43901318063324 3.874031069483419 12.222291137722543 0.46432580430926484 0.8006672354560405 -1.2680670507049387
Ni 9.055444268695549 0.6749370592105056 3.7151508033424894 0.8908371088739174 0.08396143061431992 0.505364981638762
Ni 7.911908207115795 4.743323918822117 9.909322342981103 -0.8742892318175651 0.4642664118262392 -0.04655213672792628
Ni 1.6060451601414687 3.4047773601246667 6.700408668536602 -0.19686422685333838 0.4910400803756576 1.1622586994188564
Ni 7.222847914082873 0.4988848446595452 2.111051891421254 -1.7992852459613786 -0.11513837043775654 0.6800475301887385
Ni 4.994040950305306 1.5017435638826766 8.5980063272896 1.9538553400321963 -3.0644654620368255 -2.623126862651353
Ni 7.498370438832154 3.895722941865523 5.115570935231844 -0.28184252876794685 0.04632433698783635 0.7785953432576656
Ni 5.4921450380664485 1.7934080023386747 11.416344952302131 -0.6114782657597727 -0.4521056080939891 0.6441166206200841
Ni 1.487276044488194 0.35166983911750915 13.265452904309562 -0.08324589260453406 -0.9580097500656727 0.933990761443256
Ni 4.406432020516528 5.092256405440411 10.081845160082901 -0.6531347649582945 -0.6471278966425823 -0.5640110734167447
Ni 6.3973056711835365 7.1025643181808915 7.3942438073722805 -0.5503456601145102 0.22571791786023707 1.679393677109353
Ni 7.467093129347983 3.2224094807353088 0.6080892179719162 -1.4361117822234235 -0.8565568475348087 0.5557984556989654
Ni 7.219169890621727 7.626254656106529 1.3793556870388575 1.7935084913786017 -0.06861528717555279 3.164475718583892
Ni 3.5586805362060248 8.06990330188155 3.6061524369707816 0.062433583844873124 1.172487062015084 0.2037372998240878
Ni 8.942808327714058 9.197560837623925 11.0059029321542 0.578189678909972 -1.2878036099019174 0.12475403915064968
Ni 3.6381484190698665 7.383787308959468 10.97372822257235 -1.7378772751675422 -2.117834900342372 1.2974933263858557
Ni 3.633830739354608 6.759294670753417 8.609379039219332 -0.8906018529346598 1.2956336474692978 1.162073322880928
Ni 2.0498537199800158 8.69100952462465 7.719656697929439 -0.8813034583518694 -0.7295512933458209 1.1230097812205628
Ni 2.037192288832439 5.339107279270066 0.47066847848549465 -0.7956391861138297 0.33609486235360825 -0.18526315227930032
P 3.044998937315322 5.514166145285229 12.085619172321817 0.0669957492942588 0.2629652322474697 -0.01723307604883484
P 8.454524844795463 8.386297979926685 13.03485870604398 0.10797733391294306 -0.4070457396408732 1.158394845588076
P 5.522425236330974 7.9646140011127295 9.349583612452385 -1.1791166515164597 -0.1063714228784039 -0.1674783174920535
P 5.877020562140085 7.87412145457507 3.2461830579561646 0.08793147100566147 0.2693245988065942 -0.22181626881298572
P 1.9033912512075235 2.6334647981805905 0.2915073464053558 1.636761444261123 -0.19622350794554594 -1.1022872039612306
P 5.4772730301583366 4.23024434934705 1.0035933832443986 -0.0028994330349821035 -0.9976631027912366 0.4446116137097892
P 6.220619444404235 0.8495538098735609 6.754722069207475 0.0650530237455912 -0.9012449344708028 -0.04100729565029712
P 1.7973117868306838 9.014186440305302 10.9401622606378 0.6825803239129212 -0.10843704715818099 0.46466364726465786
Ni 8.074343268821858 6.722759010592058 11.697040226671064 1.824979565403689 -0.2642772661906739 0.10734278565273772
Ni 7.582193628249731 7.4322977104661945 9.491019135604326 0.7637305103306911 -0.37110223166672857 -0.21024501903561857
Ni 1.834477696536536 2.3808946449024013 4.557429463996485 -1.6897765630055737 0.44277816004547615 0.7845829282996681
Ni 3.2794329544475023 3.9353816296204895 1.8271630391365687 0.8569576825176533 -0.9697717756976073 1.036117807223009
Ni 5.1229128720897075 1.9350636424957048 0.5094626896264474 0.5120151399654279 0.06444984294395352 -0.2143335872826954
Ni 9.270434617044637 0.3185431705221843 1.3702782122562336 1.695791658851402 -1.0013410658634563 -0.8808655994835023
Ni 9.571232970540976 4.597679833786504 2.8014319458137638 -1.5243039630896393 1.4643707770691168 -1.0157580126197345
Ni 0.23947977617197258 7.001827864867814 1.4493500726451025 0.22581304867720467 -0.2638275802477649 -0.9101535498143422
Ni 4.726231927443851 5.873398978936655 -0.09003820246304835 -1.336457366353879 -0.5613252990544656 -1.3283645620434157
Ni 4.191197097717338 5.85292057209544 6.75798525677441 0.9063858552417938 -0.4497473922744577 -2.0681570735012706
Ni 1.4748874079195768 7.1817217796272965 12.77723809037119 -2.146293155683065 -0.3184077294864904 -1.4990570155973926
Ni 4.899202503923528 0.623962099783522 2.644769781801065 -0.24952633313374445 0.12469387533667557 0.723475005244754
Ni 7.059867263218892 5.396017872466828 13.374176594760387 -0.14367530153518482 0.34068659548934876 0.9936701795817596
Ni 0.2669849950988041 5.6937684520465135 4.708818226596604 -1.8885449488601604 0.34818393230765843 1.2388531481451437
Ni 9.345161518260353 2.1620569523190194 13.41264345240659 0.19377273241220824 -0.3340498068991215 0.1863052203905695
Ni 6.184394205660312 3.175883894958254 9.700025875964576 0.22449175876261984 0.8356650916874641 0.5437242981432507
Ni 3.9143200067828783 -0.10609545578319246 10.024791584899926 0.8569093457782209 1.031754388047991 -0.8166504982581743
Ni 9.341925610151314 6.395838224482926 8.22990014445429 -0.5025632505239087 -1.3778729531861884 -2.1879892498702707
Ni 1.110603171202587 7.859719782147922 3.5564925355485757 -0.8730964970610446 -0.477666487282229 0.16534584453008297
Ni 0.6604864718933378 0.7900413207961012 6.21091266074808 2.3304232227991863 1.4881879340933724 -0.02124451120107309
Ni 0.6077994913156417 2.703930459938763 1.89868601505595 -0.07104832209707763 -2.4509691374057594 0.5845935255537867
Ni 0.8195238300849094 1.6031761137075824 11.258071418931646 -1.4570878702544583 1.5574655374432727 -0.904770688235874
Ni 6.705036769669298 6.27238456743924 5.433231756391739 1.0844049243641711 1.2447309470821595 -1.832227248105038
Ni 5.022674974386453 2.5217036811936944 5.918887004642701 0.03585994712140276 -0.5150009620666292 -1.7766852491736758
P 2.213822075354024 8.742718207401941 1.5489182126234633 -0.8202988936440387 -0.7392811190390752 -0.1882201780250952
P 9.017958530862641 4.6629812119636815 0.6683072102708234 0.4437292111048358 1.074681783539136 -0.8887545153132759
P 9.375808578200031 8.42086763777761 8.585174634697912 -0.44986771990240587 2.1490156968205505 -0.3808132883069054
P 6.55663651871523 4.92844796412993 8.260381646304666 -0.5241348060470974 0.32801517066926733 -1.053265008426257
P 2.04670247225755 5.407117789817601 3.0101357901242745 1.91780770238002 1.4714726782212206 0.6998666217971946
P 4.711058904827921 0.2182149684065843 12.68533830007448 0.6661849132740334 -0.5240049653374523 0.8123696114946333
P 1.947913207835668 5.63902140206219 7.557432346518849 0.1737872904292168 -0.6039097093838954 -0.8883778487001474
P -0.39742219336385776 2.016441087412264 7.855048410150978 1.786989202202845 0.4064608136716806 -0.527593196909343
