# total energy = -381172.99965719355 ev
CRYSTAL
PRIMVEC
9.23490665902136 0.00000000000000 0.00000000000000
0.00000000000000 9.23490665902136 0.00000000000000
0.00000000000000 0.00000000000000 13.51621937414774
PRIMCOORD
 96 1
Ni 2.066060968477736 2.8462812720800033 9.246066802063897 0.2442910528767341 -0.5440464573693599 -0.42936574329431215
Ni 5.659141417834501 1.9348698879084842 12.58034269302836 -0.8234148135652012 -0.6660393888351045 1.356317852723232
Ni 2.475398195440434 8.86732943751611 9.898359641024912 0.36897901467613875 1.2429172909121886 0.4005853287275101
Ni 1.1914045118484964 3.7319365022526734 12.506138372981194 -0.23471935002789895 -0.2267918676507062 -1.5515334882295535
Ni 7.45834129556117 5.177420994370199 1.4872844490357717 0.8820889303676421 1.2743071180773795 -1.380093872096907
Ni 0.5689579669387103 2.1359230355273198 7.3218170565357195 0.04230081765074005 -0.3150023033493672 -0.3182879160791744
Ni 8.88771087597988 3.3130965565862054 0.8778591221748833 -0.8218217580464684 0.23673175247223743 -1.713702734803868
Ni 3.905931374067771 6.781145607954297 9.21330412456597 0.6172935868899692 -0.22681089381409966 0.28947947648791433
Ni 4.83820441183678 5.872837152339112 11.570748554296225 1.308993356605655 -0.24790833791434724 -1.1903878535549046
Ni 0.07899538949664789 7.5937434934568735 0.5713036331687954 -0.2444473759489403 -1.005624266619842 -0.27237084183208576
Ni 6.122013397300363 6.736670298646855 2.7173684429239877 -0.20935464601086523 -0.29532050864972365 0.7144262647789245
Ni 3.7529274445400103 6.674325445421245 3.66955840336396 -0.5538670430042074 0.3767211205154028 -0.10489843787730321
Ni 1.9927265766151125 8.802094058581773 1.0872218385883279 -1.1468274524654507 -0.8598350040654482 0.9899572495065468
Ni 3.4624434631725727 7.063844563211648 0.3312985737709193 -0.532825648952876 0.6000476553253279 -0.631667596223454
Ni 9.007229034837213 6.85968848703648 10.668770627030343 -0.6437769778924783 0.586743482017254 1.2877789273115694
Ni 3.8710326627154403 5.247541638799477 1.9600811824286908 -0.16958019432640473 -0.939195445572647 -1.0252996335615825
Ni 7.072497670524994 7.954366589066424 7.5061374772164005 -1.1092271256141735 1.3028275941145755 0.007643118367554579
Ni 6.6093209391473495 4.222642489661357 12.752281874674887 -0.8491543844231505 0.3231372737516757 1.1708898927312932
Ni 3.516144443991255 5.691121898758851 5.8785009204450605 -0.19050768850769126 0.4830272373735101 -0.4962967007889066
Ni 8.345483345667082 6.126178340094727 8.357335424563505 0.16437756707954274 -0.16270120781838432 -0.12104265173733347
Ni 1.2443759350601837 7.124942704070874 8.993354511435324 1.4363830336069392 0.052785262121831676 -0.7720799107366509
Ni 7.599386021278063 4.6746357493672175 3.694036446314604 -0.8680409369150083 -1.3339076033488317 0.32375176740722306
Ni 1.9160860882549675 0.773327369452127 5.746204421577615 0.7143108222469827 0.09712779279294885 1.5186673336291523
Ni 7.027302038516975 8.518545491933997 4.791445310172251 -0.9075811611014756 -0.09933122820217087 -0.5189681742444933
P 8.160905271097349 0.5898454782741696 8.18563819746512 -0.7635500188887688 -0.2973645356629459 -0.5677471434204093
Ni 8.619150562447965 5.308168799431403 12.593763782525143 0.73749960165862 0.5724319504905883 0.6236172151151519
P 1.1043932235813214 5.677315713664452 4.517890759249664 -1.9051483617447962 0.736501499411409 0.8649967507720459
Ni 0.15385815837139374 4.405475166918154 10.296547565469572 0.6579496698484345 0.31810691041661987 0.1627767982513261
P 6.5996335223152265 7.00543378011996 9.363225442331517 -1.423216414317994 0.1348924131362322 1.4128314715392445
P 2.476903485186512 7.9383532613382055 7.1293726886794255 0.17161367981666575 -0.18104808575668818 0.36110655390659746
P 0.7012295315588281 1.316149627738223 1.9788289659471787 1.9411396922377409 0.21902327944888084 0.1291341704962163
Ni 1.493847697026801 2.363203317372305 4.0816411680046265 0.30953665224910565 -0.5973621380733648 -1.6706079604969226
Ni 6.946210325263518 4.3639642625707795 5.893517801770815 -0.6798354141779324 -0.865211180775697 0.09197915871247385
Ni 8.813923973702792 8.916339085874622 2.7518211082963444 -0.13157620427880565 -0.42582867667533114 -0.6916195512970541
Ni 8.251850629498445 2.2064500158389753 2.8079130063865585 0.054893823824402235 0.021747418979420615 1.0622841812057315
Ni 8.426815166487398 9.10279184644714 12.442761057218087 -1.2593049882415928 -0.08860587136486675 -0.7343975656945287
Ni 5.925282185884992 5.5601155163179525 7.67248215255511 -1.3834483903914367 1.0268587505185864 0.23916067362870427
Ni 3.367268517632188 4.735290614718397 12.913449461475857 0.6195049927189912 0.44906990659145885 0.4778330947670803
Ni 5.030244290791981 4.736925193154322 4.1566018268874005 1.384064683819197 -0.0458913632154758 -0.10281224477223583
Ni 3.950683730567742 8.3305874416154 5.156194561969212 -0.9168425317987434 0.18244239500105353 -0.2700272813005737
Ni 5.331293005101219 0.6017585075529486 6.00382321798589 0.942952341511918 1.3491005090391863 0.642628466110332
Ni 1.4126359299899154 8.754275713151138 12.176396804432292 0.08373954441150094 -0.7529647871737549 -0.4185056606513567
Ni 4.337349262275089 9.061825801578408 8.488387981536492 -0.5624383296129862 2.2884749033918586 0.0694552665783449
Ni 6.0975408952935695 1.6133289162584623 8.412589716641637 0.45123580389452617 0.5317388436466004 -1.8323141513918895
Ni 7.157818970917737 8.2332607628797 0.9544183433585529 -1.0115624864811483 -1.8049195614290208 -0.6326695551254072
Ni 3.477542535165444 1.1081241257740553 0.8190466206540272 1.7394443625443463 1.605149473782797 0.4886384129127004
Ni 7.488188513103041 1.915227241958125 6.487446955662872 -0.4172530191911782 -0.41646600451350857 0.17309412101693417
Ni 8.158485725615922 2.6022673398062213 12.106558748139392 0.639773256049724 -0.5583567033444448 -0.9872984717274609
Ni 4.733757620253066 3.9125805066884847 9.392852869100649 1.1547523637394823 -0.28802294654704585 0.3727089140322162
Ni 4.662990532374551 1.5171104262928823 10.062541501280606 -1.2053149071783822 0.030524650951418396 1.492755755969713
Ni 2.608630190327988 4.502709496589676 3.8637869551401463 1.3771674424787315 -0.9182923768713928 0.006255236881092453
Ni 3.3639901258539195 2.8322534492315805 11.565666585294586 -0.3349527783293651 -0.33971420427375043 -0.2793747839537446
Ni 3.1624937027270357 4.844622671797052 7.94729357424114 -0.15000947128332873 -0.37050085063730387 -0.1442273173839129
Ni 8.863275313598757 3.18404797430585 5.178807153823489 0.3050850442356552 0.6027717391247103 -0.7403064749797961
Ni 2.4799417693979215 0.10601949614664095 3.500579009224292 0.06262024593438248 0.2984428563287892 -1.1724502952398774
Ni 1.5433375605190311 5.600241184702678 0.6108724366965353 -0.836349005128366 -0.4385633506331802 -0.7776790020909833
P 5.626246681174803 6.624253782824702 5.3689261722438175 0.48284803148316846 -0.26861780254755674 -1.0109297379931557
Ni 6.9243697715857575 7.079534669215249 12.274564783142639 0.06458559719086941 0.056953791677224495 -0.23697523594161124
P 5.206335486363886 3.5032248099129517 6.940807905009189 0.09572397046688676 -0.4269476207711228 0.851591018889101
Ni 0.03247731888962021 8.27100382540867 7.092946523805614 1.1846108418618115 0.48928350269586707 -0.3380208757317275
P 1.4800138072131492 5.875441395948891 11.76913927839485 -1.9416158605432112 -0.8499398564389233 0.807254401755255
P 4.24077061095922 3.327161319060299 0.8036594195809252 1.7819668092875893 -0.23594062402950977 -0.7703235901671766
P 4.736167930828074 0.7949527498103571 3.728814180392863 -0.7980585941885998 -0.056368608597715815 1.375438889823399
Ni 3.606711171229229 0.4762773696217347 12.168476025197865 -0.13126664345818684 -0.8555682583692944 -1.1673078318069896
Ni 8.54262089296483 6.6292498671966555 3.098687887306152 -0.8815153172523592 0.5291201750768306 0.5850000169635861
Ni 6.378309755109631 3.1886284878890083 1.7107617964179649 -1.1820551653194935 -0.4336366027555242 -0.12487719499207524
Ni 4.401421043000801 8.30058323066443 2.122276614313946 -0.23928357235981373 0.7073374762529431 -0.6433609734009823
Ni 1.9662408650092689 3.598538279049601 6.092759984241147 0.17987463427387732 0.4803424914524953 0.5533733911972405
Ni -0.004377345641969966 0.1414215098987335 10.078328573801594 0.9545169064210657 -1.1239857719805868 0.4618811994235142
Ni 6.885860211824123 0.7402543990985679 10.44129271818802 0.9374558371737208 0.48183784505109917 0.755520463716073
Ni 6.370349265777609 0.4454761862469195 2.463898889969166 0.3650552541417003 0.8290866671389979 1.3391868494699
Ni 7.476958866899169 1.2381331383218468 0.576297870559465 0.3129341079664288 1.0159827270360309 -0.20304927261812775
Ni 1.097383929610319 5.877112914010487 6.9465390879319875 0.23026619935255185 0.08876347998865358 -1.6495035744181399
Ni 3.9339777848581985 2.660493424769556 2.8459211107297144 0.19921627202528272 -0.27370832969658665 -0.3379625116899664
Ni 0.5695453069868733 4.239708596721189 2.6945665354881476 -0.240369863445457 0.9783582318150378 0.941526664808985
Ni 7.229638838127865 3.9424831336688615 8.341263916924854 1.0842933384869715 -1.9574517991342029 -0.04613227558168829
Ni 7.854583425223628 6.530427133621296 5.731674219820072 0.8280232588714901 -0.4313120683874056 -0.5352535416680781
Ni 8.859091900991558 0.7142664489486361 4.765345617654666 0.5975359446470677 0.635788303260047 1.1973632564314733
Ni 0.8805538678675559 1.4749623134026904 13.35722734843257 -0.04328709282340932 -0.1772780771912947 -0.5503705998151747
Ni 3.0020833782523138 7.16482826488874 11.37316865498107 0.3716611894939922 0.6345642010449587 0.39197676112289265
Ni 1.4573790515834693 7.769123601234619 5.172656706149329 -0.30442632760573374 -0.8806696814226124 -0.8273149199505558
Ni 7.111099579350806 5.12819894316408 10.45193040689052 -0.614921744223683 0.23015795590946167 0.4416291340426975
Ni 5.470204467435633 5.895675075909979 0.3354967622283867 0.5521670295939652 0.5533973024566404 0.6502258188416157
Ni 2.131896616329221 3.1899213747874806 1.0242924157864797 -0.40147955840700533 -0.08148237294620805 1.4578813126900312
Ni 6.481934640022173 2.3845267162906776 4.3040777414335505 -0.7361752264202418 -0.13841199625371645 0.21649357104849168
Ni 4.027287279302216 2.7180268917515664 5.136217612406534 0.042282048597662665 -0.4326855516961645 1.754611814313404
Ni 1.3960223333445483 6.689184409847257 2.5336824603141994 2.380731227025119 1.134107433795621 0.5727237706993943
Ni 8.61632468108416 2.262321199665807 9.36468548103615 -0.07953039142615981 1.4296788821138862 1.2732920465493038
P 6.229387654218475 3.1192281661603074 10.980494893158394 0.03720129164064561 -0.14480787247773128 -2.4999735923289204
Ni 4.804219956219797 7.482518280562599 7.1605552736892895 -0.9986146680712286 -0.6447575966381929 -1.533152928839837
P 0.32259098050970947 4.253302378967982 8.137223277079906 0.24193335127783494 -1.2510972556198194 -0.006916781724491314
Ni 5.264376873198868 8.346610004250037 10.882907790061719 -0.11432487339752569 -0.72504260684219 -0.3876994739037774
P 5.338006782066857 9.055315192553959 13.349861587073844 0.4714904403785041 -0.7502008512753725 0.4413733092781495
P 1.6325098168879384 1.4842249245396013 10.963181290606569 -0.13929337041740528 -0.1141299837779002 0.6316485700600606
P 3.065176258897754 1.6990196129079125 7.487836663168528 -0.504353509655112 0.030586614537605385 -0.2901873011882164
Ni 2.6943393567902736 4.923165550879235 10.210692487485888 -0.1718435364392847 0.31666966374946104 1.276599513655982
