# total energy = -340896.9294488476 ev
CRYSTAL
PRIMVEC
9.05302212795930 0.00000000000000 0.00000000000000

0.00000000000000 9.05302212795930 0.00000000000000

0.00000000000000 0.00000000000000 13.25001297777544

PRIMCOORD
 96 1
Ni 6.30481412071426 2.0682533743687537 11.506906807603192 -0.18107868188430748 -0.6220133609631416 -0.13361894574044728
Ni 4.4330746918826796 0.3743967720843656 6.3088209881899475 0.4092075231788824 -0.18208655432353157 -1.3804191166468098
Ni 2.5812971762546493 1.4985014435454258 4.765764192253323 0.7873833738629408 -0.5498998308263432 -0.2055365578163557
Ni 3.5825523410616604 4.480503473412567 4.767420895253891 -0.5555027788354174 -0.8896616005085775 0.6573318337587776
Ni 5.077667954431064 4.6966172112788485 2.576306245302668 -0.29337932576295284 -0.4083372047587871 0.11109968159200864
Ni 7.137954669562119 5.906761802507048 2.5429684922994604 0.7133232615227327 1.4881899909759018 0.397743745513657
Ni 5.138857329189702 4.487827368098132 11.456080426968862 0.09756488033036746 0.633067304784458 0.09913479592064861
Ni 5.605477234972285 7.88655810027177 12.569889096667385 -0.6401398953605234 -0.3011877660637781 -0.9730771859217564
Ni 1.8281310225270448 6.6674600704230205 0.23043742905478914 0.9955974785114595 -0.5622609234948575 1.3285052013863379
Ni 2.7180792835528083 1.630014692120471 0.3222957259720063 0.6279112145048154 -0.5782788961896687 0.46567229103483027
Ni 0.47476943606187266 -0.03311052215449654 4.751441406367003 -0.6078779500030241 0.4433646286765655 -0.5946794490348791
Ni 8.537035827029818 2.307669590505303 1.4131006671216744 -0.058624751621744194 -0.34952296283405615 0.2867060275078353
Ni 6.7563426390545205 0.8756472023919095 4.763591467006679 -0.28702047342446046 -1.1407092553828548 0.8768901597755221
Ni 0.8777574617877134 7.588967165656302 2.56255198918922 -0.3754551093187857 -0.7193563550906902 -0.05657815350536063
Ni 7.685155522929646 3.8650699942785285 3.83643528613212 0.18080665916984348 -0.4593067538281186 -1.0630578261469628
Ni 7.774934340725386 3.756922595126777 12.646341866283704 -0.041703550386373335 0.34469288843526447 -0.373074524901751
Ni 7.87440894493428 8.991778168130741 6.880029550230714 0.4128993702081728 -0.3987770718741777 0.012970444117738953
Ni 6.904757879444092 0.6307692981666064 0.39113943071413704 0.027120767476192003 0.49877781533954746 -0.5791792965167509
Ni 1.9600516570858362 6.236943615822189 9.393185536239647 -0.3516304960953622 0.9187914279949982 -0.9092603485761116
Ni 0.048355810968455135 4.6403798394781886 1.5863447252672802 0.466947301092512 1.1526332605139502 -0.07185590560003753
Ni 6.339088861480084 2.043212715901171 6.973428671468676 -0.3658345555098861 0.17477870780820864 0.2555432287517857
Ni 3.6601638974761896 4.365086497706415 0.40162645123794327 -0.6173028428613497 -0.05637195103182549 0.3454667904868115
Ni 5.915262590034547 5.679992657910344 4.788210254655538 0.25800865957314273 0.1806433941191018 0.30223754748453113
Ni 5.411235597922227 3.0692369485199347 9.369375183442976 -0.2543893176530006 -0.9551383420551487 -0.998595384797519
P 0.22137444886972146 5.690675223706348 12.474251163123192 0.1775192466678233 -1.8484120853950166 -0.12472678545714003
P 4.083963009856144 6.16341497226698 12.568193465672817 -0.4295189810427248 0.3607201171014562 -0.004669123340895184
P 2.4439447285792455 8.626325781645063 1.3375486731805275 0.3050824731324939 -0.39034693882895355 -0.24006415927958008
P 6.192610967768772 7.891157035377168 5.9277639079224285 -0.11758014711002975 -0.27329181098445837 0.08064830708068692
P 4.606259000084002 0.8929511483770642 12.50281797360564 0.832505720122876 1.4805342742028567 0.1182972277817124
P 4.041160322497239 6.159386377538826 8.233319617823184 -0.7595738078498403 -0.83707662732301 0.1022874826170174
P 4.643303965539299 1.0951168954620722 3.9841063681247157 -0.1936585754318471 -1.0756937697434183 -0.43374433197798207
P 0.061806790849559465 5.7979444797375805 3.5975378081482074 0.5461835583170207 -0.972206353281029 -0.2645883696731895
Ni 1.5157112381032256 1.1343345861640133 2.5732852519076457 -0.5579414701838972 0.8407113958621198 0.17991191526971595
Ni 1.9141528362504618 6.328433454749663 4.746419695140695 -0.4639481092548719 0.6902103296543532 -0.031995836180306186
Ni 6.122766904110998 5.641345307585647 9.071329787130086 -0.4927377797930546 0.01536259849899935 1.3081639187258245
Ni 8.432491530578751 2.254700359596472 10.266586683907837 0.7424600309876891 0.8108490610850486 0.04288728628182936
Ni 2.277631663970437 5.222108918223647 6.974714200572942 0.583344483638034 -0.012916450951351948 -0.09345882858179388
Ni 0.6102506241186033 -0.21548093163819712 9.040509679506428 -0.7303953865136711 0.6814554662798586 -0.4432211611201657
Ni 1.436949947912347 1.0986928390971753 11.354425855095837 -0.32920379166072977 -0.580091266808059 0.43882303205247003
Ni 4.151100219977472 6.928857023638129 1.529541539600307 0.010470560514020677 0.2160927360656472 -0.28216957309006246
Ni 5.500190590728615 7.93153351287732 8.220400955627507 0.09402935637328322 0.09846296666460462 -0.5270085280504666
Ni 5.378979681031411 3.00888045177251 4.675280144054609 0.17827257989408007 0.37087597458853544 0.5475552418535667
Ni 0.7276004199920821 7.304503112739314 6.823425531044683 -0.8979588075203631 -0.33753159480013484 0.781579365586654
Ni 5.229287964559436 4.74799311034014 7.009600925616571 -0.3306310110255596 -1.1032950764004548 -0.32391451823733247
Ni 8.29080268543192 6.943414282790649 9.337707712973128 0.14147238034659507 0.7075148823710719 0.5589773676475792
Ni 4.607281991554298 0.2272027843438465 10.3817293530516 0.02175101852384641 -0.17406676934284862 0.4435361212574232
Ni 7.961136894362857 7.189819431803906 4.802466953482273 -0.05020541720979741 0.36080984860178505 -0.07259149821448144
Ni 7.398908024706037 6.28058823421417 7.190689427204751 -0.1308634944824972 -0.1817219718952612 -1.3780670714748653
Ni 2.5718367684098826 5.279821932587653 2.5190920524432046 -0.9512670320252004 0.004166986893496049 -0.2988940849335949
Ni 2.4339230333790955 5.00887404130917 11.44721570796255 -0.8761059733113298 0.3959126058421891 0.8231607885728662
Ni 1.1939125230313894 3.4394421714826473 3.728898060653802 -0.6747526003383862 0.32849725251200845 -0.1572602393084711
Ni 3.8738061603744134 2.603812041623007 2.5480698701181455 -1.0674636685241423 0.11720322338658525 0.13604066780806248
Ni 1.3118733978804873 3.392973010270029 8.207508547195228 -0.9424712881104415 -0.4541653188364953 0.040690792851142826
Ni 3.6702218047637833 2.590033342350534 7.011270302847743 -0.005436854744855154 0.8988491805451165 0.20491460796164063
Ni 4.075851502268669 6.909492609877406 6.144759410117975 0.14409362001952603 0.2391539887604849 -0.7045290602698705
Ni 0.7138678911311002 7.6425248429860995 11.622659650420385 0.5514733459610502 -0.42690468334832926 -1.2533248593987576
P 0.2647031167987519 5.431052662776001 8.105376881070125 0.30666370157668477 0.43275805680531276 -1.6708447590980775
P 8.659016243585208 1.610514483031833 8.103230409586876 -0.08645257246728982 0.32470307557689887 -0.4745924763425955
P 1.5967719958468038 3.0503885570052893 10.513050677563191 0.9527811546768817 1.007937231023735 -0.555032009846586
P 3.9844702996035286 6.347942716860162 3.849142107616249 0.34578997815418516 0.17961495285458742 -0.850591116869677
P 7.009392706113767 4.0879463394749935 10.405142278188572 0.28543590254616 -0.34630625566897133 0.5051168701836979
P 6.382896434265563 7.641691964974886 10.212089302908867 -0.43561223842465624 0.3597482401064901 0.11717519836212723
P 2.1901523137273955 8.384094075709736 5.7778404340908125 1.942201814953668 0.5408510903605137 0.21553377823838366
P 6.898466029250682 3.900141400968122 1.5211937481422597 0.17390093318894567 -0.31137421967847667 0.47344576433266206
Ni 5.364485793031917 2.7506520562087604 0.4335247737652491 -0.23823816181443488 -0.2125142746857695 -0.15577954099788657
Ni 1.4337542311954068 1.1330309510160261 6.962868321467797 0.17815739447245443 0.08106431157218298 0.18729509510766454
Ni 6.9052014775152815 0.7748218873213515 9.156858211162078 -0.7134775277124099 -0.6219771084085675 0.11079243476423502
Ni 2.7118236454468434 1.5751805387082698 9.235126111661533 0.2852775225914248 -0.3512340319878919 -0.1344923494843361
Ni 6.222657947325499 1.8581327369744667 2.6128623475774693 1.125957550994977 0.5682197121814536 -0.5901769331788351
Ni 4.15072904608117 6.854604138334038 10.372785872755099 0.38640569479301845 -0.2497759872507053 0.3819787693699163
Ni 8.093492073970976 7.149452007325616 0.31361206740291536 0.47484110201829194 0.9028485315124968 0.8845962701705282
Ni 7.676980644189144 3.6891878855626214 8.267225900599264 0.3691708189719707 0.3025915883898401 -0.6694499571785503
Ni 3.030336113583129 8.411606209145377 12.302424808201023 0.5888546148229858 -0.385187249004885 -0.10444618083123303
Ni 0.12255256753700731 4.786061067265731 10.12396356690495 -0.0405727792160398 -0.89420936778026 1.9003367992887659
Ni 8.616503252925856 2.4123677883280057 5.810753600368739 0.39892439608531943 -0.4733341784554622 0.1712105308409761
Ni 3.626921201202522 2.7418887310472924 11.510087134182967 -0.27659207900228494 -0.9485959129509404 -0.2722499999835053
Ni 1.1623989539331772 3.2730657357208117 12.925943541159137 -0.6314385109317835 0.60730176578458 -1.700493949423078
Ni 3.001565610108806 8.326824659416921 7.954724638978696 -0.42631667205534324 -0.25762376542989823 0.5459601294523049
Ni 5.638430234546399 7.888748931562136 3.5139431095857296 -0.21918114518298384 0.4754563670047876 0.592739808810005
Ni 2.9887284251098785 8.373502040132342 3.519653755775662 1.0866739229040059 -0.016550705269829557 0.6151328317932245
Ni 3.3909722924387435 4.273478969494748 9.382691273298354 0.27004759301554787 -0.1235240233982905 -0.720113802082005
Ni 7.286315591820525 6.067498205649468 11.542019858193346 0.029065292797072526 -0.39357058797257377 -0.9292799862311479
Ni 0.538216634472649 9.203935735443757 0.41724381925038984 -0.2203797934767753 -0.2777537034105539 -0.18383053359783177
Ni 4.633218899186121 0.33625095917076947 1.4134980947813733 -0.48759325947763765 -0.16118965626986434 0.36758907630714754
Ni 6.118285658289793 5.605576818212755 0.37880106721975215 -1.0117589187626705 0.045937128851746695 -0.31576592098826906
Ni 7.818850549773197 8.786872071328402 11.34691365755556 -0.41369101287153265 0.48501958521319055 -0.06467867112530798
Ni 9.079547215073337 4.853515133152195 5.776726912401907 0.3038493720563412 0.3269900718388627 0.11033606395310674
Ni 7.9662609047361945 8.987577565987227 2.480018304788854 -0.13745477454676971 -0.6063841390663169 0.20888079169824028
P 8.477376412965691 1.6628137903229485 3.651769935606651 0.6520297048195739 0.539813907345251 -0.24398663426243783
P 1.9444714064630197 3.34454839633543 1.6203306746357375 0.47794339509269945 -0.5160934237998596 0.688162445986389
P 4.705371483418456 1.0493629229764745 8.402442740417653 0.5826163472227579 1.0341038621167737 -1.1327984851762103
P 8.491870300965187 1.5769096658837247 12.352774999885458 -0.1938586072577952 0.3504986964837641 0.9853434048836192
P 6.318122062849961 7.818941079991807 1.4297690909721856 0.13953274012172098 -0.7609262081126766 0.36689976354960685
P 1.9112287101893524 3.2499624239314873 5.784293428073347 -0.3868101293202887 0.6448223884378572 1.5618541534292714
P 7.004341119915318 3.959547330420139 5.886344522303888 -0.7130234708941269 0.41045939330811243 1.2205399516582527
P 2.3168674607160997 8.290286663185842 10.102670859487827 0.6025565377901106 0.6756923385438364 1.5840692560737297
