# total energy = -340893.1328919443 ev
CRYSTAL
PRIMVEC
9.02515474361546 0.00000000000000 0.00000000000000
0.00000000000000 9.02515474361546 0.00000000000000
0.00000000000000 0.00000000000000 13.20922624390747
PRIMCOORD
 96 1
Ni 6.310704158568069 2.0431145572184453 11.218873078935049 -1.3189903199173671 -1.0603260290380965 0.33260253292963365
Ni 4.855054981500092 0.4728829165627413 5.946040971416719 -1.3437698408548922 -1.1978108854918532 -0.153858926936406
Ni 2.9344749518165654 1.5991130387233545 4.726419449279779 -0.83209768605118 -0.3527116449746829 0.4526126296373947
Ni 3.492500276813546 4.109315460568902 4.898641966896711 -0.08308134200221176 -0.5691046858895682 0.15927958373134504
Ni 5.262459497037675 4.444284083199711 2.6766253749494098 -0.9897402483997341 0.4136969264088037 0.14664235458330876
Ni 7.159050665103184 6.038442311904897 2.588361165449079 0.6373607899534895 0.47990231859128324 -0.2973840760469717
Ni 4.993762586544223 4.620428030603335 11.473256996335946 0.7664188557961317 -0.7536846960589149 -0.19533390625174102
Ni 5.545434202519727 7.782273708809177 12.47843903396709 -0.7296749634078789 0.6855406920928258 0.23750668296504907
Ni 2.0354431755874014 6.344719967235602 0.6373086028960745 -0.5315215854294717 -0.17348724269029478 -0.6807594686540985
Ni 2.6416357520724763 1.6542477097634087 0.27130337521703435 0.10263303888189422 -0.7063146914153836 0.6774437740173042
Ni 0.7970087181446848 0.013464628535710744 4.592583622829104 -0.49359601402829184 -0.3910131116580427 0.9758537202256291
Ni 8.47400670305782 2.239005543455862 1.4761046905582833 0.7836064233190118 1.3389261396093457 -0.5546604854397802
Ni 6.928873115552432 0.7878581136320786 4.636213928969051 -1.1940007677171436 -0.9613480704102862 -0.30772325318945065
Ni 0.6594825058717348 7.472981651755213 2.7044968581882207 0.03316774500122029 -0.22955400377687563 -0.47791691273013814
Ni 7.623494159356291 3.9878639516171894 3.697474178902118 0.6153290069644306 -1.1287939920025076 0.6572243616466359
Ni 7.530914120801883 3.7292571642572754 12.498953210963988 0.9468491054631629 0.36459271268298493 0.3677829374855085
Ni 7.835955329916763 9.008377097166605 6.661175289701989 0.7082867275400899 -0.4603796751773232 1.1376126187354023
Ni 6.713478769662445 0.8394883170399748 0.41357050133796924 0.3837458885726681 -0.8508919359395475 -0.9123261319856288
Ni 1.8138395231536981 6.547100039817396 9.366331886710478 0.022554231151432125 -0.8002658862525637 -0.8372324361745839
Ni 0.10757984593181318 4.899503869185846 1.2110440149579467 0.1910566190326258 -1.566666230105934 1.5479989927137339
Ni 6.294197150329034 2.019288148387909 6.800281806590934 1.1893501563190096 0.9984200355619194 1.1892313713529583
Ni 3.4707496536008224 4.19132704278219 0.4880857899244979 0.4074630296839499 0.2637640739996812 -0.18544647193469996
Ni 6.092972297569328 5.739384780462233 4.8585251535437814 -0.8389180514071229 -0.2950181469179564 -0.6531861870215202
Ni 5.358279566186841 3.087676955565939 9.098647598592326 0.3090483997587774 -1.0260390828307684 -0.7087343566004697
P 0.2492260413983765 5.613501920474235 12.364403494763884 0.6050047422202871 -0.881632559556514 -0.10076821775901355
P 3.9059426209525028 6.0764111384011334 12.585579354857218 1.4639907680218787 1.1012129970604454 1.6673166913401607
P 2.21063948173072 8.321752340568752 1.4046958602745845 1.4007611706382714 1.1777408542148555 1.026056052111633
P 6.3255595634677135 7.814204706704038 5.693612805073996 0.41149091989642034 -0.18936431893186742 -0.04197865842463094
P 4.5097886571739645 1.0348693820277985 12.506204922894039 0.906646050881716 0.5771985186412962 -0.9445114584689217
P 3.936140789114235 6.261363636948168 8.15043594849977 0.32360135787228783 -0.7841023891188238 0.822546552027635
P 4.7359229373474125 1.0436508577066286 3.5967796236130383 0.030333617986534854 -1.7386488632262445 0.42286265206847173
P 0.2036309590453966 5.520551850570565 3.535805677378531 0.8434943579238957 -0.8172487939638055 -0.4690664043180438
Ni 1.4460825129163222 1.1958871698859763 2.6298516073717075 0.33657077354876225 0.17208830546023912 -0.8269138278573952
Ni 1.8449672822660157 6.233728612766691 4.788265225473768 0.48410272982587593 0.9577176727465505 0.7250837444927706
Ni 5.912803131098121 5.675306180955867 9.16292294647464 -0.0633964619787747 -0.7049280954805021 0.5325716239605409
Ni 8.443700233037767 2.4252305888381627 10.351265086897612 1.3540691658983712 -0.21147194946418418 -0.9014879037195442
Ni 2.408407700179027 5.132695820459855 7.026594784830611 -0.18806282651162448 0.5313220678241558 -0.031341747536075056
Ni 0.48325823458985645 -0.16108457400414214 9.32881792801919 0.7000784806976846 0.8355416787357224 -0.7302637460318132
Ni 1.4613801504041095 1.1015652764435786 11.365416323428677 -0.4326266734337711 0.3296102830705291 -0.04908775866558643
Ni 4.237887816705195 6.641160203768853 1.8550375500588612 -0.010196995137659856 0.2695315726110778 -0.4445802462512214
Ni 5.727606953369866 7.747201957023016 8.155693101205749 -1.1385202181513359 1.4031381555108802 -0.6769701768149955
Ni 5.571787654711077 2.8252615528550833 4.567842965811245 -0.982328015096063 0.8358998334060894 1.1152969859573372
Ni 0.733205385861551 7.44600546387852 6.932386608339451 0.2879424710180976 -0.5912768511112333 -0.08367783793563009
Ni 5.0571372239715044 4.663270440723998 6.886141714836547 0.056676112535805616 -0.42930763636286706 0.3956313271563444
Ni 7.944925049697024 7.055044780495951 9.219471859281263 0.8929970926397137 -0.014396635041304237 -0.04222548432811437
Ni 4.346198700180672 0.37811518047025716 10.318361177308837 1.5742185885318953 -0.08351303022299165 0.2859760913203462
Ni 8.224118215292716 6.86871143325533 4.762890100069247 0.21196740104336398 2.1637339768673316 0.3500212426267133
Ni 7.408199090169764 6.302951550543285 6.991670143068671 -0.774427327922905 0.25879721691270907 -0.24710075441138735
Ni 2.547358984404379 5.1124433729539 2.711682686487794 -1.2551328591417739 -0.5517093732312564 -0.4928254544108544
Ni 2.325168696904773 5.270275281146478 11.51487920551953 -1.4817336938275965 -0.4013923980098377 -1.042514454777972
Ni 1.0207269643620978 3.3481880506013235 4.007110996871735 0.5320504613497482 0.5089462712321171 -0.7680401934496386
Ni 3.6978586504991564 2.5249314745771514 2.476716389768298 0.21890912246851973 0.5545188176555934 -0.17699988382924353
Ni 1.075157673323068 3.4740799357441814 8.122908323661125 -0.324121492041816 -0.7288529817272157 0.716544853783824
Ni 3.7411974441371236 2.519660784138881 6.963719238467091 -0.3335831516753481 0.7328811290500024 -0.10504961874318682
Ni 4.32818449108001 6.962356440083223 6.10795946972993 -1.0167715414859135 0.29756919547458427 -0.7288838349651511
Ni 0.5271069494774163 7.468243445453687 11.260891492416992 1.7731453543412172 -1.407106396130009 0.3498682619886168
P 0.21005686930575326 5.559883475450669 8.028422172400276 0.6988258392375061 0.980614374839066 0.2595744613983659
P 8.654374422935946 1.7552933435765445 7.9893631071969455 -2.0640127123155936 -0.6364565329716652 1.5503798342410848
P 1.5415867016453864 3.4249740681506413 10.402371831323626 1.5665438455954568 -1.3153640360186893 -0.744513313972292
P 3.9557434254702666 5.981529685357413 4.071466668632304 1.0705957863952207 1.2927367855374767 -0.9310545616330675
P 6.854352411872988 4.027673909704877 10.297371374650815 -0.03273579967012427 0.23258764839687684 0.6162129522312807
P 6.31780695544293 7.810341940423936 10.477624475062221 -0.53252585832427 0.24529661132311303 -1.446701899034444
P 2.6099484333588356 8.490955943884996 5.859546594784444 -0.7858972762357175 0.14358197049043014 -0.9791413898379653
P 7.038330193695137 3.9882159326567317 1.545703977292542 -0.5565142508190674 0.4344328734045743 -1.3713040417194189
Ni 5.457917275841808 2.7986734466373715 0.22869110654530145 -0.9531249111695457 1.0591242954205116 0.07395495422091135
Ni 1.2600108951666418 0.8167494393700752 7.142109546915382 1.1268332687317109 0.9775611898350389 -1.1569020630926334
Ni 7.112471840870459 0.41324740079397937 9.141973757013487 -0.34758435105044655 1.2751681805260942 0.2827411293228163
Ni 2.679469201245812 1.511830766071797 9.052454148472123 -0.3851769645922398 0.524409914085355 0.26064275476188015
Ni 6.1527278478977285 2.1047744152223165 2.428939024970158 1.1001639869706408 -0.47601661038363174 -0.4114011883960915
Ni 4.107826310016993 6.866572471553497 10.400086662113061 0.3796318664042946 0.3155903146423533 0.24804306371999865
Ni 8.251554686067271 6.938755660124188 0.4447298484922968 -0.05792386889997766 1.3241458959763774 0.28947587694348853
Ni 7.536293113098474 4.090082855562132 7.9965353977642275 0.26047537594608045 -1.174070861562436 0.7502787557011595
Ni 3.019988294115553 8.246789404301165 12.490789958393073 0.3797596502314105 0.14880825188637598 0.7644920710870641
Ni -0.11111048651306529 4.890749468971595 10.259037931898234 0.7656295271256168 -0.005254306420403854 -0.6345683148100167
Ni 8.477670915931 2.2585630540375927 5.755114722867817 1.079776167342908 0.9260450242336181 0.7068376537983891
Ni 3.4543328969103886 2.7472210387802183 11.234962222504063 0.34402902959902043 -0.3771096142030731 0.5783621999320943
Ni 1.1522956719119277 3.3120423053868175 12.64578706544411 -1.0082653037871152 0.36361723614359315 -0.009867379712383006
Ni 2.92473680972257 8.238874343488899 7.996918064330293 0.9940859269629396 0.3555647981527618 0.5019544132953162
Ni 5.676407249848793 7.8778230233125415 3.3959464625742575 -0.33785015448181815 0.6880212924228344 1.2046983566403058
Ni 3.1501129768877747 8.41262662485461 3.5445113417565364 -0.1581449559062696 -0.5220745810839589 0.06767889140421247
Ni 3.633256592010908 4.450691943150347 9.403027263855963 -2.054816390528306 0.6244422821196084 -0.46271089441366114
Ni 7.229762753431688 6.097087768185512 11.477192866370414 -0.2046289584004218 -0.204045575093126 -0.14412267348524857
Ni 0.41472301361359776 -0.020174831174158987 0.4624471299980638 0.3288746904560852 0.434697954140503 0.07289051751213897
Ni 4.5117290654688755 0.1669193366211654 1.2550308147148652 -0.6053220163503897 -0.534223300631351 1.4460768638559354
Ni 6.061555733501489 5.7025531234783635 0.33510761001565403 -0.6237779090627321 -1.2254895823540444 0.6437638652663558
Ni 7.910999492578091 8.761178105549796 11.754811142443026 -2.0314386350343145 0.42452718425508823 -0.7705639883127569
Ni 0.01274261614690663 4.806201818242633 5.9203490630766105 0.5124085187491046 -0.6888545869574071 -0.2209400368556195
Ni 7.770495881716809 9.13237369978885 2.4598745482839566 0.9277890035079183 -1.11760995036123 0.06404900796110904
P 8.485847706234207 1.7672336234563928 3.649102056398701 1.1452559942132727 -0.14420854833083552 -0.7111056850461237
P 1.8667449809433199 3.288288097795162 1.7030259642355285 -1.3590352516543949 -0.5200282400778915 -0.651056285162711
P 4.851535171104672 1.1575753875050576 8.196681744518159 -0.2694726943486843 -1.24600338603668 0.937367905445605
P 8.544664640457162 1.5870464066754657 12.467277624951665 -0.062479606591460145 1.5315074228166141 0.1646634737510777
P 6.473707480495459 7.744593687268462 1.3701006366650352 -1.373886971955247 0.1555507128165321 -0.6853668855191228
P 1.8243357782559382 3.128994114515254 6.031333197421635 0.0658652352342414 -0.13852666745470982 0.21595029695051193
P 6.926373147656198 3.9737847100355093 5.883309827530959 -0.37712864036646665 0.3216524616760332 0.28469722460792257
P 2.4475858974265106 8.378962797226617 10.471666970339102 -1.7134299407584557 0.3517212560369556 -2.0761835433501727
