# total energy = -340858.84765237564 ev
CRYSTAL
PRIMVEC
9.38756331731018 0.00000000000000 0.00000000000000
0.00000000000000 9.38756331731018 0.00000000000000
0.00000000000000 0.00000000000000 13.73964782432137
PRIMCOORD
 96 1
Ni 5.637616747065562 1.1108397716342682 0.2794809067550553 -1.0162794323408433 0.8338576061650801 0.4511859244931971
Ni 1.612210760837799 5.967542664822416 4.988481753996332 0.5309690553601113 0.7538235356296243 -0.508182396482899
Ni 8.432829479844841 5.233097250065686 2.066030924853855 0.2230329148289062 0.33716624104091614 -0.1657327955558565
Ni 2.978852249158837 2.709438565456917 3.0685851519917415 1.2003619340484812 1.3766336814624482 3.5403501748282835
Ni 4.8004432253800156 8.298474671623582 7.785942808223974 -0.6615201608085124 -1.3217249452397108 -0.5099649423046185
Ni 5.775257202497373 7.329086706185366 12.544930553370266 -3.293237593342354 -0.4322350944223072 0.7260728478789173
Ni 5.156213105338737 0.8053703342000813 11.427265084345159 3.7042438602928724 -1.694445943456785 1.3732750494028607
Ni 5.055249860340161 8.268368755611455 1.0960487266487025 -0.9432745007380271 0.9148401566567341 -1.316678641065055
Ni 5.53838081374339 4.094263764197503 0.19200195790858995 -2.4442793840904096 -1.0381417796315735 -0.23418816011477733
Ni 4.932826645274941 1.3123344337123197 7.230242234259425 -3.1217655813098752 1.8242077202346714 0.15026606737882509
Ni 7.39512821511749 6.241481154111441 4.409670876309096 -2.5174408958757484 -2.750192837764631 -0.07842610261838752
Ni 7.664823525723172 4.196193928232328 -0.1585399879599683 2.572939186053369 0.4965787508056996 -0.23935582035864586
Ni 3.8686336764670726 5.017568180616843 10.219989689568456 -0.9179427068414578 0.027371192924101246 -1.39115270101423
Ni 5.4306866857449085 2.6351547758080343 4.832399430149858 0.15898030732337134 0.8514843181079078 0.2262640201716942
Ni 2.753316037062993 7.558800384020343 1.1207455285959136 -2.5251966285617673 1.3006375284417921 0.725888242671937
Ni 8.734076391235293 6.563662332014848 9.731119179866562 0.8637032287716028 -0.09074014409905018 -0.5594892742869912
Ni 6.248906716807292 0.37100965047761414 8.94779459969295 -0.09416768172336042 -1.531469370489827 1.471785067255317
Ni 3.2691720366833352 1.7322495347845024 11.71321496107962 -2.178884716465841 0.9742544940593092 1.3851376051684017
Ni 1.590300187725137 9.296344504595567 12.275193937485366 2.166620040165875 -0.6495488473792491 0.3187743687972897
Ni 5.68471415293798 3.5130609353409836 11.106636609437825 1.1138923923003268 -1.4996360280293142 0.1813663883280554
Ni 0.23150670245559224 2.5632366521507497 6.661599965310677 -0.5920471536183546 -2.080777076258126 0.8993268915124835
Ni 1.2732070692163582 4.514948645473301 6.991090300123048 0.8851894236698369 -0.38966122561583855 1.3869558893240628
Ni 0.733899997319778 9.081237875502365 2.0943072047478775 0.9521859442950441 0.36750962921946384 0.3731588570854412
Ni 9.09767549911859 7.516143295663902 0.7151417680165557 1.9449883765598697 -0.5011530004399433 0.9245820665348464
P 1.685978234496452 5.900956677209686 13.95838312687823 -0.06433208641916663 -0.9997433823590332 -1.406464648780952
P 0.7238271417285672 6.89007730103814 2.676098633833259 -0.24127489175822964 0.555072119055902 0.9858951636220311
P 2.847341872665573 4.181746468069353 5.667920740666668 2.766645841114332 -0.041403502647451275 -0.3568626910285789
P 7.2776053081777246 0.7198430597966846 2.9182048341900964 -0.10539517500806364 0.24042668482532142 -0.3272399830661396
P 6.97622697089885 2.2311797574887646 12.853440622608732 -0.6761229983233518 0.5742396931232885 -0.6824792795586827
P 5.8658378023106 4.019388558050721 6.842221380038256 0.4959912537333458 0.6871265485227069 0.0394710615114288
P 6.2044659913936915 9.45721917958772 6.421196668965253 1.5301051431524486 -1.898121536805002 -1.1382047437934462
P 4.890404246004968 5.2437333594644215 11.986523544860564 1.6882179602692022 2.2544116431595627 1.8183661738522299
Ni 7.30389987342561 8.006803074961027 11.193279126380117 1.626679634545089 1.7463313194721668 -1.9472357778331495
Ni 6.448608354264727 3.2649382455634504 2.2881050035461215 0.7257170072013954 -0.2128490323173689 0.784560816812481
Ni 4.868559385836517 5.11535842916637 5.1856046277716565 0.06969335073107998 -0.727147826110651 -0.48853351190371996
Ni 8.175882480416107 2.3851639609022146 4.70853616285007 -0.3741147932408073 -2.079812398352012 0.3545304433509765
Ni 2.5988906181669833 2.855030287138267 9.629940959664783 0.21508126408199732 0.1075397321548922 0.6007935323524168
Ni 3.074783760143537 9.31543880867061 9.28183320900107 -0.2754286548218031 1.3712009404826515 -0.4747243739347695
Ni 2.3160527187190882 3.485818226183767 1.2608943409838957 -0.25068461510790374 1.9284826655953624 -2.7280350707206695
Ni 0.4606214537419016 3.35263686339485 9.174169121205656 -0.6243301820217764 -0.5119547190411378 -0.9630159450310125
Ni 0.5603915394248743 4.323892953961351 12.021354221561468 0.05799714534007431 0.3553817356076783 0.03718226547725209
Ni 6.554669046221391 6.3604121955700155 6.824730471801963 0.40711387387464726 -0.8487525209990415 0.5980144269453831
Ni 2.9482206295930204 0.5177992252562976 0.8501875009083755 -0.0013079201781461345 0.47034115726540937 -0.7576195123369468
Ni 8.402169697588647 1.0081586025227451 8.59022043003746 2.542391909394131 3.1628338121050947 3.0703694862260864
Ni 8.84842630172601 0.23001126359661753 12.724480847107204 -0.7769742627144749 -0.03912370547433907 -0.15094535283403682
Ni 3.270833635415529 6.168652436798661 6.744216156285525 0.54354303537038 -0.9851947951208968 2.16212292362647
Ni 9.00468229549647 6.882905202555675 5.704371710820547 0.4871883107297352 1.6481115791666199 1.204412449968771
Ni 7.235755550278734 8.926634092900638 0.5038765298906641 0.37628737541209395 -0.6500970065732352 0.6393173994592279
Ni 0.004936919622942945 6.595195157672702 12.28673500800152 0.6335115914107283 0.5865133682843189 -0.4503832260862437
Ni 1.5517079143463226 7.811485429638817 10.332916445438832 -0.5692188428699294 -0.04104174843265835 -0.34465432188784517
Ni 7.195895955832991 2.267838192795082 7.03805252508166 0.8983357312438076 -0.3827884097554053 -2.4905271022040396
Ni 3.266308829828424 4.093559696938099 12.509152671516375 -1.5589089547580184 -1.0988992613256043 1.1132863832852116
Ni 1.655872318484324 5.493742949497158 9.280019531740844 0.4009152012631031 0.5747554564174424 -0.2284857104133613
Ni 0.9985457375410118 2.1538637848427142 11.259544998078905 -0.18634532959988553 -0.17676411366935363 -1.908546588793068
Ni 4.60317296685839 0.4724845176846911 4.94983221648042 -0.9565994999817073 -0.7547295923836616 0.3492216295435534
Ni 7.94440394065089 1.8675712620420089 11.037540387356232 -0.47239058359527025 0.47309660852335933 -1.5637099756910877
P 2.62495988189186 0.7655360861756779 3.005630273924847 0.3765419146250612 -2.3235480929459085 -1.0330062581772208
P 4.4121454380368155 1.7440215393617422 9.7478271653104 -1.051173416004551 -0.7628661054478668 -0.6918164977992086
P 8.025127598832457 4.008010831138748 9.873860837281844 -1.754725971293765 0.3424228614541651 1.2009358042740803
P 4.484166824892146 4.200315068590708 2.5916546842529993 0.9577017319069505 0.5378747813410092 -0.09861131931701081
P 7.474331088018745 6.7482781549941135 -0.2565039064334825 0.5952304364423426 -1.5646391723735764 0.3974660663722381
P 9.426052468904755 6.059644049915957 7.685326903073371 -0.9661691459480134 0.04805186120190434 0.3386073443628168
P 4.140835466516233 7.184968831967037 2.837319709917039 -0.06552687805821618 -0.4874986428813024 -0.04779912176114994
P 3.8891736653147606 8.536421242611858 12.732106364904725 -0.6194265740725718 0.6006176688961848 0.2765170027899754
Ni 5.084445182696792 7.486703896657343 5.412280490071389 -0.6146708045551413 0.5874996434569882 -0.3376166983147734
Ni 1.2200265222226867 7.892894379952871 7.644644019312299 0.8076876326379315 -1.1238561883812581 0.3274451570984102
Ni 6.011401361301575 6.3155771924911495 1.9426079342802813 1.4809423082745528 -1.3942375105871407 0.5115788237589576
Ni 4.622774199360205 8.019128945782333 10.368116992140008 2.2944270072102353 0.125054601110204 2.154779595887521
Ni 7.268283457663212 5.6379265366597 11.291366021934941 -0.7835568010279989 -1.4017111932563666 0.6981121009999333
Ni 1.2838901164323862 3.2921997298475847 4.723347860475245 -1.738632151055696 0.3233308778197206 -0.885127974304282
Ni 8.18909078220253 7.907492041131187 3.306295156380859 1.3566155864693088 1.3982391755473662 -1.685230338395788
Ni 8.34572227851134 1.832996865823528 0.6650872796546394 -1.1551547413842234 -1.941020135940741 1.0948384609926693
Ni 8.365492487155413 4.501083214244766 6.3714867041822725 -1.3749298113974644 0.5062134456819862 -0.619512706028475
Ni 5.91733797544516 2.6872182027501172 8.754574136047417 1.1528649169087823 2.549804399808118 1.7603404892670649
Ni 1.066896587083981 0.9456937552683957 4.3868769334749675 -0.8708825201288616 0.04389593005200182 0.7606022491143546
Ni 4.192560941173802 6.025970859789514 0.5998699987941921 -0.15583147728174454 -1.9953406037601766 -1.290202192041081
Ni 1.4868680135369161 0.8538195492105558 7.706458308418958 -0.14921268641364624 0.7689969009359531 1.2609633497806219
Ni 6.013062960033769 5.139916295174392 9.116558583015815 0.7837732879141791 0.09219461715738961 -0.698539418345339
Ni 3.7709748538059666 3.551136892729568 7.745218619183684 0.3783452863823871 0.903380749866883 -0.7357826189675134
Ni 2.6670818791311546 8.310988293714061 4.118816936423796 -0.4868592095250906 -0.9029853142006771 -1.1451834891041246
Ni 1.2024623909914143 2.241271388206893 13.375643553883519 0.11329411814016618 -0.4109597299832987 1.5221105549827463
Ni 4.9271190066920365 1.2011856823610279 2.7513915865539547 0.25546352455378585 0.31312077005593814 -0.6922402156001884
Ni 2.809134489388566 1.8876700354071367 6.178912104902699 0.13891901779712204 0.81210350231744 -1.182158780776893
Ni 8.001273800083839 9.519270974049885 5.21962328023338 -1.237105826436734 -0.18177673639259662 -2.5210751501942257
Ni 1.5370445402237958 4.872098497260455 2.9366438863357223 -0.8334565140719195 0.1622911168641592 -0.8329595198308428
Ni 2.8216387239155862 6.566854103590814 12.069277733018254 0.089474132902433 0.4176032034417453 0.3518089306547554
Ni 8.151418490042671 8.795499218945723 7.361675632732328 -1.6996827663756922 -3.8946541039907503 0.10348818779333789
Ni 5.832802966499351 8.339873826476556 3.3387207393236373 1.2290425898126254 0.6823237278174249 0.647703052419762
P 3.898617554154237 2.380254265213302 0.2749673662441008 -0.4909490633237481 0.9108603460733797 -1.3991868841726163
P 0.4237226968110411 9.230866249470965 6.141773965103642 1.4138097762921136 0.10448423315802007 -0.20027968029279056
P 3.5513434191256605 6.927834081269127 9.10433034285448 -2.769981590355784 -1.7017080243358371 -1.5323121781060967
P 0.1610464674034476 0.3328623476067434 10.600413188682479 -0.32993398495853504 -1.4566883208231944 -0.9474306889982456
P 8.20174521774489 4.0970894207985795 3.843954710890433 -0.3432119330143638 3.533040014320115 -0.4825551828330979
P 6.797515925335122 7.26447210689897 8.921551666044087 -0.2763126000886532 0.8494678018985112 0.3459450156748106
P 0.1059593062713094 3.242811758491238 1.4682459039038454 1.3122370603539335 2.3606252003038635 0.08914991679379485
P 2.9384481760324888 8.08712306791387 6.158343953364635 0.6879598430572798 1.203912627514217 0.7351401002875082
