# total energy = -381170.5651632525 ev
CRYSTAL
PRIMVEC
9.28572845232801 0.00000000000000 0.00000000000000

0.00000000000000 9.28572845232801 0.00000000000000

0.00000000000000 0.00000000000000 13.59060220579623

PRIMCOORD
 96 1
Ni 0.15811924369115166 3.8845638439779493 5.593973621353369 -0.005454338246351897 -1.1636141850054862 0.7524449101145427
Ni 5.412753342059225 3.9099695974186526 10.290151930465814 -0.6730070784021893 0.7552430416849703 0.6188437049859085
Ni 1.9503837201896377 8.225809106072582 2.6297136957348575 -0.27486866855327496 0.34933192986917255 -0.0018180270453452563
Ni 7.065028031378851 0.4837511741219257 2.0453581522771804 0.3085493486351718 -0.46364111953741444 1.253327687612235
Ni 1.5527688216768698 1.6006460383217045 9.115584334524492 2.9136620340972916 -0.16687539380073196 -2.5014355215864277
Ni 6.976544323580435 2.8535415406951805 5.561532999927767 -0.7453723195384776 1.6318714631586735 0.7166749516037851
Ni 7.998002326408554 7.489404399707448 10.622537371305006 1.13648107623412 -1.4544874565171337 0.1095829878371661
Ni 6.385860556084074 2.2144698414811628 0.6313691873430145 -0.27637867743989825 0.8928500255388881 0.330849811904585
Ni 2.9625745658782003 1.1338338903059675 3.9694484033722652 -1.298793276144202 -0.21904204850195824 0.22334196142889282
Ni 4.6569507486554835 1.5103608991755195 8.826117531259474 -0.28869323314119316 -0.3138044263865241 0.5376058439503387
Ni 1.696929758141389 3.0859447560146003 2.8137438365023764 -0.22539010220717312 -0.1453370055083239 0.03603915301174439
Ni 6.895433484287838 0.8175759028936109 4.6804399277138184 -1.8292388549006755 -1.9107112005445541 -1.8899814241963708
Ni 1.8132985089158404 1.3962300089928845 6.568718837902684 -1.4593090462754932 0.5831097419194087 -0.16088060966987774
Ni 9.084525429514088 5.955597035825139 1.1130375725406896 -0.2229421548873128 -0.28368446707269207 -0.8628331674618236
Ni 2.620646181760133 8.536472442005397 8.265546453029508 -0.953217470883352 -0.3884906023465051 -1.3496185863261854
Ni 9.263247847815705 1.3259091863297088 10.382771501781223 -3.9790366813028895 1.4589856014978033 2.8834793398663243
Ni 4.343009550528016 1.1963732724050682 13.094491181045404 0.10683936365375793 -0.8748530747408352 -0.4493671261169035
Ni 6.091326530723811 8.502013103182865 11.86784364769636 -0.34828266266905183 -0.21788376652779895 -0.3309806810554945
Ni 4.0475748094938675 2.578498259659492 1.7287649500624813 0.5664525929787018 1.4453039902456528 0.06582178359081567
Ni 5.5032984816061195 8.678116946020198 0.7585836691184681 0.2529248172923322 -0.5624121043607411 -0.6210671949997885
Ni 2.8894865960931932 2.134733290020884 11.206566057116076 0.2292020197540956 0.3739648979265043 0.5973755078098035
Ni 7.084583775803604 1.2235526000077508 11.99338019831438 0.23167284989209136 2.6441980814993555 -0.01261717454337827
Ni 6.852663418371215 2.2779006535255517 9.552154721646339 1.1685951831598453 -0.5646001131509953 0.5075704739305129
Ni 8.776127811358878 8.992643145049263 12.26555976065083 0.5658136738431223 0.2254970600986826 -1.6151700912435922
P 0.32861264931033024 6.655360257147504 3.038056396495449 -1.5755331935782608 3.0229179776123427 1.5510850878382254
Ni 1.5767724300994646 6.24337105076697 9.088837721874418 -0.11226619109628407 0.5661733711753862 -0.09484516740635923
P 8.674235511466758 5.479499159212653 7.489278113798533 0.49710711250534384 -1.064751668909618 -0.21120815427983625
Ni 3.640572039369787 6.763538995299624 10.21057880782884 0.2787538625402941 1.3349792391464557 2.366200637509112
P 8.763749935139414 1.087303104307661 8.268047099740613 -0.19898770095424437 -1.041276211495497 0.02529631267294353
P 6.035575016228933 7.002562935108525 9.952439267130671 -1.149093365681492 -0.618470895027522 1.0319335939383323
P 7.274031210634465 4.3696595916006835 1.9912130688295404 0.7611426949988569 -0.5447864208591779 0.4400412207302873
Ni 4.300963771441939 7.072215185312735 2.091077365596131 -0.5313261815892141 0.19543160817186986 -0.25897436592052175
Ni 0.9003925305294311 8.661969063990453 10.065866299085673 0.6363778572149299 -1.2743243444685601 -0.1789420951572789
Ni 7.890789304030496 7.971500856993433 4.057936754034979 1.3672998056560322 -0.45391103673384403 -0.5356482060033355
Ni 8.718361293758507 1.2291611800801867 0.5695383063358458 -0.0025299655107053204 1.4197929904587419 -0.3471495775058731
Ni 5.101115004623751 2.2884585269400546 3.850611505936798 -0.10054633155619458 0.7507423256011393 0.2564030056489197
Ni 4.396411775687916 3.4365831535564175 12.715666882921019 1.4678409950059044 0.1067030951862098 1.3885736274331442
Ni 1.9565030153348948 5.028203463682083 6.800234337568254 0.7171182097887908 1.0787197010539358 -0.4939264007845171
Ni 1.987907349449098 2.1746897801726925 0.21884512299530737 0.3243472348993769 -0.2851073155621477 0.08371023383546228
Ni 3.7216828786623846 5.697212351892017 0.22690049255298664 0.062464951303440805 0.384467340119725 -0.7976045373703168
Ni 6.8353826774526665 6.725903937297002 1.8901267701796176 0.2701764052839283 0.11373017723632026 -0.29285842026247627
Ni 6.9672214520693 6.761087562950082 7.982630731289496 -0.6582407187262922 -0.9017892370100468 1.1287037462815463
Ni 7.298712677244622 5.893874797842551 5.54616140480871 -1.2888569908670964 -0.004216352074192738 1.6583944491498663
Ni 1.9874244915620671 5.880289776905509 2.2462409618749377 2.965783951603512 -0.9668947112601284 -2.8324383141291087
Ni 1.2638155192032519 8.84454505965972 5.210174958419702 -0.32071837989753793 -0.18560202367595777 -1.1278208294559608
Ni 0.2607497590067137 0.6007234972551657 2.690015217242142 -0.23324662213711442 0.18520247424469394 0.27591382198833775
Ni 8.672777652077068 5.419856924435738 11.810341773360994 1.5939880578493386 1.7725797116457342 0.017530809794911745
Ni 6.530885065308091 1.1477810546582834 7.224900420629069 -0.24946951175388002 -0.13323096627340927 0.574120908157237
Ni 8.589103951691769 1.0672180733528942 6.014032125884477 2.436162154299914 0.37521573961446997 0.846012239249743
Ni 2.6079061621253943 3.3244301235648903 5.008436004645325 0.46340046428151804 -1.0212077228803962 1.2453410698623328
Ni -0.07028925118594694 3.5119832697620152 1.071333508266973 -0.12100177119706902 0.10443769619080077 0.7146257823842402
Ni 7.899425031625472 2.6072654468522183 3.306430667252953 0.43258065068718404 -0.18513331156965537 -0.6603001723584822
Ni 7.302139111096823 8.369626470579023 6.519384690441018 -0.30062058070639835 0.0891997961951238 -1.6795929376043528
Ni 1.760713427872454 5.304036031648495 4.318183226551749 -1.4490259191819304 0.4019019906564046 2.1091661689237804
Ni 1.2659883796948912 3.7634036572475758 10.714368584262548 -1.0439159631111892 0.2639291388226358 1.7466061704001081
Ni 4.764758057663733 4.660544325622426 5.875788055681806 -0.042044735775875974 -0.9070808244262893 1.111067521257022
P 2.8986887531325713 4.418214666433081 9.32451229937847 0.748790344081091 1.3650886569373264 1.7009937718776316
Ni 3.5618197751407634 0.5325402493149614 1.5616821925568884 -2.2042990427738878 -2.29335151475787 -0.9031120695865285
P 2.603337583655794 4.07844057134946 1.1203862981521562 0.26527331155535605 -0.21967942497564102 -0.7573670300065085
Ni 4.9237947313402435 8.258374156261379 8.615096563179787 -1.1953835069972834 0.1473730621017462 -0.8262926493336286
P 0.5977511355313465 1.87041502551444 4.368468232621721 0.8444664920291779 0.21979563883853112 1.2009309191780737
P 5.06867995463531 2.653889090136492 6.86995437359122 0.1446482069714154 1.8382703689753246 0.06080504710251464
P 5.094020707975836 1.293529850712847 11.083843082262868 -0.09399978868692843 0.5099477159134379 -1.1452487951244212
Ni 6.953079287416452 8.9605516670189 9.148649885484653 1.8886081979979281 1.683056984893553 0.0066069637935563625
Ni 3.789589411890406 7.98056372810386 12.512378141043841 0.23055596267882875 0.10126983998578044 -0.22998286378417812
Ni 0.8885049407798739 3.9629539647916996 8.657267699601919 -1.3451222411177284 -0.47719906072750723 -2.93682021738131
Ni 9.009246027780248 8.318694249225858 0.7095819507405668 0.7083391780445801 -0.9439622708336709 2.9334968094350318
Ni 4.830398873114148 -0.004612221394004946 3.215278241055832 1.7575400437037925 -1.0468758170704617 1.0309917988503536
Ni 2.0521831627957905 7.460822927086657 0.30502318438315057 -1.029097667151434 0.27188875998934464 0.5450332467626614
Ni 7.344621319426947 4.748851604577503 13.481306777200155 -1.6635693084825864 -0.4466576976055404 -0.025413812087414295
Ni 5.727725256060933 7.030457263813157 3.9887330045219924 -0.43946092274678505 -0.95567287440238 0.6360788379172723
Ni 1.5359337957309647 6.835438391824246 11.558630742570354 -0.10158788544683149 -0.7730019083302881 -0.6339337665498115
Ni 8.126043238029117 4.8859368158513 9.529064828917665 -0.157359998111129 0.41255741348772174 0.38514945378841414
Ni 9.293992895199539 7.80270488256174 7.967694636841626 0.04066276782668481 0.7597018487872723 0.1975550822727759
Ni 5.668268735855952 6.194286689404557 12.158764596059628 -0.2012656983551437 -0.5915630148930844 -0.43479025674399313
Ni 3.009356066548619 3.0100710676505686 7.853614818166274 1.043017876776952 -0.24484512560799127 -1.8241586121642905
Ni 1.4339950671958606 4.995907699622593 13.040631169465684 -0.5690686904453102 -0.6838527628674416 1.1258788752382416
Ni 9.454635999923285 2.7852635783232893 12.423250932253671 -1.356296255456677 -0.4053102450070052 -0.04506423932849013
Ni 4.778538078901308 6.999266501456679 6.41377252767304 -0.3006015545430049 -0.19551979701030198 0.36627344281951757
Ni 6.283234683632811 4.4478547121139025 4.070181844335512 -0.535643063797013 0.4225016691846272 -1.7615612490480435
Ni 0.16353746632735439 6.6357766555369615 5.848063655810494 0.05350671366888849 -0.14518633886307256 -1.0049393247376757
Ni 3.1198933797643127 4.740791592155526 11.553004519613586 1.0112732373755038 1.3589048967241177 -1.4874243164544707
Ni 8.176427601395075 3.0223932294984537 7.592145415193311 0.6853257478685423 0.5286321796968185 0.021901685169097764
Ni 3.254016443615747 7.3280462938817506 4.357568644394858 0.02771854896119097 0.09537224355442285 0.8877960080547485
Ni 3.932784632580864 4.88747824679836 3.757162719057701 0.09617597040264081 0.37011467094247874 -0.9655052871117694
Ni 4.0043590286046005 0.8331322840117436 6.448156652093941 0.5024030707969606 -0.556611181408248 0.07128589202918047
Ni 8.558219618378983 5.0135877268708 3.8232808209579883 0.051702827690930306 -0.0019496675272030939 -1.3372045289325487
Ni 5.188660853833896 4.6675643364415675 1.764617148174527 0.19288904425567427 0.11901842221845309 -0.40512795379287003
P 1.672573292032118 8.882486546706035 12.164091818555582 1.1262108046563637 0.4506526776975465 0.24268694161440782
Ni 6.38729984401657 4.470261175217857 7.997716325967774 -1.2934317547219725 -0.959967645122992 -0.9103934337392903
P 7.721389757240014 3.663470646089369 11.33107003471414 -1.187393032592639 -1.78973436904815 -0.25910832039522474
Ni 3.2886336398244245 0.08232726973877161 10.294391794143092 0.37759735247276904 -0.9324792098947361 1.0973571136494649
P 7.455195775557026 7.277420501572278 13.332299618980992 -1.2110911475405273 -0.937772082862559 -0.5976187341688611
P 5.213583749387569 8.679017661694083 5.305323033632004 0.873008822443245 1.0805050750891327 -0.5835758829225498
P 2.0671610430223457 7.30788697709821 6.4958732256340515 1.4688015591469605 0.08928464259944623 0.4043882474133681
Ni 4.291724471488174 5.827379695361237 8.412202464767974 0.9488247411322949 -1.4320041878129532 -1.7371730500116664
