# total energy = -340870.6568109218 ev
CRYSTAL
PRIMVEC
9.25279006366348 0.00000000000000 0.00000000000000

0.00000000000000 9.25279006366348 0.00000000000000

0.00000000000000 0.00000000000000 13.54239354452415

PRIMCOORD
 96 1
Ni 5.865315798170746 3.2108661612502023 0.402377002331027 -0.9173019879336654 -0.05979537489107766 -0.2562137724562491
Ni 0.44043280216332864 4.872898558069276 11.317147544940784 -1.5311546674628855 -0.9954722657875049 0.433894227292285
Ni 5.719501081168815 6.243023937185646 11.683984581030018 0.3889053212864205 -0.4386322561979026 -1.127141544000749
Ni 5.2660866146896215 7.696998098932354 6.122245419261311 -0.011025147465910046 0.06543740366820343 0.501966240369858
Ni 0.13477151218298242 8.459446497332829 8.81103308500766 -0.4045350574038775 1.027783833436017 1.4686316092279998
Ni 7.602897225024768 7.309972400426309 6.2626796389006785 -0.38833607904651185 -0.8360157901586633 0.21111867988982352
Ni 5.010358005736049 5.378396979241272 2.391289187069962 0.7957682554925262 -0.5375775618155646 1.1389747891902513
Ni 5.893472038023329 5.100470927170265 5.9373376646724045 1.7796834125700511 1.0662202830353442 0.6705077090191034
Ni 1.5036246326796578 4.114475123302016 13.427960611026373 1.3308978699882306 -0.7702382295422219 0.3450276460668638
Ni 8.834499085628803 1.453039629960605 6.111519585138039 -3.15698455241317 -0.10052473428963977 0.1470673579358693
Ni 1.3913050153380475 6.200701675902136 9.660831521759873 -0.41895534659426553 2.4191072557001565 -1.8012367132607947
Ni 7.560001290763651 4.31735179599599 4.400668543203547 0.8114578983136412 0.043990032427704884 0.22803705291171694
Ni 5.0747296654976095 0.5040244517311417 0.37503223215805886 1.1085936057952326 -0.35331225467315924 -0.7181052562924084
Ni 7.56888396912661 5.440760783581204 2.115457041367224 -2.096464405086396 -0.6925662314810395 1.2415924014531778
Ni 7.124296664270606 1.2475814288673968 12.210729258511412 -0.6050888172936612 1.3709836822655228 1.0525340437975033
Ni 0.8784330458458013 8.40261586138982 1.5592579576016583 1.4281696445582113 -1.409160193335244 1.064116092208148
Ni 1.1959416080927427 1.5432450792944346 1.2719801107166506 -0.2790163721730614 0.9934050988458312 0.762582769879493
Ni 7.27452496208413 1.7230267882447177 3.937572882587726 0.7285267087360485 0.23460185061342823 0.6553286872858198
Ni 1.985593208979776 9.081270993899725 12.934339996327846 0.32293672770509546 -0.7371270488105499 -0.228455114285742
Ni 3.650475465106965 7.362306180448069 10.323758761893364 0.2021848677353034 1.183260498481504 1.5163461416951434
Ni 7.166276572325543 8.42020541510647 4.059846651369825 0.7885840790392612 -0.5421168444468148 -1.234146486698094
Ni 5.755475928538795 2.0093543736006882 10.170567720734194 -0.5084934999654145 0.7766639305629075 1.292680992598877
Ni 0.3617331971465178 8.165781449537457 5.442566002902677 -0.39067501159233364 1.3701956391465886 -0.6632068044823158
Ni 1.7568457355536877 0.9331346148186874 10.521722203117827 0.1734751585054367 0.04112530928540015 0.5510498852703863
P 2.1363211574512175 4.298753688173547 10.111902256541837 1.039690869286248 -1.2763066650059116 0.4299468126087628
P 0.5009886113448018 3.515717832108925 1.9673032190630482 0.29549225834089754 0.4239435438374764 -0.3421454394230624
P 2.3413074662563935 6.2698200169139024 0.24750657979386012 -1.346890388761745 1.2789070787432362 1.557064702460428
P 5.41155897846298 4.4546354406534965 8.030489930558643 0.24387607682650256 -0.5351075030085171 1.377054571049951
P 1.8664542854366033 7.672422688794836 3.9958589823916633 1.1051359862639354 -0.7071402726404725 -0.6280197150582216
P 7.9437885127832 5.890538903605562 12.092978253462451 -0.9283587599684592 -1.0643387497419154 1.017530531139125
P 1.5446977673183768 7.991699459203405 10.984099847232642 -0.22428684184066533 0.5320944272138062 -0.0907799961980501
P 8.620269239652174 6.617678655513279 8.10983538031476 0.5903677090334026 -1.427065098640123 -0.05793363909199055
Ni 6.285688551697728 8.970626131541131 10.566872117013546 -0.07504175952718689 -1.4500638735281413 -0.1632190279950673
Ni 0.2933726596325917 5.586843831492017 1.2798727405537371 1.9441892776973422 1.0608165955212698 -0.6900231533442117
Ni 0.6316768673178119 4.918524065369011 3.70739307727561 -0.5831333960684926 1.557502561328795 -0.4226669911178979
Ni 0.2215608314630578 4.135256889555353 8.769877600538283 -0.6742363228236001 0.8140380003359917 -0.404905810479735
Ni 0.19065836354992577 7.35079570973607 12.75635240335108 1.2302602642698102 -2.489907980562802 1.0291107797775565
Ni 2.6904059787106003 4.03815811170027 4.283120174254741 1.3703655890655495 -0.0735885720204281 0.6852061915715425
Ni 4.3923826697931 7.490947719281615 3.7639729626106635 -0.06390142663965125 0.07980061436841095 0.499476641178785
Ni 8.416578321441596 3.7373036461048788 13.256581360640052 -1.4501669747649089 -0.11588064792041979 0.19930831751845673
Ni 8.953008819454599 0.23577034100680203 0.013747795324669614 -1.029835316648407 1.2594132316846827 -0.33986229981584054
Ni 5.880314570698199 7.850973776680251 2.009176720033429 0.36168582344883515 0.5323062861142962 0.31780043491979465
Ni 3.187993264465586 8.86423755256479 5.728892662979651 -0.0011629099598496101 -3.0175554277488486 -0.18176285243552567
Ni 2.648592620874968 5.870238282430218 2.6206565974234657 -0.7587867931721707 0.21486580563708157 0.19816006284662646
Ni 3.3106297426141733 3.4405111553025485 1.9544927313614697 -0.09847119419472074 -0.6043185147865399 -0.1347036941641938
Ni 7.210051521632995 4.493691467080627 10.12942611544976 -0.2715977111114871 0.6380002233097013 0.48204250486273753
Ni 0.8249732012857369 2.7506416413594086 3.973704102108053 -1.2343323774566548 -0.2898304320694299 -0.6020590293284017
Ni 9.109362464222581 7.052458003010184 3.3026242287395573 -0.6967676711568968 0.5450098497238937 0.2954467498149428
Ni 5.34077513525816 1.562694443793328 2.637503152106213 -1.8387462801704786 -0.470952308486847 -1.7105505623281314
Ni 5.312970501424109 3.515412490040198 4.205116379043028 -1.3352805724369585 -0.5505678034276453 0.1318554260821213
Ni 5.13465073328773 0.4360497555586066 4.613256944241021 -0.08896788268997581 0.43285267340164807 0.8194265183414147
Ni 6.327326106524093 2.111949308692852 6.316281051147152 -0.4491838064615038 0.055790367496742634 -0.9195923266297388
Ni 1.3007757183555686 3.1892331383204153 6.357286640419153 -1.0467662880757909 0.5616968234612714 0.14418900794680975
Ni 3.1699688296207507 1.4884500571429382 6.958271078155957 1.0814525266040664 0.6447686523817863 1.1609590067708262
Ni 2.578845090145826 8.512270675222544 8.6065704841143 1.229717761502779 2.166269855915308 0.4906374456206002
Ni 4.619446135446211 6.211027789499075 0.30985928078583996 -0.9137448667100263 1.297263726873553 -0.9297926642015084
P 3.322297510755517 0.8074863535376597 1.4292368277848664 -0.44089379853856975 0.1883605602577014 0.1105720912233128
P 5.018574483221785 8.086614578627595 12.43512699537664 0.3407693850111422 0.23948206152386503 0.04149426258904467
P 8.115094666128828 3.4455816842014033 6.681451659764336 1.081435557323202 0.9582617181754786 -0.6380783848458044
P 6.409851740189949 3.4554544110902325 11.870706807730356 -0.1279766598530054 -0.7382519064436125 -0.93619805350722
P 7.963626494460473 8.142334879775232 1.5083657622558866 0.11324886672452755 0.10039386513873033 0.30767645911191527
P 3.7842060384192884 1.364943816737978 9.208624544370643 -1.1692778110491668 0.5734148832291479 0.7677987668627938
P 6.275565999479941 6.381686247547403 4.371471364480303 -0.061972585048054564 0.5316308573138263 -1.8809252275313735
P 7.750682786288481 0.7507251135193627 9.172940234605452 -0.5683706359370212 -1.0443687343778918 -0.09467933125245628
Ni 2.7340884001184373 0.44793311370605116 3.435448028635662 0.4087604083391347 -0.6933231642517221 -0.9056250658163693
Ni 5.562434971573805 0.5563295481040217 8.253614483525178 0.7417666044650902 0.19565786525006304 -1.4533957661148518
Ni 4.083589310410815 4.123478087934473 6.454805494938484 -1.941766527188462 -2.361088255983211 -0.6182914320268642
Ni 0.16793166084669958 0.7218619605137264 3.320242466105087 -0.9561179323595986 -1.7298184094188078 0.20162076770171725
Ni 4.439516381856545 5.275681757879609 9.892488072349828 0.2970269498178691 -1.4315470456708765 -1.3158358334487854
Ni 3.8165352865444704 6.532081095580233 7.805673042308163 -0.008959523186132957 -0.8001689556633832 -0.28575214823499817
Ni 6.404947761510399 6.425599988704276 8.24152108704561 1.0829759052271284 -2.022652404201252 -0.37784289282467187
Ni 2.7757814716845712 3.4426763081535188 8.278166761687793 0.596245250860102 0.43102616171587066 1.3805875239038738
Ni 0.990094789821155 1.899551515128583 8.495671170031766 -0.5223208927668102 -0.47919860765603917 0.22332344948613153
Ni 1.5443276557199201 7.174400521911664 7.150410813378705 -0.4715796576582008 -1.450514845022631 -0.20612945420534823
Ni 8.659001418430655 8.901905660497707 11.449226495244995 -0.06415519452167016 1.2747352067537336 -3.4050121895142
Ni 7.620681087330607 1.482398732508173 1.427842432337681 -0.3224397334640189 0.25327680131511215 0.6656588655672343
Ni 2.612571509555182 5.798020256781378 11.69496671743522 1.2887104379869032 -0.3986480024954812 1.0045994248997536
Ni 3.323731693199536 6.191337852461184 5.398038801771362 0.24586739622491852 1.0622070481108932 -0.9421835816666935
Ni 8.525539176027213 2.27619558329792 10.31757049596717 0.9451516631560819 0.8766965557074773 1.6495082024038303
Ni 7.935590540877388 6.874415818572646 10.277390255559729 0.03289417962485948 0.7849410829700353 -1.342748084458597
Ni 1.5461412025523573 1.120559128277099 5.321104629079189 1.2752591975780037 -0.3804582189603319 -1.6807453060412412
Ni 7.03143566421785 2.8559106327504207 8.467218840900417 0.4801668851065795 0.02297280674608947 -0.6731880840647438
Ni 2.8658388763790184 1.9429656056275395 13.232665674426782 0.9681650933321199 1.8846972929792962 -1.148441848140422
Ni 4.051102764856289 3.4505874435705284 11.372400580195368 -0.18932960903919005 -0.10596955945429491 0.9083126399508615
Ni 6.770803076584727 6.699695385731257 0.19348416560414175 2.554254979380304 0.3206592445248284 -0.09184314735524182
Ni 3.5124978612023523 7.840545882393737 1.640363288008437 -1.0054172928153586 1.2472740252189873 -0.9321555080067302
Ni 4.058579019145111 0.5709878179608945 11.565623817122598 0.021087673908234652 0.13424603780148492 -0.7364989283082477
Ni 9.163704099665967 5.658719503912284 6.105940152791306 0.3647901734057718 -2.1097886329991278 -0.1351523516658382
P 5.148400379170392 7.825510098706439 8.888319788997363 -1.213935816078174 1.4527928424235301 0.822700561106996
P 2.0818222245784863 5.085259340473699 6.6126016496614515 -0.38378162690660994 0.5588220730166376 0.649656576601707
P 6.570794768778792 3.2891632699036917 2.3956491016997807 1.0025535981143185 1.1696233673140437 1.1372760613315898
P 6.904718705696278 9.249644012827586 5.979779286946416 -0.4311377475930704 2.3944537188175343 0.6134418172440467
P 1.122927842507221 0.26531727519058684 7.190482796143598 0.7542112579863463 -1.1580377193589733 -0.21924130899695793
P 0.5315496513083575 2.226184253556475 12.418591334436597 0.6003944971417854 -0.9838915029284411 -0.5229135320454865
P 3.8092348352649146 4.344814076601468 0.042462903690923266 -0.40744066108644666 -2.56306820679656 -0.984575416369343
P 3.5638786038580874 2.0447185368332144 4.733269331156551 0.5574110516017239 0.6522171382400316 0.5730772973840711
