# total energy = -340866.7510428982 ev
CRYSTAL
PRIMVEC
9.26557985117380 0.00000000000000 0.00000000000000
0.00000000000000 9.26557985117380 0.00000000000000
0.00000000000000 0.00000000000000 13.56111269135796
PRIMCOORD
 96 1
Ni 6.495069410023477 5.7171035462598505 0.47536407779960527 -0.36802179296919196 -0.036471098342840416 0.28309182779401565
Ni 7.3104774811340185 4.348744213073328 2.478632431257206 -2.5638328528767262 -1.5283902173438708 -1.2107597323430372
Ni 9.02327547205727 5.785696632374474 0.5755435249252718 0.7951874432883917 -0.35178424806440706 0.5648960471248594
Ni 4.788247717971484 9.098586103414782 7.552699190781066 -1.620753241758325 0.4797902184934511 -0.6789465838150759
Ni 1.3363838178303744 5.8255386248495356 5.2964147273895685 -1.1683154471358976 0.11662678205782495 -2.2224003803602885
Ni 3.720519381958415 2.999453442796963 4.723009698246448 -0.11917963038666571 0.9384382556916484 0.19974411950429471
Ni 6.632969031885418 3.9996634999342713 9.524837049746177 1.0330841626030078 0.3127317621476356 -1.4568400159097104
Ni 1.4715593592765774 2.9321112099344635 8.521491520456877 -0.5436679909840185 -0.9358267862107302 0.383701665598294
Ni 3.3456525606663123 5.81378060427957 4.059600681544197 -0.8913377026594197 -0.9162581200501833 1.5855741227540305
Ni 2.9470195275838527 2.1172034801247737 2.477751274632932 -0.8670299791519905 0.3838492469197518 0.42813289932847554
Ni 9.001001018589818 4.0837764319548775 10.077682684214201 1.3048608224945206 1.4893960954688608 0.5730099344812454
Ni 7.140667202973447 5.306258479204803 11.746785128087886 -0.02361275432293353 0.5156681633369828 -0.9363003834130391
Ni 8.680625071192097 3.62904957969939 4.697338483281004 0.7357427668685135 1.4888386803034939 1.4244582571448952
Ni 0.5450134399938003 8.707560111221166 10.965312242428489 -1.257222137570635 2.046405797867108 1.2891572957163346
Ni 3.347014600874181 7.162348659343596 2.287583591433534 -1.1618601784288571 -0.23551973444200727 -1.689959111330025
Ni 1.9022420323523481 9.030586014397462 3.3318431407628633 0.011029004120651973 -1.137364507280338 1.2462000754285183
Ni 7.924294335900392 7.689893702031994 13.236920121437489 1.878726420107842 0.5731816841724193 0.7150286742496137
Ni 0.6467606231954622 1.2989045481648804 2.269994741592741 -0.7531866733765737 -0.4595579506069763 -0.3398810688689179
Ni 6.652593529574298 8.033090772096246 8.087481577730456 0.27685767395884575 -2.44693919031076 0.8612267422066523
Ni 0.16812116299122098 1.5259761085337955 -0.0043353647160654235 -0.7850650101424093 0.4015862591881987 0.9261856635765405
Ni 8.566834487567391 8.153172684300152 4.003728309724692 6.130072493877262 -1.5968802917954692 1.0465935099433523
Ni 4.872962912669039 3.943310244531172 1.5693464337378111 -0.2540905554656592 0.25558513773331465 0.4552408112888612
Ni 6.329854859367008 2.7741608737199575 4.1943435204209605 -0.8019263046741222 -0.6123982064708807 -0.4736627654394746
Ni 1.9814998006387845 7.143446876867056 0.1952350287074472 0.1958771803497207 -2.0022036494285973 -0.9415168946169721
P 5.203808965066022 3.0118415227828135 10.69908063624641 0.4210952757554038 -1.6207187889759638 0.5861721828948163
P 0.6819503681305868 8.762606919894269 -0.37824690474673134 -0.2994779824615229 -0.6491793798549723 -0.09402704238043808
P 4.505767991323298 4.663301376453762 6.076911020954345 0.6404646256897938 -0.9815384293152322 -0.3205160340787448
P 1.714539919896581 3.7155715624277907 3.9189037811873213 -0.08630242004267073 0.4972153559484341 -0.018142989457613917
P 3.874948797907683 1.5495384775719538 8.783342360582628 0.9584589217879493 -3.5098463498124715 0.09278699932574987
P 8.181126938090213 2.2381748879746346 3.2398044319136123 -0.12202995535126726 -0.8272858664848333 -1.5256525066977338
P 2.9847767646387076 3.326500607539346 0.6135444467247998 -0.21327043612550364 -0.006597964932491863 -0.3926308497671238
P 8.620778692262695 2.775346867914564 7.118716118235617 0.23887939494285956 0.4223774849019371 0.2468287316969233
Ni 2.4352352358722187 1.2150139900557622 10.263470527915237 0.48044379291704997 -0.1918194653405793 0.5276196792719042
Ni 2.2278900945682816 5.062962888876857 9.212022741897034 -0.42576259932408606 1.0606893259147863 1.3682917372556564
Ni 7.386594217920677 0.49569739233135474 11.740614252044073 1.4921708300005203 -0.7626971839701704 -0.5987646748478462
Ni 8.933464208554765 5.424950554461905 3.219272833977452 2.3166408243031134 2.287417665771938 0.9217967904802253
Ni 7.315953438704427 2.7502000847570485 11.59728685362588 0.3465160576869322 0.9108660025003346 -0.7260404519790851
Ni 6.314798292443293 3.0707520781680326 6.835316319528646 -0.1787718881280018 0.212927193853472 -0.23262878604745743
Ni 1.0998243039046074 1.6472718116712446 4.649494736224207 0.3937027426750639 0.30890004710637126 -0.16147093495570902
Ni 0.40860835612865737 1.8211774760350659 11.36665360444129 0.08748049951117191 0.9406522326238317 -0.7335287899363303
Ni 7.314239306470035 7.197984078659664 2.0483787545190157 -1.292405113229671 -0.450783803958772 0.8405437599360039
Ni 0.16514227913523674 7.995778282864368 1.698773609572031 1.1076296992200665 0.5748793835898164 -0.7141992363697829
Ni 8.343913906879598 0.019502192037560383 7.33139545374139 1.1906128250815173 1.2985629053009506 -1.1685309055808135
Ni 1.3534880778557148 3.89299814705685 12.789526048913341 -1.7984637785013478 0.15843703322539165 1.3055426790528935
Ni 0.25533250484523723 5.220737179078101 7.275007915693603 0.9336104952857017 -0.5759440774089049 2.3046545984755147
Ni 0.9319412663102723 0.3789019812276585 8.636896168055804 0.6165268839272737 0.44768768153195154 0.462122626010359
Ni 5.028161371728873 8.254473266562908 9.847673008539742 -0.55108485227338 -0.6548702595921625 0.27841987623964304
Ni 2.234579843072234 4.8904655926191305 1.942385156165884 -0.6145782448413352 -0.07515720205912862 0.2065320889604056
Ni 3.8474670886795357 3.3982532563130388 8.170692042293604 0.051551389714730576 2.0625932062602477 -1.5036276656872105
Ni 4.9689265210560665 6.762483304168304 6.112034053716023 -1.1331563827362614 0.44540582747631036 0.8580540009056254
Ni 0.5318368591801292 6.367547237364345 11.701165120145976 1.3891989197219687 -1.420274815191167 0.7270125860843673
Ni 1.3807010852741464 7.575139498124171 7.5882150841197085 -0.3993018340293962 -0.4257988518786602 -0.3761757895348941
Ni 0.10023226092964509 3.4385863245093047 1.6512421125492827 0.0565850954838961 0.7509765530991324 -0.8864256100697832
Ni 6.7589901806420025 -0.3395640362853046 3.778505232495027 -5.49200850720916 4.551652465669509 -1.2288620983707028
Ni 5.071598409106335 8.913274510507518 1.6295300797663033 0.1486835533830536 -0.7680689898050449 1.5591226134307212
Ni 5.92949842847051 7.854987800153075 12.402654742632706 -2.0992694786353585 -0.8141362164767527 -0.7482470699831113
P 3.8812864543851116 8.399785352141137 11.71930990476549 -1.380202115539997 0.05323571939568896 -0.0879543538237969
P 6.421963986621563 6.228331903192764 9.797646290918497 -0.08603502531389699 0.7638948038226973 -1.3859888974251031
P 0.9285778608990054 8.933473474134411 5.510314339734636 -1.6594753409188712 -0.1634437424113637 0.8522489641880742
P 5.267574684185411 6.649915777056788 2.97357189917357 1.0202314750100558 1.3304181021383346 -1.1242446820689285
P 6.736780586232066 8.944286405580549 5.879609767985982 -0.9564087241271402 -0.3875719471869777 1.6952954359412737
P 1.865068526815151 3.492345217611702 10.704261021826134 -1.3722525216756174 0.13921289488845703 -0.9251999026245032
P 4.7936680820640225 1.3372455167373931 3.2627626851588936 0.2527103872886809 -0.06838620188388222 -0.23377884049150058
P 1.2198135603120603 6.923166986378192 3.2440758641301253 1.7767132741981337 -0.5485749413673328 0.0708302925490006
Ni 5.089462446662595 0.9459044948358345 11.867478568548387 -0.6197214796051713 0.7655295112126429 -0.5469322635575871
Ni 7.6508763461453695 0.435515599418792 1.8404193052845914 0.867502547913035 0.5485278901794811 -0.3703859223259944
Ni 2.240018738324062 7.853153215383293 9.992112276515378 1.8542184076641484 -1.1139222170969976 0.2273801360540084
Ni 2.905954478595603 5.441248709058099 11.756480630628793 -1.6374726113955347 0.5930560544988431 0.22221684668551409
Ni 3.3982532563130388 2.893770241361951 11.974651675190373 0.9953928186998212 -0.19797211520553648 0.12400430546881869
Ni 2.4197246555458807 0.7680896824196346 12.665292230470346 -0.4607491427016 -0.8804804482299418 -1.1567524248886465
Ni 4.906995386706459 5.364696490028108 8.332041919679995 0.8165425119254002 1.4335987859935828 -0.9377026630772045
Ni 2.715973033547077 8.995923480944159 1.1673675998454114 -0.4762251268500121 2.0183113536237367 0.11878136650698251
Ni 7.2914367149627966 5.276441843906023 7.222607356567216 -1.8061457205266376 0.5025485952358894 0.0980950418022246
Ni 5.467183066485471 3.8443445883390486 12.83029089312108 -0.79082890920938 -0.13345490935875728 -1.1108916578007901
Ni 8.536582370025279 1.9737352448959704 9.314572324295984 -0.6615253030148348 0.506648733447192 -1.1698007734321723
Ni 2.6827373993591594 5.489448254373277 6.998144056868471 1.789468516981273 -0.24271599508013034 -0.012265447630914361
Ni 6.683800001819881 6.962805136101055 4.662256219069765 0.5560763919507004 -2.5315259132139047 0.6804830750642603
Ni 4.189163134841238 8.491421934833781 3.95379610101583 0.42395151425727634 0.07694257609432555 1.0593402680860593
Ni 8.015365718234666 7.2794099925831155 10.797547804253615 -3.4571898999590203 1.8293458127921849 -0.3352227441613001
Ni 1.454733066640598 3.426402087275652 6.231371939874407 0.06649618395002097 0.1577528626741735 -0.37312954650940255
Ni 7.941157690854952 1.505147085491019 5.4191697593211625 -0.08702978512699851 -0.7541829758515721 0.2278647889999108
Ni 6.787426244573622 2.4416377514071645 0.3925575925089947 1.3661158126502602 -0.20113662897644716 1.5313930087259369
Ni 5.373091105186807 4.833028264397525 3.8560210718081347 0.8058636920553154 -1.0140942517640663 1.1790009518742017
Ni 4.143604279724988 1.52788481794074 0.45286539730473446 1.507523915417823 0.5577982597378136 0.5427899592544393
Ni 2.8747016784517934 1.4806396273290334 6.867686548577686 -0.5979054121713445 1.861335221214588 0.7200091581833407
Ni 4.953536393265118 1.0425722872759084 5.388399695876877 0.9724200119537316 -0.06042272406243142 0.9012966136443445
Ni 4.846954430604505 5.122568362735478 10.729389273824358 -0.3470441622762604 0.24795178955777294 0.3510486554499631
Ni 6.185321082478987 1.6841580842394352 8.936936021247883 -1.1993293790189086 -0.8625698864981081 0.4271332544193676
P 8.04738756148904 4.163330698789966 13.225163027425486 0.9626763023034066 -1.4661826334668748 0.9529109953865266
P 8.030135052189374 -0.09683364631572589 9.504332321990988 -0.3506321367378349 0.17842144676711855 0.034885241912959275
P 6.330596105738636 0.3853498981028667 13.736593373994667 0.2702147147210314 -0.4849547934135261 -1.8151553802244156
P 4.473894397343249 5.7117573068044765 13.183584665324885 -0.055496747515723775 1.0091561910325009 0.4852759241983707
P 8.569438115447738 6.330772151751899 5.7289866521550294 -1.0498333570368887 -0.26226949173202574 -0.8099887699672824
P 3.4068146519053544 6.929124754090161 8.50898762072546 0.8080421877638728 0.742729739709308 -0.5510203175840317
P 0.17629525735436036 6.713857542189438 9.458061870357973 2.659908807366393 -1.4149873415399825 -1.318909587278103
P 3.058280607965374 9.065248547850766 5.829650689096148 1.932729870907491 -2.466593217096262 -1.12496381962314
