# total energy = -340888.62071115634 ev
CRYSTAL
PRIMVEC
9.07333981385573 0.00000000000000 0.00000000000000

0.00000000000000 9.07333981385573 0.00000000000000

0.00000000000000 0.00000000000000 13.27974996481849

PRIMCOORD
 96 1
Ni 6.344097208937988 2.3502399417329762 11.475058061335922 0.37364016759723395 -1.2228835121897648 0.8070168318231521
Ni 5.012484812976666 0.47712972991995467 6.04488931762723 -0.48722559172557384 -1.2334507461826498 -0.2574903251758275
Ni 3.0355946499247874 1.3248981246425697 5.125544975978793 -1.0713655746817097 1.5243510142774908 -1.3481733692392266
Ni 3.4233619652619613 4.35598332477625 4.845687796075472 -0.32493961706773716 1.0833803397543988 -0.7172971585688163
Ni 5.043452121099505 4.780379712159102 2.8169934004635726 -0.17926451149370418 -1.0465773119934363 -1.3050503127975073
Ni 7.286608508638005 6.15605224531483 2.862516160004712 -0.5846426336241674 -1.0220980959051493 -1.1701386163875653
Ni 5.228185315761388 4.480768964569219 11.416441565389253 -0.564973437330014 0.6648330272318292 0.42393454497641175
Ni 5.625452417680634 7.953562484080588 12.461889903077436 -0.7104317989075507 0.7334107763012273 -0.31373012150516294
Ni 1.9633618136785556 6.509486043530169 0.2534837036300559 0.1260419047241378 0.6499435117145065 0.6964334277459296
Ni 2.765771676307152 1.6847195539503432 0.3287897004736328 -0.3703810372299879 -0.5707419643826751 -0.08554111639661396
Ni 0.4392412783350289 0.2168510022485292 4.521422970070301 -0.6354090655437573 -0.467963143951536 0.33882048881488747
Ni 8.550633597770428 2.5833612565879727 1.361852022246642 -0.568798210392743 -0.1817731368481708 0.4619411061271722
Ni 7.040430658069922 0.22909547406563188 4.932975137887174 0.20255922035558663 1.2901250589462427 -1.0856745351052142
Ni 1.1883625100417836 7.411711715317673 2.618261857436054 -0.803017737966088 0.10854760459411629 -0.8319344210004382
Ni 7.797991002957177 3.764818955178986 3.859573655497894 -0.48643677727569123 -0.017318693784105655 -1.0549891902062154
Ni 7.606507243618063 4.26901536451917 12.990928208963041 0.027684353289145872 -0.3078849755782956 -1.9509944735446336
Ni 8.033925053094354 -0.4426501320302386 7.005851253444386 -0.17501962017442116 0.3479101098209815 0.42344654959639977
Ni 6.835327815961284 0.8349804298622782 0.351334227427286 -1.6932946034611613 -0.46585329669738473 0.4924025079408229
Ni 2.0335803889972346 6.307549796948888 9.191724925960347 0.473981582231474 0.6124925659568999 -0.5252828036086115
Ni 9.186121231411075 5.205701580183188 1.4513841082803154 0.2027433113419347 -0.9969334237140638 0.5707972431006428
Ni 6.609991426500192 1.8175169526277157 6.9522142062811385 0.8174843070133793 1.6225931231805413 0.8998465114613794
Ni 3.177665001693734 4.296543876926053 -0.034678304027392644 0.19834441094329067 -1.3535243491384945 0.6337105947954118
Ni 5.749530336983249 5.629998160830222 4.809819069889945 0.299384137196136 0.45702618532405814 1.29755014776572
Ni 5.574296928903439 2.925498746976493 9.393736481260474 -0.2563870648093197 -1.0942743609590833 -0.985745268307728
P 0.16278660078918286 5.792311133291244 12.592682093698803 -0.336182279861092 -0.6674864056942762 -0.6057696454107696
P 4.166414040096941 6.072359760660547 12.554170303681989 -0.8165869920100904 1.1792513773221112 -0.4080577258451553
P 2.20526612128565 8.652363881589144 1.0588687143200293 0.1797350233722195 0.19282862333138404 0.19933094322627606
P 6.269850070828058 7.525563980868621 5.866767865546395 0.30904505732466775 0.12589355207173156 0.25678455735805455
P 4.636503765805788 0.9135219796143239 12.528222367036898 0.5875749767796138 0.527737178686375 1.0882867759170807
P 4.118488660224443 5.996733474928386 8.193379923575097 -0.8279574386305613 -0.434718008745161 0.2076541183799908
P 4.784108854742896 1.1433678188665244 3.8753095484007476 0.4123149584596124 -0.38225850539386425 -0.7298176596333302
P 0.22629453412495787 5.539183104574289 3.6302985293077876 -0.8065915713602753 -0.30215347241115703 -0.11959126400278758
Ni 1.1747252805930208 1.0890820279204516 2.474283382345035 0.32536256353776866 -0.3709986162093288 -1.2242364266732335
Ni 1.7526697943640384 6.4539118383580645 4.711482215089085 0.770502281836886 0.6697062961637305 1.6710622744255224
Ni 6.023708513618454 5.6507670352202535 9.36345874694875 -0.2839991700996335 0.25980663201383003 -0.6105639814756195
Ni 8.701740995800831 2.4354023074056887 10.341352441830667 0.8062922949523016 0.8347392374390848 -0.5258872699618298
Ni 2.476123455619958 5.251658045358161 6.9449900132757465 -0.07468463329808428 0.20458267854351864 0.031090293646901294
Ni 0.44126463307027447 9.43237166869612 9.191525312488709 0.19611912115719773 -1.3924840182311438 0.11407830460435837
Ni 1.092665997070326 0.6793300106841743 11.553899938629387 0.6954132140115314 1.0079853106528511 0.09182360697121605
Ni 4.133450597257717 6.886029637757482 1.6090279401729188 -0.55537576633925 1.4039999892905433 -0.3866918585748695
Ni 5.5288213507283235 7.617894284841082 7.99075773251855 0.18020065015472836 1.1993586895949473 0.19691873424035763
Ni 5.29232475353471 3.017847197628194 4.914038170766407 0.22743001545533734 -0.8010482729445431 -0.16979102478563018
Ni 1.0815148626774256 7.465162759018711 7.235524699243808 -0.4713328317547173 0.035086302180171836 -0.22945938718054032
Ni 5.105550057458343 4.133958704276433 7.253744872534599 0.366462161791556 1.0328669043858794 -0.24119878710465553
Ni 8.422046228676706 7.078366291020871 9.363896989252392 0.28298409857155776 0.011777966471534554 -0.9097660845679365
Ni 4.771233785822207 0.39239471854334107 10.348948641760474 0.004039974397328527 -0.2262413944638749 -0.07849835061721964
Ni 8.158012045736589 7.111447687275154 4.839233929603812 1.2178966004981346 0.03137517187717177 0.5188946406940806
Ni 7.314944548271063 5.893034276412146 6.971018702643454 0.4175402114142938 0.8829613056702665 0.4109517595634987
Ni 2.647482547682056 5.153348410576162 2.1431255402305993 -1.0237621138711337 -0.8690344111765291 1.4068055770601384
Ni 2.433905206368399 5.5330495269912126 11.351211512193615 0.316251602375436 -1.186319597022802 0.11682372855997945
Ni 1.2086504974319587 3.013864001535042 3.8587761089453014 -1.1834422754750071 0.8132499572170575 1.172597362340703
Ni 3.2776985710035205 2.804170049578718 2.9567763633143334 1.9474679484486142 -0.8577364696652066 -0.8230602584392598
Ni 1.4222187654059955 3.342445922531379 8.188373254772817 -1.420835315680327 1.040112273094383 0.4903209428214459
Ni 3.744993708109427 2.218322656998737 7.146510700902432 1.3336049845067484 0.5928264549865403 0.7951445058655984
Ni 4.093282922760263 7.347073243865254 5.813953770286676 -1.4903417472115816 -0.9306673534969778 0.16519903453957355
Ni 0.827279886526839 7.328917491285763 11.284825515530397 0.4249611864687133 0.29520326634556904 -0.6195893249026813
P 0.28191864266497113 5.546432702930618 7.96329454815693 0.27536077769834516 -0.44291931360903075 -0.03007085124345144
P 8.668369252678708 1.9613747523017897 8.051539127298534 -1.146552087316877 -0.73888696892445 -0.47943900580161947
P 1.9546877010018975 3.2302812981497384 10.604225237299431 -1.6323712856132275 0.5525879191814678 -0.29793300657190624
P 3.7176920291930418 6.406331245391125 3.7897479557847578 -0.12191502703995778 -0.9336999696757144 -0.4219974758546991
P 7.234237192351738 4.13020234167378 10.464269880995891 -0.8881094255301091 0.6913251599850868 1.3408171859844715
P 6.542331532954334 7.784961687262951 10.074536372963077 -1.0830155002158122 0.14252601842209003 0.783404848831167
P 2.0244435359999597 8.642610041497713 5.672524903628859 1.2044019084458097 -2.1696616552056764 0.599285837458639
P 6.868282185460889 4.227259855588227 1.6333299730109536 -0.5033682629237073 -0.3383926572488495 1.6534414760199654
Ni 5.438841041717426 2.8510610687345435 0.4910600282384413 -1.057154316178334 0.759691307264311 -0.5348599057740853
Ni 1.406739648014386 1.1649623671619704 7.007299358447728 -1.0162742901345205 0.34073621778036156 -0.2731701978049295
Ni 7.0517541859156 0.7123878162554466 9.29613003029902 -0.130893062168852 -0.1534573206226131 -0.22287839152891295
Ni 2.6657834736954653 1.5508877945562975 9.150942986370625 0.20006113652408125 0.7755141332291805 2.0792002186893095
Ni 6.342808794711957 2.0145626691538503 2.5208949426405667 -0.976813255925421 0.9763769397189507 0.3748257032649029
Ni 4.088873279704974 7.121446507536324 10.486845257304251 1.6549687112977693 -1.3160942293164946 -2.1424349582792397
Ni 7.9131589027530165 7.157440445808606 0.5456806254164898 0.31745667842713066 -0.63361906352287 -0.4666233420941899
Ni 7.5667206493846475 3.9653851274776555 8.389800487001418 1.3409192587799743 -0.7124483151169473 -1.1617046266875992
Ni 3.037654298018513 8.186937852444943 12.122154125686315 -0.27501033633746186 1.559777730516217 1.693288947034206
Ni 0.3378412640784802 4.93202243722708 10.420765939520187 -1.0417935174515476 -0.6232562322313072 -0.1900068376118728
Ni 8.681888528712413 2.328817786890309 5.790515519380459 -0.5855579463495851 -1.1632951111031706 -0.41637215924812154
Ni 3.717746469230762 2.5298376261699747 11.432935082150372 0.7284169226310617 0.15667942710433663 -0.12098017393051425
Ni 0.7823886314232473 3.3482256398692773 12.738879000326897 0.9190799057696944 -0.16106470065622583 -1.1632038369409452
Ni 3.07311290925322 8.801919738544537 7.8381196620942655 1.1793048562678659 -1.5896593485669976 -0.557167053911718
Ni 5.418344367515992 7.753041678480018 3.544418462471138 0.7832960911674446 0.8775933564901338 0.3250689435567498
Ni 3.1114659158266864 8.708137700232886 3.4462149857626923 -0.5219416550505205 -0.570485882507811 -0.0438787036608212
Ni 3.5485105386397287 4.079264613047463 9.317988612777405 -0.14734503707728816 0.8106593136717458 0.030441090098676606
Ni 7.120158093310293 6.28494810795563 11.563939588918846 0.8440497162067334 -1.2717779238976226 -0.4912632521300571
Ni 0.002310979601197516 9.043651652698852 0.4645295831897505 2.280447405101692 1.0692235886380423 0.33409351565286327
Ni 4.533730047930781 0.6407175065975778 1.6683086045797662 -0.017880736935162754 -0.7030100525221828 -0.4727055437325278
Ni 5.89801553986349 5.889913047582888 0.4217143081912 0.4282822804221463 -1.2771705556681037 0.854466283554367
Ni 7.992768384578328 8.596345082775663 11.663046770253438 -0.9416873587565654 0.32447116207175086 -0.7573611164692376
Ni 0.17443858352910374 4.510348051730208 5.678328211649768 0.7609681170942055 1.9995258454861173 0.8981392989622855
Ni 7.904276103265099 -0.5536651642820327 2.590295102725528 0.18939028707379643 0.46638191550734515 0.2265843796255904
P 8.078774570835694 1.49166610685698 3.417012442195931 2.6062272586825372 0.4641535403974587 0.7928788497598732
P 1.6047199185213736 3.1630478515660183 1.5904094472728116 0.5755987782543442 0.5474341428946701 -0.5216992000224112
P 5.031311992688032 0.8319544710990298 8.213963701836883 0.5345025224346666 0.8394376713560189 0.7353367896793465
P 8.221997236736373 1.6064075596906817 12.272387761111316 1.4895282501713507 0.3260467340889869 0.8490944777194925
P 6.113071835535196 8.004754266216263 1.423402836226397 -0.26841211429465384 -0.19044598203182042 0.5247642121009801
P 2.200729451475682 3.154791112511877 6.128458404862682 -2.05996245350562 0.8984059223601107 -1.1829365394831821
P 6.899948140734463 4.125030538090416 5.874802307779848 0.6920414693258211 -1.6744800418578192 0.4158299135914065
P 2.3776505007248003 8.609002391545474 9.959055442950351 -0.10862705168180002 -0.948260898209025 0.7720783680747542
