# total energy = -381176.4985426461 ev
CRYSTAL
PRIMVEC
9.17516864843833 0.00000000000000 0.00000000000000
0.00000000000000 9.17516864843833 0.00000000000000
0.00000000000000 0.00000000000000 13.42878675724676
PRIMCOORD
 96 1
Ni 3.7309355332814365 4.893805584540364 10.11336727473637 -0.08974898383037445 0.8275213795344071 -0.11844892286822828
Ni 6.320296581766038 4.988465799615503 12.91975501017676 0.10927856922286985 -0.07883130847660616 0.517988069719411
Ni 1.098955826366669 1.5865059386728437 5.775372304789139 -0.24276381759893034 0.0458643666322823 -0.798954880750624
Ni 5.404697325920025 4.263581599556237 2.4147640114845657 0.9179128820447868 0.6691159708778992 1.876913278158503
Ni 8.832338483944717 7.072431032748361 2.813075515877362 -1.2833710280518607 -0.7874265683960503 0.22655198372575822
Ni -0.007818161216005332 1.128554920466931 3.1874572628855047 0.4057105657692174 0.2584927982984129 -0.04044036740323358
Ni 5.735297003111791 2.8850125082467653 4.57683929046192 1.7035052254455758 -0.8537515168755296 0.3778243808819106
Ni 2.5826356498561163 8.780764860901451 12.174779943300585 -1.0011510613398371 0.37594953245670093 2.905980349182318
Ni 7.902572767686178 5.850757325541331 10.79597872022399 -0.49865388816717343 2.236130585462188 2.915963428536959
Ni 3.3397889180959854 6.376384387790496 6.548520644555662 1.3980455714793212 -1.1758364381032909 0.5648489959370078
Ni 8.105050389696277 6.851658124428304 13.389668613282835 -0.5907860275177438 0.7192257430500968 0.4496622887598192
Ni 1.44343753374247 3.345000413895411 9.75864607913494 0.4696703564506298 -0.7168742120987848 -1.5307900850346152
Ni 5.5608128206862855 5.9477939092996595 11.009778500361717 0.027680239524087814 0.47024474089686114 -0.8553682265433461
Ni 7.082936600865161 3.753800053584553 6.749187088272087 0.23612034414048366 0.8708372687132228 -0.5331969162493656
Ni 2.1565775179157063 1.092505682798013 1.5633120298147989 -0.636144401047885 0.3203573970136934 0.829746412210184
Ni 8.436329029368956 7.227638185817185 8.888124426920228 -0.06166893776470669 -0.5638305819748225 -0.5994437031927418
Ni 5.379025204006654 1.9625594014110135 7.013963187973249 0.12493298793067516 -0.7124555142057988 -0.5066497618884566
Ni 8.755441395397199 4.7365156681855005 12.601009650894955 0.4235082560722706 -0.9765384049974795 -1.1372218110548866
Ni 2.000113366740329 2.9033261448940446 3.7344386126761915 -0.5479002838978113 0.511879385718512 -0.6760610347371647
Ni 2.514812803114289 0.410597055229824 10.088953068446418 0.18704646943196818 1.1697002432985661 -1.7899331153225173
Ni 7.098231607022984 6.218378808280077 6.825651108858809 -0.676889444175731 1.1747578603271316 1.1257369503437389
Ni 0.3701611694241003 8.619859928094169 1.1507056126482242 -0.041298858748786936 0.3902016715003409 -0.00011492831130947949
Ni 1.2108103075124512 6.7863676242369015 12.45859727052384 0.07703205048433831 0.31587802108610114 -0.7881174238154878
Ni 6.058639121892736 7.542860280333181 3.6719006630830777 -0.4822970440757049 -0.6104202568089035 -1.496456858970384
P 2.315812570026694 0.6800167077902988 3.891756054537038 0.3529186187791664 1.0403130762512796 -0.5356080967940196
Ni 8.235090055128087 3.5004094206747776 10.58611416992495 1.128381329945121 1.1952264125941285 1.8242624847320066
P 7.226711493782428 1.5106548193526743 4.356446234124427 1.8558852538436101 -1.428420841337069 -0.5815693940154822
Ni 4.005887812544471 8.787086552108853 2.766880376703153 -0.6870622709436749 -1.6191604433499083 0.3710718926494254
P 0.8409298982493763 8.10822499805297 10.308501091750237 0.13270748966977144 -0.07316742532260948 0.5987878147762978
P 5.169078994706532 7.655604752839076 6.078835503149245 -0.07791753841308517 -1.7096709879366556 -1.238007769425713
P 7.446456783212458 8.399013618424824 1.5868527600482278 -0.18981503331604085 -0.4079775074265232 0.03970811722289936
Ni 0.8052852855184067 5.469776797232225 9.892584273730787 0.020634902641532202 1.7323041519551392 -0.14951144860098767
Ni 4.005144623882933 6.2371970792037095 3.209614377684861 0.08547709592789796 0.13886708151326407 0.14335005698528214
Ni 0.9021668089263658 8.411546898815697 4.331790720898692 -0.5082232770231635 -1.0275897151473399 -0.12917942191185494
Ni 1.843786843094866 7.030225256907937 1.8208498389593284 1.265662555028504 -0.28579071478241747 0.8014285391020972
Ni 2.589388573990584 1.9249962609130367 12.265114983868948 0.06085929737921776 0.3251242222747175 0.43270946295556445
Ni 5.230470048217025 7.846907019420125 12.318642000320132 -0.5110203801523263 -1.0870248784855214 1.2454521415189002
Ni 0.40185587204652595 1.535317672713339 10.544820405849428 0.6693625396710666 -1.0885307736070866 0.9090587740882666
Ni 7.6963058010191014 2.5890490927501286 8.696670770056274 0.22207235068784978 -0.6853023508297746 -1.1492108650959627
Ni 0.26212631099187644 4.435753639479181 2.848165030904344 1.7833333506178128 -0.6039950700088501 1.529841605078417
Ni 0.4745718362352444 2.6952424948320974 1.0016173795593941 -0.4766496159819404 0.21947759337748007 0.1294470737509448
Ni 2.4683222235091966 5.031662493671311 8.20886925812879 -0.8333367006646035 -0.11546284365671082 0.17107529081469247
Ni 7.865229831236065 4.876427815096503 1.290188361665894 -1.3755065098365407 0.21336582405278737 -0.3813347080280143
Ni 3.1321089754551203 2.081625565124311 8.107737796597073 -0.3600061217535671 0.385379310411033 -0.978820516163437
Ni 8.592884932230941 3.3556619598794484 4.855702026608257 -0.04574969543128895 -0.4760690608881221 0.11735234736993984
Ni 4.105722822744394 4.138505700370009 4.788463638110132 -3.370130290035351 1.7822097785363307 -0.2635481013341332
Ni 6.097798741737721 8.492958170344409 7.741910059331545 1.7867842852808904 1.985024052325517 -0.47600735441225117
Ni 6.204359150566128 8.339182343586694 10.24603012088835 -0.016823756425558122 -0.3992570968343898 -0.027944548929068003
Ni 7.800911898922724 1.377633224106054 6.5039641905043 -0.17663915805571515 0.48490337135030037 -0.3063968210685433
Ni 5.783540039931126 6.977633190143306 1.0818615696344316 0.9759907600241257 0.9055808428419952 0.8005337952019697
Ni 7.18112008070611 1.6597880107679435 11.237195148309176 -0.1814851732941068 -1.5564882611316677 0.7597630410425109
Ni 3.6666910023173838 2.5778737373210774 10.198183451355167 0.5199976439502723 0.03109286475006258 1.0801908862828236
Ni 2.8342371248770037 3.467488915519248 1.0696310698093698 0.32508616994793044 -1.100500030153821 0.2911329529309373
Ni 3.1497619999588102 8.058697437621099 5.085347323023463 1.5860256084691522 0.9193413869611974 -2.7370979522538863
Ni 3.6034924405806805 7.561467522377611 10.715433584616875 1.0601046570559098 -1.8773117991485022 -1.109538229096689
Ni 1.0474923053473357 5.138672485764105 0.8195132195609598 0.8406843992789262 0.1046187018533553 -0.3411614782432383
P 7.49647980275202 4.997044582313503 3.3516102053987678 -1.7513048614273579 0.10276236537090688 1.0932436057017236
Ni 3.4930601105773476 1.79372712288066 5.3843660696842 0.30454305568925616 0.6082625870359524 0.1299263273802085
P 3.0658550825543176 8.467304398768361 0.8640806838147144 -0.5589994791347663 -0.9350688249987831 -0.7079383430617355
Ni 4.151516089531253 1.9050677945814285 2.9107029804974576 -0.43429711915765845 1.92822581238955 0.19438285519238135
P 0.33990605076457964 3.1244293592858954 7.4432812573388984 -0.23776405039149373 -0.06949614711860935 -0.2872138203821892
P 3.6193379568581614 6.0753287536870255 12.402236961990152 -0.26848384807285375 0.1786795855245116 -1.7073917049841756
P 8.438797149738754 8.67158952900467 7.178518920390728 0.8982992215789174 -1.339710068963222 -0.07860659406030979
Ni 5.6708873191118405 3.5759027084171695 10.93766626227089 2.4030782272617515 -0.725608249537673 -1.6475569922147302
Ni 7.50639816007452 4.915798463820689 8.984086598428359 -1.0115902543952902 0.006826793113846308 -3.1895002656526876
Ni 1.9124996811968071 6.186183141448764 4.624820834974419 -0.8988820906655809 -1.3157239904612694 -0.8609848013991752
Ni 9.078976192720024 0.8313409294818053 12.890440346304986 0.21545381693006765 1.5044252218878413 -0.05181184246496884
Ni 4.755278888097166 0.8347017937623156 11.570538200930569 -0.10637707930535874 0.3266118625638375 -0.6399406348655237
Ni 5.423322918301777 0.2978920359491707 4.884358830887037 -0.5719370131320408 0.8020031806586446 0.37435776248954883
Ni 5.335929436806118 3.778756512342368 8.398806259613087 -0.5911009876550014 0.8494161227249694 0.9544505719595044
Ni 6.565530489736218 0.23279696685024678 13.153966788034527 1.5547604798072836 0.6129291392736863 1.0289932803630861
Ni 4.403025812865531 0.899325259192066 0.5387181928946249 0.03813331653661175 0.7748543881579946 -0.6081785119625783
Ni 5.956097436937831 5.486420553183209 4.9006475078108425 0.3120229090060691 0.07595810069386918 -0.42708928855530964
Ni 5.34530645917762 6.527407663949923 8.546053036351662 -1.047356356251306 -1.1264607158836406 0.7226077721484523
Ni 3.0830309982876374 0.029907379767270252 6.933443742838382 0.8798181320555943 0.15924384539740316 2.3222430009812394
Ni 7.580707851059647 2.765744490822926 2.5311115727236206 -0.6552672379202651 0.3264671094558571 -0.2916096354570397
Ni 8.18151624531673 0.3266873852747324 9.320477642078924 -1.284752996001052 -0.34922574330861145 -0.9573008969241062
Ni 7.733437708590013 8.461680020379191 4.845845142915785 1.3021822472210929 0.9842907952493888 1.2928396296639282
Ni 2.2671841761235974 7.439006546259757 8.830232782737026 -0.13333895260618328 -0.5441636996735144 -1.1647704100971166
Ni 0.199325034058193 5.48308996695928 7.137279289810304 0.35422602473668025 -0.9013724611876025 0.9418305692026488
Ni 0.9911934704436757 0.8451899290586606 7.957106300139469 -0.34536086103656655 -0.056286590406870805 0.8316449147844774
Ni 7.359274330596001 2.687994111589938 13.420783445245887 -0.4884368384248556 0.19836677954079385 0.1280612491470117
Ni 1.901342676105078 4.033064662118239 5.914064154268233 -2.0907493569794897 -0.19620551022341692 -0.2704656543895729
Ni 8.457321815265235 5.931049226493405 5.023749828218097 0.885983380326042 0.40401209502087193 -0.8675609119547963
Ni 4.173316290269698 5.449536375166144 0.8453082887343871 -1.0800906132595334 -0.23578378673667136 0.5122069442612598
Ni 4.177573568528384 3.7781509512107445 12.464089526484292 -0.1401644601684489 -0.1456419383432524 1.382910772720412
Ni 6.02403038570359 0.7377505390725332 2.361398478001815 2.156035065561177 -0.3824605941023413 0.0923581393184474
Ni 5.826672507806307 1.3975708656063235 9.447083959397801 -1.577049116002155 -0.0785554291074002 -1.1698640225699402
P 5.2915674963303685 2.9134922317703897 0.8684058583214918 0.09117980273963007 -0.6858361118460575 -0.959679938679244
Ni 2.0815429886063628 4.500319301346367 11.733456165742066 -0.678623139037386 0.5098003917022963 0.9281093629618145
P 0.7226087582313483 2.900766272837636 12.22360652084676 -1.4604845546408332 -0.35914171687074276 0.3664446782900592
Ni 1.3164348491374405 7.64475052831316 6.532836611246615 -2.1482561929467066 0.29530945290613014 0.8520041951671197
P 3.6689664441453025 3.8903449135969823 6.9374991673865285 2.5438273562890767 -0.6930115465485742 -0.09743992471672895
P 2.3726986157246555 4.918541839250316 2.6139000370683427 0.7895261312375564 0.13595813539658522 0.7234546935297799
P 4.318880341075853 8.705666105411481 8.925403137189715 -0.675957676390081 0.4218858899774992 0.20573067610503282
Ni 8.307647288898968 8.398894341232232 11.57035010997302 -0.2818163035157018 -0.8678360199930537 -0.8531447365294662
