# total energy = -340868.2820563087 ev
CRYSTAL
PRIMVEC
9.31435695170522 0.00000000000000 0.00000000000000

0.00000000000000 9.31435695170522 0.00000000000000

0.00000000000000 0.00000000000000 13.63250290844841

PRIMCOORD
 96 1
Ni 5.21721357587595 2.5715635898160185 11.533165479190302 0.449230086318407 0.02143220173184696 -0.25147342955778623
Ni 8.865805589639637 8.771637439523225 8.010853793024863 1.9997271628636462 -0.004419726334250453 0.900721457867165
Ni 0.593014378142099 4.138741426580304 3.0683215389835348 -0.3937145697496058 0.6550111560454009 0.09164131575708087
Ni 7.304672770622686 5.116171430231751 5.938754904544888 0.06053096750552155 -0.8753099597725957 -0.5464650941131814
Ni 1.7237056075562058 7.013040250331402 3.7910625568448575 -0.16907702943774108 -0.5118942981168474 -0.7194586849965093
Ni 7.381218157136701 7.161064013105885 1.7940373864596697 0.5397984807262832 -0.8070435712960294 1.1394396446418118
Ni 7.911391362342063 8.101115501780363 10.844642614947443 -0.3744022425742391 1.3123648441810494 0.5919851900321675
Ni 1.0351417601421782 7.241605258808816 13.496150400177324 -0.35187500800600047 -0.7335133633173625 0.756046254312556
Ni 5.091860958243241 5.229620299511465 2.0723038043358155 0.7491857797472968 -0.3940894365905213 -0.23815305829979633
Ni 5.799593752535564 3.90904938089576 13.746743863157738 -0.5749012379666874 -1.3866116186107666 -0.7314703647454047
Ni 8.178815868572757 1.6379483218863924 4.079867238325524 0.6628453073778392 -0.06211708104571883 0.7734397671986551
Ni 8.546211369383023 4.6403661273240635 10.542123474096707 -0.7449606859223558 0.8955260297091545 -0.40377503930940134
Ni 2.2432418169719597 3.5006334514887896 5.034224648044888 -0.3643895955332434 0.9951727322692152 -0.526483508784932
Ni 7.97382549787424 8.39866263881981 -0.14949915693654522 0.7313785763625469 -1.4034682851567895 -0.9552188175840969
Ni 2.4896158761934473 0.9012627800350321 7.48951991269195 -0.03976776681624118 0.07450799851090395 -0.7061393421797839
Ni 5.517955537395112 8.689494124401895 2.2859798130149023 -0.7503371197429206 0.37759195315613037 0.37110994497621247
Ni 5.157666891039725 -0.15788487261901865 6.384442233822366 -0.7739714713324091 2.337053069410878 0.9264435452236175
Ni 0.6367462160858743 1.5215281726969716 9.042944169786413 0.7281423288134363 0.04042391234300135 0.5763132878228655
Ni 7.628868283278657 0.4012252457383382 1.8501079532322495 -0.08200559243952973 -1.2538604201872534 0.455500492708151
Ni 1.6885811669934963 7.182114460115094 8.145680043247422 0.47974496707781245 0.9574492495765122 -0.11966376911193584
Ni 4.493674317612552 6.923398877757677 3.5496036838564495 -0.6102194536520071 1.0714707328010062 0.20368664909181047
Ni 4.3777012575631495 6.499763288875908 8.146238904672446 -1.8485421832149778 -0.0958368418956672 1.3282208373766997
Ni 5.720431031681025 7.616079671002709 11.527562893404445 -0.6008500966219652 -0.9950449484420992 -1.4927482997705452
Ni 1.4961465496438335 6.961615684872182 11.269240376915961 -1.8710539911642488 0.3849941591574724 -1.0454653098761801
P 3.4989009810712175 8.540557554633205 8.0482621139445 1.885003511365805 -0.7439803242869574 -0.0967405846568592
P 8.436739730578058 2.2799869556672365 7.724721400591514 -0.5669015075906624 0.22290101723673225 -1.081251466336854
P 1.2592358772194063 5.134557971115014 7.903907276425293 -1.4542923097871923 -0.8955424847693867 -0.4727847337098954
P 1.2564508844513738 8.09014318913574 5.9956842550405876 -0.671646964829869 0.2564001774354423 -0.3665405804379752
P 6.26966141147968 6.036485796245825 4.21317990552198 0.8094748064453414 -4.665361559859907 -1.4887836586958425
P 6.998630939922886 2.288667936469264 1.0800788758925872 -0.11812187854611268 1.4422626323161676 0.3673831309439286
P 0.7261286495326716 8.836493307897168 10.145895380933784 -0.6819686584708513 -0.4190795308769557 -0.42613335239994354
P 8.157048216068103 8.794532129235009 3.955798139098952 0.9645447229707129 0.3520554994479227 -0.7982681390962445
Ni 2.905511234338645 8.812182835908658 2.8337198956801615 2.1045021877892083 0.3522964118141352 -0.7229101338802195
Ni 1.7149128544691736 9.545539426538298 12.046197473054496 -0.8323396268586569 -0.6810487177597432 0.8296281414647648
Ni 4.3097809657086605 0.2530459332005561 11.644693728039353 0.18133193554569416 -0.2921742497112581 1.2965397042233349
Ni 2.917890014902909 8.344555538520478 10.143387024571139 0.5540807016769103 0.24909207380980325 -0.6013812865350868
Ni 6.558415795432095 2.419394938139279 5.628942622097599 -0.6539068672376286 0.7687798998291404 -0.4542835895819144
Ni 7.307075874750286 4.1004035328237105 3.2931626674988768 0.4033868027320472 -0.03702799928757494 0.28126403055665755
Ni 5.159101302030618 3.8686809572949157 4.232810844511629 -0.9738811698802905 0.6948910229594742 0.7480663214308729
Ni 6.719032568983768 6.3359330621303505 9.721392625407521 -1.9201630899860735 -1.4430339632645535 -0.24190249803989955
Ni 2.4902585668322237 5.074396538711265 12.209733366116206 0.4706607453883571 -0.9605317451565781 0.6712841821738116
Ni 5.6462235487950245 8.22003189866822 13.590351150543531 0.8597920666426547 -0.9595441844323281 1.0650823127761593
Ni 8.840703397299011 6.77772233296829 9.37460886538782 2.727320304041832 0.08874085428083427 -0.7861551578827944
Ni 2.2648045536207726 3.2006086954650734 7.704327615756709 -0.3438845336013561 0.3606663810453853 0.011151645741445311
Ni 7.638704244359066 6.216811749386651 12.367529752342929 -0.19019632791485952 -0.39439462653576596 -0.49108636023256075
Ni 8.664801763772951 6.371038873978892 4.299854655364539 -0.5605678520631507 0.22287607753606778 -0.8416156528439441
Ni 4.02176241596586 3.7885216002324182 9.19254671608659 0.8868624404968855 -0.2270842020801444 -0.7156827628938449
Ni 5.93345037818571 1.687528644643036 3.2075367142639446 -0.4599027355409047 0.6083548896394425 -0.15857098770009465
Ni 5.000589573179865 1.3465393461651172 0.7704556748940968 -0.13828498375754894 0.5196127498070277 -0.4074195780405241
Ni 5.363644583589117 8.47199457213994 9.277422863576282 0.2193906900906286 -0.013476437219880016 0.07885419129474161
Ni 1.8610923745410808 4.942589071619538 9.94467918772559 0.3008468377845916 0.06688364919642675 -1.0120409687794636
Ni 7.592933493649664 0.4608166394885642 6.33387924639339 0.4683110142092579 -0.4152097635089043 -1.070628182295053
Ni 8.46708590595682 3.095058400992354 12.383561623755428 -3.7078092090466277 0.47276467910523745 2.6676815093332764
Ni 3.795730912615218 2.957364260223716 2.384406487189992 0.12698575669464582 0.6974711249818247 -0.24805051991916638
Ni 3.4000570236987775 7.183362583964311 12.611850927263166 0.765605872976533 1.1494407217185816 -0.46489093278411553
Ni 7.391044803860025 2.7070967997412336 9.806527712024142 0.15784799349114106 0.8254534412617849 1.3234601827632626
P 3.413003980045149 4.007502135270684 0.1919186019672245 0.4942935543159487 -0.8178905413128623 1.3094409856660352
P 0.29591433024267066 5.268125851695564 12.219507852439863 1.1074234967465315 -0.3095569639640798 1.3091792473642163
P 4.411102542065371 2.332324328120661 6.501313197894638 0.965658267749866 1.648574120625335 1.2946895383884736
P 0.23864127997058254 6.269847698621354 2.1669004148780795 0.2477792685356507 -0.9436141434656329 -0.44812836861379596
P 6.376068626804101 5.893221669941122 0.40223212773908834 -0.14385810696995224 1.3131140636422483 0.3540290782345258
P 6.435755026996581 4.275541389068905 11.14534825047398 0.5826135190092805 0.7767878577352816 0.06658128746465952
P 8.957328462344273 3.6485268132641013 4.924305920099903 -0.46726020434724047 -0.11953701372608445 0.7509487851849905
P 4.7074201839697665 9.427060804433374 4.230629422082622 0.15784156573323782 -0.9413317751893595 -0.5178021789608501
Ni 3.424768013041887 6.8462760011044725 1.3560455790047623 0.2379972494482224 1.8433351850927415 -0.9431264051959369
Ni 8.801955671830735 6.965900289130692 6.670206709150906 0.05828922265919639 -0.7097584269896099 0.054080841004803634
Ni -0.23990058104830156 2.229754627914733 2.01461160799496 1.2835558903691573 -0.5099076067041218 -0.3693497677519962
Ni 0.8237719862770205 3.0944902252102473 11.222262485528509 3.110472010673927 -0.795857472772223 -1.484596102977056
Ni 3.8693143335766087 4.662627440754155 6.4085170525766575 0.7044138748482448 -0.22439148573932965 0.6417195811428175
Ni 3.413544212756004 7.836336272961444 5.622589299130793 -0.8642526735171695 -0.5400003123244442 0.19914505246771508
Ni 8.468902205588146 4.292512147675444 1.0508727778208735 -0.7429706520755204 1.4259327848078927 -0.7726884908549273
Ni 1.191129298223243 2.976924410099529 13.777961862359534 0.2341364809412355 0.3128885994404741 -0.21325680927874888
Ni 6.11181100198187 2.762638311031458 7.932425974944228 -0.9777699634117353 1.1699267574870755 -0.748930212093065
Ni 8.317404187621433 4.8754977575455 8.264500502257318 -0.4307574814355162 -1.405950942369327 -1.5808216956707097
Ni 1.5238660763249854 5.716705288847537 5.8057971143533225 -0.6684839937208552 0.31114050640111574 1.0588805548408218
Ni 2.581082862755581 5.103531847669142 2.3611494689876507 -0.09381544059026424 -1.1077438562004276 0.35067481705031217
Ni 8.58979324617775 1.0518330880362052 11.077335746484364 1.3747084394152778 -0.20128241052569204 0.15456829429860475
Ni 6.427968224474591 7.891942984751255 4.802649239358015 0.5962272531379732 2.4421582239823487 0.9584874610330396
Ni 7.191875906338833 0.7188215364004931 8.670748980770908 -1.2316427464396338 -0.8626675884182369 0.3190530763799731
Ni 6.95074583015548 1.1227339741574847 12.741864449180566 -0.673206338897189 0.11526692559582084 1.2633439341976564
Ni 6.432038598520177 7.517375428986524 7.259267142710966 1.476782006249276 -0.6901195697127599 0.49149876517963087
Ni 2.5427635977131557 1.3146563018675423 1.3219522377712207 -0.6981702079313783 -0.7858229713543563 -0.8180196106915589
Ni 4.367092204844792 1.3770066081859664 9.445838548314155 -0.24932835819032548 0.038051298345766725 -0.5016330254001554
Ni 0.709100141912214 1.8376295090471895 6.026534337137578 -1.1588339900080238 0.06529470744275208 0.2562135153459329
Ni 1.0740571440379618 -0.06352764105380633 3.9929875726271225 -1.8141099696790368 1.9428121948441575 2.0985858223047726
Ni 0.4724474771790058 8.391360182866173 1.8527932823794864 -0.09703908973388449 0.5980337102190927 -0.0947333244188433
Ni 3.2001243488967197 1.408433248986439 5.157529969990594 -0.7026907215095511 -1.7943674969447871 -1.2702879696156575
Ni 2.9807898682892726 2.200945321454786 12.235389762703313 0.24499039293660388 0.9900251266300047 0.9146835764742118
P -0.11236654098658565 0.7131416414508404 0.1590370585902749 1.751632934190738 1.4426940634266316 -0.5316516832494328
P 4.18036728838745 5.53124712495358 10.298743049241926 -0.2998577343984449 1.689471115950013 1.4502160828352895
P 2.530515218148063 2.4615144608718627 10.113353811590391 0.16056770641514928 -0.13487595807599995 -0.9601918453186561
P 1.8755296280208476 2.103899034999503 3.365742000766643 -0.21260734862020803 -0.6090727416420737 -0.9037034233136243
P 5.978829925897595 5.3173056570976085 7.624700108483691 1.1089607593266642 -1.0455966932477219 -0.003953842441425448
P 3.7575793060002995 8.876535729000082 0.38438023095242985 -1.9563092008893277 0.6107377880493224 0.5206455619469162
P 6.33022336123803 0.7436144920859399 10.718037216286975 -0.3269561332771337 -0.6161131934286228 -0.8699304406282373
P 3.2024995099530686 5.537217627844245 4.455292646377665 0.44898068931176227 -1.3740288968497496 0.4448317001403952
