# total energy = -381173.1437165727 ev
CRYSTAL
PRIMVEC
9.17079905866810 0.00000000000000 0.00000000000000

0.00000000000000 9.17079905866810 0.00000000000000

0.00000000000000 0.00000000000000 13.42239142093602

PRIMCOORD
 96 1
Ni 6.557240680387983 0.9548911297613301 10.128027094161062 -0.7575079264597471 -0.7309885400129799 1.15182439145941
Ni 6.29736774218944 5.7200751005315364 9.479765305467717 -0.4702236578509385 -1.1034673403122608 -1.5268416419098285
Ni 0.9420244984209429 4.393106303812122 2.134670432762322 -1.4544512039625597 -0.4438117435163131 0.7103027295288541
Ni 3.96501339506709 4.830039863029094 8.601578740589495 0.8941625737027246 0.26858437820646003 0.32391528956828086
Ni 8.004356118012895 8.328580554511865 11.88027978381684 1.5364508828648185 0.8602831473464604 -0.06691347399309766
Ni 4.500872365737204 2.572941094509179 4.222765127400321 -0.8595041030885907 1.0399034995176866 -0.8352706844625227
Ni 4.464455121936293 4.148649479144007 6.066679038427473 0.10227488421152707 0.22673813159463535 0.35117978171118874
Ni 2.1977361850086337 5.952811643764857 0.97935698798648 -0.9470972169182271 -0.8509053056759861 -1.1765375779353737
Ni 6.465514346341972 4.302828956046781 7.49706326991026 0.7474477140102675 -0.1590777521331841 -0.4410431796322404
Ni 1.173000248199271 0.5048231518660237 11.774994423087463 0.5158959630770728 -0.5560141712541973 0.39635406425498193
Ni 2.2625278816728076 7.155635331108062 12.156995811908295 -1.1425378239511614 -0.7966280323896603 -1.7062331658997
Ni 5.806500712614081 2.46985214019892 8.63332254509528 -0.7309291475299541 1.242011234158151 1.0634884859264782
Ni 0.38971036266597003 8.56859871234552 7.619891452514924 -0.8455340140617438 -0.1644809254266264 0.7159761257645476
Ni 1.689325416478063 3.840428087327132 8.291776302982825 0.5797256559385241 0.33184534304863494 -0.11077957924842856
Ni 5.9921635433240885 2.677900891865368 12.167733900743976 -2.182819789854189 -0.10319199670915777 -0.4381925975573227
Ni 4.821162529360173 1.726476324218554 0.7455337050426563 0.3969603303804131 0.30069822802186924 1.274437730117973
Ni 1.9492442086728288 1.7748889734316005 3.7373978261320393 -0.4618883985123658 1.6105729587912134 0.34260669533019705
Ni 5.595058765227075 5.089215820485035 11.808698027391854 -0.27407754011054736 0.08710923221468224 -0.5318949096084904
Ni 8.849922149977536 5.413990504938687 9.122112388641705 -0.25974492553795914 0.2890151352569861 0.6005528770965205
Ni -0.18786107128897478 1.9678701019389204 2.3974000749256046 -0.1642389846191494 -0.7079560836735486 -1.3745513450121232
Ni 4.836312689712504 7.374285526701443 9.093402284526084 -2.2149410958687663 0.5044362991769055 -0.016997305888944922
Ni 8.280837373643685 1.797595872361607 11.915124235547276 -0.23360683369001056 -1.1117969432238788 -0.410994439875976
Ni 2.031038567136773 3.417269068575777 5.763615304105847 0.037507767137470886 -1.0649547860593596 0.33231636914778256
Ni 3.610066781098202 1.819688327742215 8.418121487097851 -0.3992516975177511 0.14011072411237804 -0.4533001426227226
P 2.7146574552383345 5.205831703681302 6.903538313589145 -0.6719768373654621 0.3755409841643726 -0.011261688956748348
Ni 4.374058553780771 4.177565009162711 0.08434659189375913 -1.9734191210967367 -1.2184447596921208 -0.7335079640007238
P 4.508548324705061 1.6981844085484934 10.610480832509285 -0.10407234243158206 0.27855588759687505 -0.1765355425983153
Ni 1.149688076519111 5.360295475360664 4.9360845659359365 0.8489849487248218 -1.4109046868301767 -1.6262492318758897
P 1.895842644670637 4.013902925840863 12.43398054441762 1.1434618784273276 0.30407948578927635 0.7960233089261258
P 8.124677004104043 4.609711411173922 3.2438299961790995 -0.631119437029468 0.12487925187460427 -0.2158232844543444
P 4.733902374546357 3.8944257532802324 2.3325432655867924 -0.43885285684914094 -1.5763896280412852 0.14857582416059573
Ni 7.142071719025074 6.703890931110815 13.367454189622757 -0.6021821851698275 0.06491315573361724 1.1433284381732567
Ni 3.75796426051832 6.3265125421892625 5.432592554126743 0.17652217286187663 0.009502025953164281 -1.5628000622823084
Ni 0.5410514772024927 8.10469383254973 0.08386053953378726 0.36486653516966194 0.3300247449001284 0.6239828259846867
Ni 5.959671401599931 0.529235819455554 4.332130576713689 -1.1278146588083737 0.8041536513427442 -0.18238660206245363
Ni 2.1034236855756023 7.518468832427437 6.536422966102395 0.7821725190859626 1.4048970471835158 -2.2704368149432255
Ni 7.043127965973442 6.911196848038437 2.6145746889205053 -2.001583242235778 -0.3614443968619904 0.22154450320883778
Ni 7.614092756152468 5.814534332752483 11.205710640410002 3.4093272719497865 0.9211303605408201 1.039304432481107
Ni 7.726324997309745 3.9497440143245774 12.834155706101777 0.5575030970948979 1.5882362429672259 0.499308748142353
Ni 5.40467297290602 5.552157766360124 3.8286032587809484 0.02094806300657683 -0.9221081510730572 0.15625828040651796
Ni 1.9610928812970487 6.899760861380232 8.52870848687062 0.1931736653756286 -1.0481693390709046 3.277106749218763
Ni 7.911648508447697 9.010099329586378 1.3448298453284946 -0.4864884564492331 0.653803508890545 -0.44324044439387533
Ni 2.095701872611521 0.1212590588538866 9.474839669193363 -0.42733971400321885 -1.0067447533775307 -0.8512894284882824
Ni 5.657411029292145 0.37094232201158467 12.423376349250912 0.43916267478007587 -1.123432213469962 0.3611718599268941
Ni 4.023816559824441 8.760029975780474 10.766328477794682 -0.7616101215535787 0.745979099884541 1.3177114532049434
Ni 6.348779242755521 4.623430926844072 1.1738485471294104 1.7242830814228756 0.589296587456411 0.8373609913326481
Ni 4.916786453085205 8.303672663763118 6.035928431479895 -1.8775974487097211 0.7613725516214758 -1.6452864510129985
Ni 6.683329999204081 7.018834518774094 5.222048427985799 -0.790337314284942 0.11718856809856593 -1.8710035975422872
Ni 7.521385146587268 8.668597107310296 6.364454889904576 0.29879098369682733 0.20960275746592932 0.5982370844791504
Ni 6.121875327841863 7.590505460494965 11.0214344345458 -1.4643859465777682 -0.31218925938060427 0.7731854850960038
Ni 0.9836966101890967 0.5883471230675286 5.577473757675262 -1.6905139553922306 -0.13010759015307913 -0.6634292049057671
Ni 3.040193316029302 4.764037620864612 3.339088005014265 -0.6247397587553692 -0.4159016473696063 0.7364585619886155
Ni 0.9168176396168171 9.043765333613862 2.9794624492707045 -1.1732437376754503 -0.8015226414778003 -0.3343657954776435
Ni 3.239878298784536 1.2604621605964725 5.800500258668239 -0.09740212950025805 -0.5122269988659178 0.6963506382241362
Ni 8.758388402715665 0.49757730338274503 9.914422672312144 2.8620466239138453 2.086720952546387 -0.11375948781235892
Ni 4.5273026091605795 6.9299603032932 12.834383141923047 0.5763945346827621 0.4494190624007615 0.8300901687028479
P 3.5691191624703835 8.892227046893577 7.756625318014406 -1.4357014341588823 -0.4815334264368029 -0.0354421428576938
Ni 6.5739040226156975 3.3619049535352086 5.013209153424453 0.1137360907735912 -0.5534088724208663 -0.17552047107023966
P 1.7140223788441806 6.654396127586887 3.355383598192265 -0.583046235671325 0.006465553119685639 -0.6602050415415145
Ni 2.099516925097338 2.3176168727360342 10.269297754046923 -1.7195854188368902 -0.3335728672627029 -0.6714765006902758
P 5.033007991913948 7.802818633810222 3.799503395697425 -0.6276494762029966 -0.40573216303577225 -1.0694663007764678
P 0.408510501117712 7.18936553073026 10.642037552710478 -0.12653864185489822 -0.13912804848413457 -0.22365563601456964
P 9.163471776155612 2.7381988968996134 9.313797683215741 -0.716920749066004 -1.0448428458008328 -1.572118511469757
Ni 7.599336940167661 1.307875192691841 7.821522478869895 1.6834961293135005 1.0896085800522977 0.0007954993181018558
Ni 0.24884872042642564 5.831647044143192 12.853939871312482 0.48556825862780895 -0.9027698557557614 -0.40700871575535064
Ni 8.866035244250565 3.5524007954472 7.074634246778788 -1.0286184135221705 -0.7214073240824479 -0.31038485918201386
Ni 3.7630907372961366 0.8187304392146457 2.91198829382744 1.3985237966673205 -0.9810694600986137 -1.0271716537733149
Ni 5.068599863782832 8.31915297288826 1.2536647641962622 0.5450628144490162 0.5622418973314639 0.6031293795744451
Ni 0.0035472651478701393 7.3242404752228305 4.9642985298124165 0.9797193738286225 0.11183347443423966 0.7184526123294982
Ni 7.189301335135547 3.671226841261454 10.401400365927804 -0.3277963697902419 -0.9084697343540161 -1.4348064331484387
Ni 9.063766846766667 6.718032303546223 1.8322770838654863 1.6375721130878764 -0.26234353950307077 0.3251291073707239
Ni 3.7476654529664635 3.7197678816639277 10.79847488038731 2.0557463585417435 1.0098611875193253 0.7143568449935698
Ni 2.002040499924867 5.07068163521139 10.209876477420476 0.18683949562748467 1.9877951873127506 1.3933327393846842
Ni 7.995304539158326 8.708224130846869 3.801396248661542 -0.8847993873202699 1.6869290662544498 -0.7647396683214958
Ni 0.3821572924079921 5.82579607422504 6.934826329372466 0.6492133184167013 0.11893177604191775 0.8881032548825221
Ni 1.7423693193097094 0.8610619314484972 1.0841993991123358 -0.11630822237614162 -1.7437432470300163 -0.9818305066343541
Ni 2.764995972292779 7.94577305243742 1.9767428502082183 0.6401823185626845 0.42262816746016246 -0.3219070008890005
Ni 8.875471996673415 2.812243930001742 4.4328121962222005 0.8056199514756255 0.5622251851609156 1.4805926382446177
Ni 3.062515041391029 2.0524523833732697 12.455617211075763 0.28365978448234375 -0.7169881119688296 0.52977040706632
Ni 2.5936487592038295 8.438529266657198 4.409013972182068 1.4531088310020523 -0.6231932402038558 0.06924469322943559
Ni 7.767180907945115 5.151898233322916 5.459839915762826 1.5982404053677894 -0.27785526198542465 -0.255889813457927
Ni 5.355178169382092 2.018061886205449 6.41595718138318 0.6936255259834893 -1.2337466801565138 0.46362672135971117
Ni 0.522111025522306 2.690547424023881 0.23108488228934068 0.2311925678215631 0.616045573415481 -0.674376190835574
Ni 6.515045833062879 2.460965635730755 2.726450185987161 0.20668892625324403 0.033775296678232154 -0.924601349808556
Ni 4.331744486065484 5.920658821612756 1.5892518209594781 1.3206219419835192 1.6674552738005544 0.8396361605200702
Ni 7.575116859362271 8.008547173267749 9.303597003215803 -0.5872674728415241 -2.2184475663601275 -1.8559371901274682
Ni 5.476957212553156 6.400346646908763 7.239501373121397 0.7247209618367131 -1.0824138620760715 -0.9705811589727802
Ni 5.691269620103769 9.132226863128741 7.8605414784165415 0.9173305271787556 1.4030661646223643 2.0785314747570593
P 7.732102600833939 6.760667349235076 7.300398231346324 -0.9193241605700168 -0.8831916765135178 1.2268437823890936
Ni 0.24628548203751743 3.7853666086616395 11.099365135287933 -0.16429066379269122 0.5573362324997305 0.9978266249522945
P 3.078701502058016 8.706399141797164 13.262719076848063 0.604274806032798 1.5250544681024187 0.6998784488717366
Ni 1.174550113271634 1.66315195543354 7.604899029909604 0.21238726218960197 -0.2469907111960843 0.769858734715616
P 7.64232964702706 1.3022901759517869 5.432243146675518 0.7285513913263968 2.4697582450878044 -0.3750205928845283
P 7.344434575159775 2.0281222529769423 0.44557795458507576 -0.2186952066855008 -0.5618971123975355 1.4647119624586193
P 3.9287337132548505 6.447713825007908 10.83832658850538 -0.09860540577973985 -1.7347659832320705 -1.0613331301463722
Ni 2.6313224025012714 2.7606031594545426 1.4591484433139525 1.5344335953244734 2.138755709655439 0.9816227614989224
