# total energy = -340861.4558522264 ev
CRYSTAL
PRIMVEC
9.33232163153756 0.00000000000000 0.00000000000000

0.00000000000000 9.33232163153756 0.00000000000000

0.00000000000000 0.00000000000000 13.65879603328234

PRIMCOORD
 96 1
Ni 8.820537075506776 2.4381250097323184 7.660330723222294 1.5096525317250515 -0.5913496133306977 -1.781574458945177
Ni 0.4202092440009799 5.159168680835265 12.586020582782695 -1.984956946533007 0.0466323551465584 1.5048281137532147
Ni 1.3915891341298752 7.61429718050746 12.884301178725238 -0.06599507594388634 -1.1330242280337712 2.8334467007889654
Ni 6.927764942622175 2.429511276903281 6.286652180690997 -1.0292781585933566 1.5484998436095525 1.3460339542987205
Ni 0.470488993039987 0.9843919461240486 3.371564346430606 -0.9162946297150736 -0.898972079276226 0.031073581476352932
Ni 4.231526582309673 5.24286094086864 2.7842906809934673 -0.2170831250033745 -0.1522195915607701 0.46561341277243684
Ni 6.961631937678054 0.034231888830109615 9.988663769126038 0.5002795966960546 -1.032292519939648 0.2596783339660818
Ni 7.147569113068883 7.5897438423999875 8.132610588775707 0.12439099938427609 0.9362538464458198 -0.8113959347274543
Ni 7.670235116127447 2.753212183629156 13.560999016117307 -1.3077204034305026 -1.2764524465551566 3.2186982273728826
Ni 1.1538669062273146 8.851641703371543 1.4145597104954135 3.140414306759314 -0.7698952443805064 0.17387033706132637
Ni 6.947848098687275 2.0381883679247483 11.133462458462805 0.01524021398852214 0.4768938707822626 -0.6240249920765317
Ni 2.6047722763933328 4.479001086275445 10.87020233252486 0.21802569142230194 0.04937880754344399 0.5122164573429566
Ni 0.9741730539812579 4.88213871438893 6.985818515546976 -0.7880045523867074 -0.9267096544008105 0.10615647865412041
Ni 7.8281659944219175 4.717759201874672 6.327095662772469 -0.7969864441703436 -1.4059954224540172 -0.13451446097152317
Ni 2.870799435683184 5.321616402780065 8.394450335367411 -0.49967075946746203 -0.312114697388927 -0.2923308298937804
Ni 5.8052173076562354 8.276210754034132 0.6535882094348147 2.41416790941701 -0.9190415963325914 0.21218388792954426
Ni 1.8424895841491156 7.040032771368997 5.216021183971229 0.5188231640261969 -1.0410813218758714 -1.3247071677964861
Ni 1.9509591580081609 5.05533727080724 1.5953333123496172 1.8751806117381125 -0.2830622601076609 -3.33453388098798
Ni 0.23932365428767727 7.469188912079834 3.139420047143339 -0.7672164119967626 1.9096845590522529 -0.334830650929204
Ni 4.536161556023931 6.716014565709009 5.00493806805186 -1.1856436540017 0.2727315676056142 0.6976904400814823
Ni 7.660426846134688 2.0857925403634465 4.101408822054617 0.7063789689944158 1.49672476791979 -0.039940030728047346
Ni 5.076232338850809 5.893463740626306 12.828299783318426 1.1191736953039242 0.9936056448924114 -1.9105340515367417
Ni 2.6415322911426045 1.2310545381113518 11.503697120340822 0.38708986534423656 0.8274360189094523 0.06504608176705572
Ni 3.9898474500522787 2.482584189794651 2.6006212597493934 -1.6542022654453896 -0.2345388585859767 3.0315368296296046
P 7.50444642305286 0.7238811221269854 8.043268541250782 -0.28382407797434994 0.38961854530336126 0.5260063120381973
P 2.4033247825172808 6.883333759524617 3.119901496534529 1.6965311081205878 0.18747198700516102 -1.6827816197449792
P 7.846364021525517 0.14015840505544674 3.345366653258696 -1.2427709951423114 -1.5564172986844163 -0.2967839805691276
P 8.469669780627783 6.167694010595165 10.228566960584553 0.14741882773801707 0.49806921930829706 -0.12451904032170813
P 2.5028819892563585 0.733777115942707 2.8900510818944745 1.129926305834738 0.27827075225628845 0.8246538281786249
P 4.710125362812751 2.158771295209677 10.496593103159324 1.9766908498694733 -0.25775874834586576 0.9188359080796886
P 8.271609919489478 4.500250782539494 3.730162536516071 -1.2121440142850735 -1.444817023306905 -0.6214196932432008
P 2.804334641307884 7.475124268612085 9.277477404060091 -0.4586225832769004 -0.14184441897403313 -0.24269131248978204
Ni 4.209772940679677 -0.0035901441162844985 1.6420471813084778 -2.4551029570684753 1.1865805639936726 -0.07638773203212006
Ni 2.142402403138029 1.7212347297095925 0.90707272850557 0.7687001956311407 -0.08522538492840807 0.6692635521993572
Ni 1.0135367864545826 9.138162640876525 5.414551394117749 0.7764425585807209 1.9941740942559012 -0.4305103984217166
Ni 3.8325978312339943 6.980249919253274 1.170396314230338 -1.0970023014132075 -0.028598123352666874 -0.05348743039517885
Ni 8.06754004324619 7.610088303469653 12.345256951273434 -0.292094031292626 -0.21614415812887292 -0.857513297910807
Ni 7.219801282187787 0.6299877013618438 12.92527753636959 -0.8456132040391114 -1.471985099081265 -1.1618468086924183
Ni 3.9256130805373677 4.382542210304775 0.31457576267361875 -1.8080388237842926 -2.175557194754505 1.2198619517546216
Ni 0.6719215552014923 1.756128280140546 10.380015608301504 0.04502515856043859 -0.20908930816462054 0.2678115045961775
Ni 6.222456073694612 5.458101606057062 4.298914343290382 1.0436359699769253 -1.7690750409265854 -0.9842761399613693
Ni 6.933364335577128 7.0140049264500535 5.671678318305703 -0.2975529975246682 2.207985747596856 1.2078307316217005
Ni 6.2395622191719955 3.5848433576204752 2.8302253010994307 -0.06856900731864966 0.1660891504540107 -0.7926973298766864
Ni 1.3455621240401554 7.086069113780308 7.472481355137347 0.18244882275895674 0.6571942797396488 1.542064372396854
Ni 3.1605120271724902 3.7584525361888157 4.523505994713576 -0.23575550460189718 0.41213549545895467 1.1203864846651028
Ni 8.502248915304023 3.314336683966661 9.607214456391407 -3.6832171215295597 1.2298473451021077 2.5520703130241595
Ni 4.467708977149622 9.31437553716892 9.947277722563816 -0.777578471957377 0.3846180067649763 0.1576225077438963
Ni 4.787882266313876 0.928479207772358 12.253223462201499 1.6785668103326834 -1.7554160553822542 1.466352583385836
Ni 1.6447750189096997 3.043176747801435 12.788321050852218 -0.30343928110211615 1.1680650216879884 -0.7367092445468408
Ni 4.791167243514115 7.47750401061794 8.482275880633702 0.012349265593972281 0.5207250090346 -0.5427750468561039
Ni 3.497222190197041 2.9622841842455365 7.027778499887081 -0.2304988841886482 0.7563110779381684 -0.6561702093505086
Ni 6.391324432894424 4.351297597616133 10.792251316734632 1.5162849494399049 0.0356174920932935 -0.19467673228371635
Ni 7.350416455183674 6.6395455225875235 2.074074877373047 -0.5008131006020213 -0.8886272457067921 0.46303433919135095
Ni 4.774919671623158 5.397637494465154 9.678731769676395 -0.40614251110031346 -0.6110712601293411 -0.663361070671993
Ni 5.330668754723906 5.705613439309199 6.974372423114891 0.01344866930573813 -1.3364499101547112 0.7126002673137792
Ni 7.3439771532854765 5.16447877182088 13.5840414513591 1.2213051119590514 0.45857347520652 -0.9333693258091732
P 3.0716216640126 -0.005368884611641466 13.3260130249054 -1.5189596680585904 -0.6871558590987457 0.0018321681127323286
P 5.503018069877382 3.704661034534894 8.033311887344716 0.1371686107649186 0.7546020656668616 -0.06921306866055177
P 5.508804109264167 8.475325167512286 6.494211411977382 -1.3519261514134395 -0.4384473938806062 0.39990218661755644
P 1.712126383836201 1.7823987654208704 6.044945984700987 -1.2261930361789721 0.9564627172935269 1.6114005968988314
P 3.0064447300169386 5.446977478719886 6.084283586673855 0.9853776005556641 -1.0275683749911015 0.9931243343806185
P 8.782937151814261 7.133831935686064 0.6205741885724074 1.4561666439917695 -1.262905046888025 0.11239114670992256
P 4.828851158100954 2.523431761401038 0.8590915302745714 2.4667230578059063 -1.3567785944097344 -2.816600575765904
P 5.739779068656009 8.030164095271873 12.258905912818614 0.0899670133784515 0.384293533546022 -1.379975601351488
Ni 5.1903106379864 1.4468364779520853 7.791318255849686 0.4298483393576855 -0.7055209918694947 0.6358494955152856
Ni 3.031763318494921 2.587852777347781 9.513310770072515 -1.319640037686224 0.6461251664096808 -1.6800603641590743
Ni 0.4929248273783274 3.5187705207520215 5.15734327873195 -0.497869187482349 -0.8982909940488012 0.10273742567024241
Ni 1.2010697888375745 6.340901899335066 10.87203240078897 -0.0853415987912982 0.09926977883661614 -2.223116432590707
Ni 5.364461091207052 3.208405501580528 12.444269150431563 -0.2917726433974652 0.3254335259850201 1.126889318780627
Ni 8.868271900447755 4.186768767956409 1.6196468097921854 0.04603663054408846 -0.28787536522558804 0.19192333790829527
Ni 1.8834678082577854 8.47658503092715 10.972780411763134 0.04015034696664053 2.4052472098886124 -2.5628401499461537
Ni 6.122301598373673 1.1034350403463646 2.224116210993987 1.1090373782008707 0.2120555898817961 -0.21501133007601034
Ni 7.971958405505129 0.3166662027101348 5.992988284239813 0.44568299239709697 -0.5076812884767644 -0.5607712263232084
Ni 5.841828005260041 0.7855547025971642 5.052825943066943 -1.0243400978617907 -1.1903354030504145 -0.8166893219159096
Ni 9.284110818247393 8.311384274112832 8.946251846434919 -0.10782769570895623 0.5076671474093774 1.1857788940279836
Ni 8.897650048818079 6.105858047729292 4.981430883194806 0.8146586646391261 -0.40466695499605143 -0.015009328924638665
Ni 3.819457922433037 8.494867048925075 3.9032873675938076 -1.3862323808944772 0.5199958441780592 -0.4548140081640876
Ni 0.9735571207562129 5.35305699422213 3.3711686559951226 -0.7612100579016826 -1.5080250234239576 2.9191801357020437
Ni 3.794372641994844 7.139963270971737 11.37260039955081 -0.35167549040068463 0.05068698483190625 -0.4855420333755638
Ni 3.4250833442940536 1.167566754323768 5.028731755181778 0.3122034004479914 0.8290560710113787 -0.5948761384267175
Ni 2.94715649094557 8.670473344314015 6.654510833491797 2.014104514631241 0.41793204753607377 0.6873317225549774
Ni 1.352757343987271 3.020032590254293 2.9967260503114574 0.6979148973874625 0.37993371391542957 -1.4373273997980793
Ni 0.6109450991542054 0.7602930412808904 12.899735905405567 -0.009267541344855008 0.5479697036831659 0.3502492994771194
Ni 7.57161114154753 5.333608436025258 8.42870648823366 -0.8629331833747976 -0.8194285752239436 1.2450204532981204
Ni 6.05218786625606 8.176952181585985 3.3717556590232336 0.4636357202207757 -0.17075493136079625 -0.07011398320826634
Ni 6.443697421666425 6.695511455172286 10.652808700745258 -0.13498471573972237 1.1193837544322012 -0.23810317889846738
Ni 8.416242239515933 9.19690027297399 0.9381941545492027 -2.5861716255832428 0.2246023161985551 1.83760188215339
Ni 1.7820161402356154 1.010802416228247 8.264554684366237 -0.1957401405512242 -0.17177051710950417 -1.0173330704163381
P 8.394059311092724 3.572580687049127 11.970637031479528 1.2572429635062412 1.3938330760598705 -3.0626536056390674
P 9.123062944541333 -0.11979807903907584 11.161585409579061 -1.1708019610031772 0.025922890513348906 -1.1992190786932895
P 0.9785685774508966 3.7956698346960747 9.044745168512554 3.7993649070684374 0.3789726355537409 -1.0407658475179817
P 5.626587340071619 5.291454339396047 1.1007174682988938 0.9621294286610009 1.015313211772832 2.309651280359158
P 2.451031610493487 5.448825278395022 12.992929402051342 0.1428486918688314 1.0813206290118924 -1.1516595837467714
P 5.196031351122044 2.8897720454788858 4.827386916843233 -0.08619726192337414 0.05075409062441581 -0.6108385752932448
P 9.031120912220993 7.7481506690956286 6.197897136194184 -0.8616682006194449 -0.06821316664112768 1.8110747823971391
P 9.23025399034233 1.9126966394826437 1.28350778484904 0.8347307527986527 1.0142207500396017 -0.28550917898625666
