# total energy = -340894.80794160435 ev
CRYSTAL
PRIMVEC
9.06902446171213 0.00000000000000 0.00000000000000
0.00000000000000 9.06902446171213 0.00000000000000
0.00000000000000 0.00000000000000 13.27343401075894
PRIMCOORD
 96 1
Ni 6.385735719626671 1.9026903419464625 11.568474450826896 0.46385657798233015 0.5623264866254704 0.36380981177037347
Ni 4.5644580077422825 0.4458014870943956 6.066277529088338 -0.05395434272926837 -0.6588187027169493 -0.5589136042891794
Ni 2.613148627167906 1.6332133574678511 4.798213919781493 1.2162660068732474 -0.9149005775810244 0.44769719461364826
Ni 3.5267167779201753 4.411672157385173 4.8033506150769325 -1.1322714090281467 0.8476469466396885 -0.06369985215180642
Ni 5.157871466899211 4.783103111693108 2.745277961150683 0.0176940748456534 -0.1194197714219298 -0.7549021134057838
Ni 7.553699067646542 6.2982014982432295 2.7703247921304572 -0.433954133995943 -0.7339828467546133 -1.1502930424165478
Ni 4.68632755467045 4.656807880965197 11.492152264036944 1.7452139180382717 -1.2385579855022282 -1.2674268460177784
Ni 5.56796367128564 7.837577662522678 12.289195243810203 0.3044677223666305 0.19484642509236122 1.061882574891939
Ni 1.6814424280560336 6.484560876113963 0.6906207017305458 0.6396189898600467 0.8146512084399583 -1.9302194457808108
Ni 2.7262212206416665 1.4092265982751222 0.219789614802317 -7.713309483857683e-05 0.24773401712001206 1.544081917047515
Ni 0.5188171076683927 9.127338005277279 4.943039887615992 -0.7000437708050072 0.3060867460272922 -1.0262609690335873
Ni 8.531348943253287 2.2180747268232275 1.5091763137607106 0.12371248526001274 1.2340076471273844 -0.2613966022087692
Ni 6.759696931680772 0.877750946656563 4.70908264323999 0.17903156954729166 -0.8461744758592202 0.30419827075532774
Ni 0.8637665113713096 7.651680804885114 2.780917412372465 0.1580652517082697 -0.8049746045821428 -0.21646863134782718
Ni 7.866906886720154 3.892960250397265 3.6256253694299225 -0.05698798734926959 0.5527568406591642 0.33987669799354364
Ni 7.694151045119122 3.863812406683384 12.690610205861397 0.561216284280427 0.011613415869212256 -0.30048868311422444
Ni 7.999759021930062 8.693267300959455 6.9622082416157305 0.275792465919125 1.2091710476996789 0.22774214737911744
Ni 6.898498346752627 0.6766643804202499 0.4990230554935587 -0.5964761359239856 -0.10686198936157726 -0.8709619672165452
Ni 1.7964557927042721 6.5551269532569965 9.18362309004438 0.23630443512683175 -0.7884974328627259 0.5037102196441583
Ni 0.30495319326515774 4.741004701450472 1.41798727563281 -1.017568583465912 -0.7772401147813517 0.1894990447375188
Ni 6.44954537375575 1.9753060185541307 7.031774005391732 -0.009735996340841296 -0.5829868431882992 -0.0008093832751727995
Ni 3.434911046148048 4.164332660929455 0.4091453982620573 -0.02406963935469403 0.5906808693984472 -0.041186244430322615
Ni 5.925573432743559 5.819828610807078 4.79413830031509 0.6820627608465544 -0.5899542756450679 0.6739725276392522
Ni 5.05394044979869 2.7529385658753607 9.716167072711318 1.0069244734885046 -0.2088525095634661 -0.8594508812531523
P 0.3084728815493386 5.414134883147852 12.300876146953787 -0.27321982009594237 0.6524333680158958 1.7968020745282087
P 3.8882897029446677 6.146730656392191 12.649237317553144 -0.40658448373373846 0.9211879532516328 0.6084471922429329
P 2.3551348892525623 8.55491026807241 1.3034083172427844 1.299735328342497 -0.7825761822822844 1.0333194185422654
P 6.511940260112783 7.846283925735287 5.672309142791177 -2.175933090036685 0.04729389998995726 0.4432795251619268
P 4.749937690267576 1.0413325633973083 12.753380549819472 0.822308724985216 -0.8146656066176614 0.19216270761261098
P 4.134958091611079 6.140509305804846 8.204534867202717 -0.6983694684263778 0.14063934292233843 0.12980728530384095
P 4.705163917891897 1.128966544046727 3.868701517618715 -0.4487156085758337 -0.9814430413879485 -1.023345080938373
P 0.3651288894053924 5.597437999869993 3.727950262348201 0.359430194645439 -0.16697412416212534 -1.1301901010190858
Ni 1.5223082607730627 1.1704391916209578 2.570506982376899 0.17750510560043622 -0.5404206876913145 0.12458768877611445
Ni 1.9245648282681431 6.695823794382432 4.830733626685424 -0.39380507258088304 -0.3895023314404711 0.6169806836352406
Ni 6.20283163996844 5.650119961330459 9.168252907864451 -1.4073413949589504 0.8783052949554938 0.7541744912111398
Ni 8.517654716741786 2.3210716344332294 10.313803069526365 0.19738024725780845 -0.1508003426157403 -0.49267350221402245
Ni 2.405531456619718 5.326564385667693 6.911251208554264 0.23637719734629614 -0.5455089008474993 0.7917534779061783
Ni 0.6248194898915805 9.044020880137445 9.013126342366535 -0.8836513897587556 -0.19658423371907432 0.2872061070727054
Ni 1.430992256306645 1.130508278157293 11.447553523827935 -0.6599281337310442 -0.30852440893450733 -0.07065957129909121
Ni 4.097566504917759 6.921696910604559 1.551850607038765 0.22463316943649053 0.1611523752740257 -0.35991227648818014
Ni 5.827238003561975 8.05954202932331 7.867774792334162 -0.7677643140804327 -0.7560909915075623 0.26545251744569764
Ni 5.132396577978151 2.8810838775359513 4.992310989082433 1.1665850947083523 0.17804966524999657 0.4788016293279367
Ni 0.7843109767272356 7.296501541907381 7.166459897290794 0.2664763307245217 -0.13683436735395144 -0.9927702934753097
Ni 5.040681536447821 4.568756725203508 7.007563338441334 -0.5229922078022219 -0.3098935213678921 0.11004398663398467
Ni 8.310182650580476 7.067200334545288 9.159465930336642 -0.20492797769807933 -0.002987364763098081 0.16084435711530365
Ni 4.694090639368359 0.3187054615314082 10.558432741557157 -0.9531562786281133 0.3165873884482999 0.0849235374172731
Ni 8.293704233645776 7.118358699943546 4.946504254852676 1.1744051049734032 -0.51560260020637 -0.1553483669977389
Ni 7.215460741836678 5.882332325454268 6.963614847266017 0.3596536235101548 1.2526244908976232 -0.5047551159689049
Ni 2.384400630280781 5.381540810245647 2.615543756453791 0.23144633570358206 -0.8388933688167746 1.0263015924635357
Ni 2.2753546835428518 5.268096386780514 11.3052224445453 0.693918888854192 -0.20297162530265686 -0.10745205753709236
Ni 1.2205002050934601 3.167719455762746 3.7609343032901377 -0.46591011807724925 1.8955630320492063 -0.1574723553192772
Ni 3.8276995523994164 2.747234149666266 2.591305882430855 -0.4976956380189622 -0.010968583196361755 0.3390449461208677
Ni 1.0587269517741669 3.260776712871686 8.157560042658602 -0.7815603394232604 0.45866886313380356 0.5193368704378217
Ni 3.5847676016950825 2.5180054944976114 7.066749604043553 0.12587195480517677 0.5179168501618435 -0.06923389459615818
Ni 4.040758137455485 7.050576813223713 6.023670346589214 0.5475051053419215 0.20286723851430866 0.5361534277745283
Ni 0.8212717847720152 7.284666465352741 11.406697569897931 -0.7995169239016812 0.6974263877868182 0.0039047343710448875
P 0.03956271108196457 5.337719285408848 7.967311867219569 1.2393007772055238 0.8072708568154872 0.6874330240195322
P 8.310663308862006 1.5021568890455446 8.137291680519164 1.0970658076612914 0.9026793529244842 -0.44709401381201064
P 1.8082001790171145 3.0721228718834626 10.372391686435133 -0.006135166363460402 0.5873762305052465 -0.322857794838044
P 4.019727070382526 6.454787269731677 3.8828773093141624 -0.7741686749448796 -1.268943282662305 -0.8735942626330696
P 6.82994559297751 3.9805216788532456 10.488282025721558 -0.494916018391296 -0.1655224793172633 0.6863986692177468
P 6.44595404018055 7.720351455974568 10.160335228550933 -0.15407464249163788 0.35978166444758686 0.39192328217713795
P 2.2633291574804355 8.626174660077288 6.013263641342892 1.9894702610223287 -1.1803294408776381 -0.39610852390307916
P 7.07623308262837 4.137624384719941 1.6164918906851335 -0.31272764838257755 0.7291581716724603 -0.4077461081420074
Ni 5.5596655141611215 3.026351506848006 0.3995331395338861 -0.5895804372454169 -0.25872368336229634 -0.23445401218165426
Ni 1.382500184017248 1.1384708813871587 7.02597345752633 -0.9607178930254552 0.8548447499397085 0.2547438727789419
Ni 6.701655176930043 0.7790436874836071 9.402236452410575 0.3312791861325198 -0.2639679624803712 -0.6882290375582664
Ni 2.6915140651055673 1.3800243404161623 9.178870921374164 0.5708939165795072 0.8090989111631613 0.41077409633505385
Ni 6.2184212925335185 2.385869812197909 2.6565185146005508 0.399179449518919 -1.1057373672933601 0.2271932168541829
Ni 4.291244585301593 7.040791336133708 10.254098962643477 -0.6544177454357762 -0.9169510323521499 -0.09022155259141881
Ni 8.343982903698596 7.3209062859752265 13.52191233137627 -0.4174391670600553 -0.6380264485619463 0.08887558008648563
Ni 7.450838195399237 3.900904715578771 8.312368285407809 0.8205899425218964 -1.771077416068595 0.3574082791194038
Ni 2.9595944198604895 8.147067181682573 12.332055452083944 0.5431247168860388 0.17393590019193914 0.4317411855050242
Ni 0.10365985327754522 4.651039981586844 10.181095131800914 -0.05468247914454453 0.490475209011123 -0.3343462550936177
Ni 8.574109392261049 2.5094261976235197 5.468442013741337 0.13523976917332192 -0.8835593442655815 1.7913896452633857
Ni 3.5834616622131907 2.4487816329331893 11.610630902824285 0.14706530105334029 1.185177512998559 -0.8475291901149017
Ni 1.2295420222007218 3.405436717563694 12.57864856784966 -0.566328922916644 -0.4261495503498596 0.5599813834320614
Ni 3.201410880590708 8.26076553782474 8.161316432473877 0.37378132116078855 0.11876105479200838 -0.5590724984645468
Ni 5.631528461761866 7.899709547178495 3.474613420202382 0.2258315606199659 0.8544439149568639 0.06221195475237028
Ni 3.000332476476156 8.44818599152451 3.6027814044234217 1.3114148215629544 0.7537181204000116 -0.07647026444359734
Ni 3.355130840438337 4.045854929044533 9.020147580886537 -0.7698515356267644 1.4562790011999178 0.02131727342053748
Ni 7.422479356788999 6.168704901979848 11.50509376154152 -0.280691188772323 -0.5951682157458396 -0.5758674585346986
Ni 0.5713757304000123 9.311711266852635 0.5436943478960052 -1.3047728907664047 -0.3621108268013957 -1.2268283557701258
Ni 4.654205071025595 0.34038042932113305 1.6453885224292342 -0.21741942529687072 0.007776301511309188 0.0262771885289741
Ni 5.9410542570184806 5.6157120835922925 0.24901363831930826 0.252634539745423 0.446590848923347 0.6967054504603937
Ni 7.999214880479274 8.910588327380031 11.368523326417893 0.17104289491486027 -0.05011645704041691 0.1386523943992967
Ni 0.2917813425464145 4.782413865855443 5.772443866370035 -0.6418018564439786 0.39598408251007283 0.202639952994851
Ni 7.978718885832923 8.756832091435683 2.4264101640864557 -0.4373901562606854 0.8694712416036317 0.7447061467093885
P 8.54893378113792 1.5298808959631969 3.54958160168229 -0.14652974026484442 -0.03450369020382445 0.1485125750228281
P 1.942358253708913 3.120796324656455 1.613053823618571 -0.718438214151795 0.5444200386586947 -0.6640290432732951
P 4.774215467996903 1.0063351990874556 8.213202133611354 -0.3801921097831388 0.12128767786860402 0.7981676089626383
P 8.533797579781833 1.7615672566845768 12.51390117662039 -0.19289290091041617 -0.894900994530646 0.11579143064072317
P 6.424124898979768 7.68102816713095 1.2825087510204325 -0.797785028812239 -0.16289224078326783 0.0527171278880576
P 1.763616856149212 3.2141891356600474 6.0617511791202 0.5253799913081081 0.000136525577864281 -0.6558850740099221
P 6.912555334231319 3.8986465285580003 6.1214416824668145 0.050794199833731866 0.3842243708709834 -1.9866675014662105
P 2.2479480924714927 8.540653762061762 10.26632400723785 1.5616170977178008 -0.7439849522726477 -0.1020681675173597
