# total energy = -340893.65880527184 ev
CRYSTAL
PRIMVEC
9.03042165530835 0.00000000000000 0.00000000000000
0.00000000000000 9.03042165530835 0.00000000000000
0.00000000000000 0.00000000000000 13.21693490155961
PRIMCOORD
 96 1
Ni 6.510148442848068 2.053237965332741 11.332464100408304 -0.24357834308042564 -1.8780602472787526 -0.11178308081227845
Ni 4.829307010087452 0.5082366519090523 6.2915914662665084 -1.3470960770146478 -0.9599571036000306 -0.019879769643062536
Ni 2.6705124447926476 1.4883579929290318 4.741522280150655 1.1837274108155935 0.824995784899076 0.2590810667017151
Ni 3.75013548798407 4.602426693768958 5.224311203537756 -1.1345810309979298 0.38374357457982294 -0.6058866306046082
Ni 5.009698715181316 4.295681327397893 2.8962531218849286 -0.10303824474011289 0.06640156735368564 -0.643968267967678
Ni 7.235950531029344 6.0055555661195 2.535206023381784 -0.12133010107076524 0.08148571538031774 0.7486116524113817
Ni 5.346235442941281 4.5596676467315405 11.508791212667628 -0.42843140440550087 -0.2090895652749367 -0.012406086973836699
Ni 5.4369460295285785 7.838406088379767 12.5083749186665 0.0871691389183402 -0.07156742782534127 -0.4991645092550049
Ni 1.7864612456750049 6.297039519714803 0.6703751654977992 0.36608600939905983 0.615455762350282 -0.6291404589262262
Ni 2.8950809731403755 1.3442595528918475 0.3740843183992201 -0.3376321249337411 0.47644649883219875 -0.4225644041017626
Ni 0.5931569320633215 9.180326762035564 4.840834343465121 -0.16380755350868564 -0.9283772719112205 0.5026131299252377
Ni 8.439877329758263 2.1177422679701796 1.439430264786808 1.096877345799569 0.9606271330838616 -0.3738350572168594
Ni 6.799022604554496 0.7519379348414006 4.919805381763371 0.44724133802315236 0.0964096836800017 -1.1923740307469983
Ni 0.9291671862346306 7.408314191177851 2.803973047995602 -0.26426286801297066 -0.13335977854178968 -1.037239322421962
Ni 7.469991971804157 3.706301820757117 3.652883263873244 0.8055263633205547 0.43317328996586046 0.9497701357646998
Ni 7.577453990757751 3.7598251305334154 12.575490819277162 0.8424736299688652 0.6642311319817722 0.5056786562244387
Ni 7.682486826257687 8.795405034481202 6.954354889262124 0.4756592270442131 0.27952750748152505 0.2602180085196357
Ni 6.78091660892408 0.6797026881345359 0.2567087024366134 1.028705573919338 0.25218099714777215 -0.42338484312052893
Ni 1.58567884824524 6.464039109337391 9.19865671212565 1.6514956651475043 1.302264522522254 -0.0450243872294902
Ni -0.040522211567265584 4.655796486375323 1.5876971475087802 0.4121131268614515 -0.7983887238345089 -1.0449359197352712
Ni 6.395886516308587 2.1089827588621977 6.999397729962849 -0.07835514017113603 -0.06712404734200698 1.1432898716258373
Ni 3.3440645126658985 4.344698456715549 0.6141246683497374 0.7574428775497666 -0.3831486213083014 -0.7730690141227977
Ni 5.791895787258826 5.771089695521929 4.559512323477254 1.2266635480574875 -0.17307175241943096 1.3933548508718714
Ni 5.285271065634078 3.061439402817947 9.419630229570402 0.26756493580301016 -0.3145546742889873 -0.5363776279701924
P 0.09532332602271791 5.457481208612652 12.581134832877666 0.09044189613234102 -0.08340401544895314 0.06154475348201658
P 4.105500645115315 6.02124140871802 12.597774288014127 0.31185835840374676 0.21607011035782786 -0.2651740669733304
P 2.618072785627646 8.408650131309395 1.4800319440655687 -0.6897503592987991 -0.6804774186373056 -1.2037197947771203
P 6.216506218451933 7.6634055450771035 5.757402285259075 -0.38125011873400794 1.2225983768491782 -0.8222174508229905
P 4.78156317023807 0.9181410412646862 12.468592298641443 0.3455156414468759 -0.7462662921076567 0.5222262761704748
P 3.7658574522696333 6.136144495202519 8.147553546939205 -0.3987822140805003 0.2052874179200271 0.020680411167486965
P 4.814795122317836 1.0328906105792504 3.7942915412678837 -0.7664877613608541 -0.4918592338428432 0.02822557050459655
P 0.19258909576618521 5.460894708038237 3.5745461611826026 -0.1511088749950946 0.6890389350540714 0.7768973867299523
Ni 1.447919764284142 0.9076115694915862 2.5514237578220165 0.0856753279816331 1.5272062243380988 0.40843387823765137
Ni 1.741950296815991 6.550794371193456 4.857713104778243 1.1717345001197756 -0.23667313132016013 -0.331769495505377
Ni 5.976269908349206 5.5014322713224955 9.37084698817635 0.49394362717569773 0.20135980073084678 0.5634089210563716
Ni 8.747805681379992 2.3525242033293794 10.111299129580182 -0.962489383103581 0.05028537851811339 -0.17054975732852562
Ni 2.154116806822707 5.313644650806531 6.96927675817968 0.005629173261319337 -0.5677193755062675 0.27992834246436954
Ni 0.5193278159156746 -0.06472825709710656 8.691060317119438 -0.38987308451632857 0.41686503972414013 1.2834964978861314
Ni 1.430156924680636 1.3465081279102882 11.268229807381514 1.2523887207377333 -1.1875460132307354 1.4734652831712172
Ni 4.198342411238164 6.6025928704134405 1.5050913644518058 0.3161932383336748 0.7482910358471694 0.06016947040104477
Ni 5.5127022376799815 7.329921099872292 7.95050161673883 -0.3083773418336818 1.8850037684761214 0.6358435819780146
Ni 5.177953533428657 2.8171935854534222 5.063473973724741 0.3047472012802622 -0.413959693151887 -0.8603628515444602
Ni 0.6798869087384563 7.486725343326931 6.857144205091397 0.24573318463989938 -0.10205351222934037 -0.42278063387762677
Ni 5.257538640406643 4.6411491422792945 7.252859092734277 -0.20554478534647183 0.08130342416618257 -0.42322672027610986
Ni 8.094870066386662 7.133473304887715 9.144783925027209 -0.6122172008083263 0.3285856984607567 -0.4176016607798485
Ni 4.421059703124926 0.18529612715215812 10.340956300590124 0.007933653024779884 0.32191317153658755 -0.12671759063492372
Ni 8.168043573914474 7.368291361933958 4.636949996160519 -0.5498021289062144 -0.8847582496696891 0.039360504075493505
Ni 7.25574521552903 6.262778099554304 6.941534399488307 1.0681190427199538 -1.6931588492142455 -0.44975999067994793
Ni 2.4267813614684886 4.874188206238659 2.7443514944042318 -0.36186451511854456 0.8013575766548456 0.4859922335391049
Ni 2.5357604912778977 5.183498212389792 11.370449666502958 -0.5340314963355189 -0.27649334864089153 1.0296941630848524
Ni 1.0410721726945409 3.207226531724402 3.7176331939825764 -0.6592069392943034 0.05366226541014629 -0.013227554433867543
Ni 3.6254343938890976 2.417994761095225 2.4250168170564272 0.14318936303770177 0.05581916385214903 0.45509374418803555
Ni 0.9967960148013081 3.3813872458033103 8.4313210051399 -0.18794404154557307 1.469184396407676 -2.0479080934442475
Ni 3.70948052921692 2.7769449956655095 7.136748638860358 -0.6594409096819804 -0.09475415035444971 -0.49523972027930185
Ni 4.0560952076619445 7.036007962823334 6.034759950093949 -0.4632739660059828 -0.02517984169973728 -0.4694011619496432
Ni 0.7148734717663477 7.319093624181086 11.639163411628388 1.1274441628428324 0.2778197807617989 -0.0715633140602832
P 0.12074215719503514 5.646451814379282 7.95552433732219 -0.27230682136336976 -1.077890263174105 -0.26702628969072073
P 8.442595486708266 1.7271042834412258 7.9734732036139695 -0.22858135545096117 -0.13699711818406085 -0.3642929220543791
P 1.8789508253491818 3.3481552937235435 10.440479675773792 0.18761159790681883 -0.6052271426437382 0.222014757977037
P 3.8437538703783476 6.287972976266953 3.63370535717982 0.15756285815055446 -0.5875464375345236 1.1579364178944187
P 7.141961901342872 3.771998139066982 10.27520218758099 -0.4353242748705922 2.0265242284518323 -0.33882048881488747
P 5.99916202751285 7.6768337822354225 10.192067221808832 0.9837606337775316 -0.08484177633674421 -0.21247545102803408
P 2.4774239667030895 8.578169208603247 5.869283792622407 -0.029340915055962376 -0.10736669691213767 0.7914017509937145
P 6.685555355129967 3.8066298065196738 1.5298202714015974 0.3696703843162085 1.0644907019387473 -0.4159777520231804
Ni 5.239017245375229 2.884587623054319 0.11950860158250902 0.3348882436400168 0.07189010127208265 1.2870410207042802
Ni 1.4371464711235 1.1949324986551566 6.939657877846412 0.13031224996471752 1.1042307008408465 -0.6489276688554825
Ni 6.7594332355551225 0.5747565446835029 9.096449495594669 -0.7516198431100862 0.02531431039507253 0.045067838872915926
Ni 2.3986877193706206 1.6860610165383618 9.064002287165916 1.7666882858619637 -0.7876505114813983 0.9005006001056104
Ni 6.352134122877481 1.9123092033335998 2.5310962784384414 -0.6231752424817268 -0.9142390327376254 0.1970920265934283
Ni 3.7929396871302914 6.744388552901619 10.304094118962512 1.3769069897284931 0.8175691534177018 -0.5224630747716293
Ni 8.418971903381996 7.129328341299505 0.5235937871554793 1.2385340742428284 0.14034032362468088 -0.23355952539184294
Ni 7.643665043107982 3.9210000981202837 7.972666786950729 0.5286275517111283 0.5207975141437483 0.6063419729744718
Ni 3.032560114026889 8.178762684544552 12.171951071178546 -0.5802270210549749 0.115439189507627 1.160150137716286
Ni 0.2990550591995619 5.018521437241624 10.373827035799458 -1.7651700494452245 -1.373839149436447 0.48653319364423947
Ni 8.520862152109173 2.584804711860836 5.8578377330405855 0.6458063496176814 -0.8582146948532058 -0.5771974902000317
Ni 3.8417671775909703 2.4727462082309923 11.448059820241856 -1.2581868154767493 1.2963144755864062 -1.2680138288695
Ni 1.1838702319981689 3.506449556768715 12.629957808127465 -0.7373435356967302 -0.18842972293274002 -0.29690482241770805
Ni 3.023394235939671 8.469596447773075 8.258469702216308 0.7621297415024746 -0.4752180257417364 -0.8350583113414006
Ni 5.69829546570807 7.872450778418006 3.480931390957029 -0.37560988972909504 0.7299233319732591 -0.35464845698607955
Ni 3.014625696409928 8.395465715538618 3.649234973481878 1.60384823847287 -0.46992772387707454 0.22807664790040075
Ni 3.3323610860638935 4.263749756051682 9.100653156924325 -0.14807651592667403 0.3712554694151413 0.04844395443400044
Ni 7.509274306463664 6.629539648947686 11.330852170124 -0.9475656719142133 -0.8685073350284656 0.9297121886725601
Ni 0.7210150616058719 0.17271404051282688 0.43418448434391343 -0.38140772735779477 -0.7689549919544242 -1.3258721346388649
Ni 4.775539878923611 0.14357828774376183 1.5142373756111502 -0.5521469749893072 -0.2231046486071061 0.26702448991850786
Ni 6.355583743990109 5.799625828286077 0.2666024325177527 -0.6658480987599049 -1.3007581131800565 -0.2422272283691699
Ni 8.227274110243602 9.005723557290377 10.891785839776196 -0.05164960585549169 0.12879247088608142 0.791737022845946
Ni 0.07903966950363218 4.904394967028556 5.778615649017384 -0.41908030220790404 0.024661507302422045 -0.533399776288791
Ni 8.131497457048493 8.815136506028564 2.3243167779173253 -0.49857418396917363 0.3618819986200413 0.8963510967136111
P 8.599137847931841 1.5366978406146272 3.6876567089475802 -1.6369180244436454 0.8189490644843638 -0.4655229099411596
P 1.7185073219249383 3.1210943689698327 1.4582903006342516 0.14154797077953685 -1.226032856452024 1.0980610816950251
P 4.696632053577688 1.2790869990441094 8.418803937537245 -0.5981013302322344 -0.7658493564459068 -0.7565725591296711
P 8.588870258389804 1.696066723849335 12.352032129763836 -0.5847069112031995 -0.8185166049326354 0.6171894572119371
P 6.580260637398967 7.718175053056393 1.2680337628088825 -1.998826505426248 0.5188409046380097 0.7774535163437384
P 1.9415497089950902 3.3479114723360017 5.7721661217958165 -0.2010679805220408 -0.1079541939844915 0.6578848780487702
P 6.8696405027240015 4.151095244585625 5.845096710978264 -0.21125520546768778 -0.1031922538194739 -0.3132678371567637
P 1.9856723497183892 8.470445307418592 10.237851460136119 0.6084806165840294 0.12545106521767427 -0.11860987392612476
