# total energy = -381163.30567869963 ev
CRYSTAL
PRIMVEC
9.33887951893717 0.00000000000000 0.00000000000000
0.00000000000000 9.33887951893717 0.00000000000000
0.00000000000000 0.00000000000000 13.66839416436946
PRIMCOORD
 96 1
Ni 8.028569492806884 8.944171934857444 4.455376843896799 -1.4742438132084545 0.32267190407948304 0.7166788082585269
Ni 2.419703726314235 0.7207177669015907 8.990837382754085 0.6577812625913705 0.26057847718284805 -0.1577088968101155
Ni -0.5074775237322787 7.230459496069946 0.687048303974224 0.4999638652278486 -0.27236955628050513 -0.39169291133388673
Ni 4.0913445121220136 6.346581228308422 7.526350692225078 0.3682387940760045 -0.1266471424083045 -2.418568866698183
Ni 4.357455888738471 3.082885589366156 8.885139942482281 -0.06732767871238081 -0.7321182827420488 0.6787516941954505
Ni 0.6525009863564923 6.20378975792886 12.410341956468462 0.7770477962648875 -0.13924451945734084 -0.6839964875341574
Ni 9.356250000946273 3.9238983993747567 7.0422166321527575 0.062363392728570013 -0.431846857844953 1.012441546651992
Ni 0.9531727550222401 5.165399725783433 3.2051156483438428 -0.9832728955078356 1.2955799114132267 -1.3285741069510602
Ni 3.6134180053761344 4.613322514340777 13.26078890273458 -0.4157723208805936 0.6788195713189084 1.5410014783499784
Ni 6.509199140258671 7.052768632308537 7.755365237069872 -1.458668841588333 -0.7297963194770914 0.5466072761180006
Ni 6.47920265871131 7.013909553940365 2.130342274834667 0.2950189182489048 2.0086851433878827 1.6269465150532305
Ni 4.543336949983391 8.417365731841675 8.296264743417872 -0.37642595787248717 1.9558057788903478 -0.931029621932403
Ni 3.3085876335867757 4.812875695444145 10.818588749147791 -0.3875889164678421 -1.7574557115201024 1.3947329621663207
Ni 4.743310380672571 9.107947867888601 2.2847541132059423 0.5558241667305783 -0.06607632280378298 0.9587191174278714
Ni 8.507327159844705 0.045607352828360474 1.682182513195905 -0.25560596366892113 0.4699104974858939 -0.9559595524048632
Ni 6.244778100865151 1.1027629298122879 0.7982836998990749 2.465143114913296 -0.9622464138548397 -0.45370843380473475
Ni 3.8471981805240474 6.684499250820789 2.0210092087015963 1.9689685415245513 -2.6024464514838663 1.8029526675106367
Ni 2.8207432366157104 0.0785773336673407 4.8017344119802585 0.24724602173999996 1.4592331987322353 -1.5529943890457965
Ni 1.1929858464464902 2.8571461896267984 9.576200229169066 1.2209107047341101 -0.16547002881277306 1.1907017852508976
Ni 3.8853101485174415 8.546727893234591 10.599046629967223 -2.5620881022714777 0.8760704920877042 0.4237926200819089
Ni 3.969845687423642 6.533162705529696 9.66634283143798 2.8101694754285798 -1.0686157798507145 1.1014976181804
Ni 2.6777369720033986 4.33758275276936 8.489768198261471 0.041777083936786114 0.4650631966959216 -0.3585673324245115
Ni 7.103319988041995 6.943326301283155 12.81563719424227 -0.3140651362470785 0.18997212771919542 -1.3586066487574087
Ni 2.454733864011667 8.08235210091126 12.588523111413318 1.548771094993068 -0.8233160832038079 1.1404331189033325
P 7.648934694742817 8.976204292176078 13.09649466188092 0.7906867272045608 1.302088401955706 0.4565690431819814
Ni 7.116002186653861 4.969255235764994 6.708420791133232 -0.9479413100860772 -1.375941026270798 0.002228889330518742
P 5.924930810542742 8.144399617536623 3.86201804869575 -0.10657325447656485 0.7595349841921049 1.3626142272549047
Ni 4.236498719061814 0.6977964206033828 0.10684799024896344 -1.550816150447555 -0.39116686362708764 -0.32010182935946163
P 2.014088164967241 7.199211604644829 2.976566179707349 -1.3416473951952506 -0.8234230410953174 1.241098492535895
P 2.197737233967509 6.778952679952175 10.927881658098219 0.09426512653317314 -0.8614483712991552 -0.0955301092885258
P 4.609157374001386 4.27939219345379 1.6490640441699373 -1.1637545672380925 -0.17453548144915101 0.1563698662837178
Ni 7.442059831966618 1.719381138756132 5.64854573238511 0.9141071351454515 0.5572318457113823 0.5229608403436542
Ni 1.5494135284939974 4.331428431057121 5.26201790722574 -0.011177613883374298 -2.6746900794406256 0.001819826817558156
Ni 1.9613888669062944 6.253052348265824 0.7880482877646079 -0.9706544354128765 -0.14669249109495383 -0.1902176680710982
Ni 7.8019242217381075 0.06452045196588108 10.41530323828214 0.5434952128515801 2.207722209522824 0.4868327271625293
Ni 6.016349103776589 5.558090277646758 0.6928300043870419 -0.915971699158016 -1.295770687267794 -1.28214975405025
Ni 2.612383491969639 8.449780983227383 1.4442437349243804 -0.7728728389515915 3.0087830808728566 -1.138806381933187
Ni 6.914590568493232 0.08425163696378427 7.6943767494007576 -0.007407091097348533 0.27255210460495644 0.8159871536425624
Ni 3.6549946977325645 2.588858854043798 5.144715041169719 -0.38720222255238473 -1.2280707128176591 -0.3001001894265541
Ni 8.773550603017378 6.187166552090035 8.239486222710635 0.15230829461983444 -0.3638776888938314 0.7396572714315712
Ni 7.247176090705617 6.465950788438675 4.7486326082048995 1.0027199484888538 0.4685267297644899 0.2772484816393612
Ni 5.2442852424803705 0.8136031981339104 9.683264881426716 0.5339196533480031 1.0530819458811733 -0.13856677666402586
Ni 8.560334640935247 7.22277359808941 10.720709818948047 -0.3146894000946387 -0.2423010190298988 -0.4454436226927812
Ni 1.2011667050503163 8.698914276576994 10.639723988210012 -0.31312514093131233 1.1431433187456441 0.09709642533438118
Ni 2.333524544583522 2.039079007003586 13.420982441518674 4.730829816766046e-05 0.33618562229520166 -0.865315053343413
Ni 0.8900960938556186 0.29966036799589113 12.946265707720436 -1.961612872490428 0.26548285646300085 0.2960463310721546
Ni 6.248681752573369 4.7499036297299915 3.2849938879512663 -0.7264001493113489 -0.5780652375169657 -0.2659693091811161
Ni 1.0456370027807782 5.134721506019087 9.606202314044237 -1.4472300036237722 1.7131949419295138 1.85283361150148
Ni 8.354365649488468 7.838252463711717 6.76437935820415 1.5421101380331248 1.258376562890052 -1.3869186083282241
Ni 5.4867132202163456 1.2333484844439049 4.6909659600396445 -1.344057033078008 -0.4490295402718267 -0.45549895004625424
Ni 5.45862187012467 8.86294235935964 12.081999087296852 1.5297621579907332 0.661569525989209 1.1856521386421324
Ni 0.7546888756427742 7.675727940558314 4.737083215698791 0.7673290263152268 -0.10113537129044518 0.9743534815310186
Ni 8.500930027260663 3.9339470339155294 4.555990198068234 -0.8581265060147737 0.4125887809462894 0.7296574799063821
Ni 5.8368371584766585 2.196308385375745 7.436768422737249 1.8874645713117881 0.7815369423844927 -0.8138364258481467
Ni 1.778561619318283 5.842468502926552 7.07175364081963 -1.4829660235728008 0.5303316788864285 -0.3288032137882015
Ni 2.69289397373172 6.175007330740513 4.890223098657006 0.5315475535714007 1.6768259163821768 -0.6004276643725659
P 9.138383276781145 8.544206395719714 8.92663725436139 -0.32659232217981177 0.1658585225004434 -1.3846197849917186
Ni 4.419447372085727 2.820855303171927 12.289089678193767 -0.26816811660464784 -1.9062763047016524 -1.3041252298800767
P 9.055556752857251 5.82699397928895 5.902901327254425 0.8428556958986322 0.35107539492284057 0.22081790945545837
Ni 2.721088051499928 7.967427847510939 6.3468912791139545 0.07287586222411965 -0.28675102181315776 1.867575288587029
P 2.8515895562143823 1.27527071534867 11.167830163277896 -0.052563118808696574 -0.25719002032658933 0.25336241905038304
P 8.02157467192302 5.28167811673804 2.255312361111854 1.5802239141857106 -0.37761843551869156 -0.893249574970152
P 5.48814206880811 4.898933471738956 8.291685890708449 0.37799175969771037 -0.22976740533926235 0.6382740457963781
Ni 9.228101893912372 1.5575570315790845 8.43557281167503 -1.1192924802699755 -1.6730273685716928 -0.9552296162173743
Ni 8.92898691649007 2.3274822894275 11.4508337054681 -0.7284966268290615 -0.5116572424053768 -1.2180434104886442
Ni 1.3544363984361487 3.9844703730099327 0.4855162142656614 -0.7664504803650154 0.6380732426394818 1.4531589675136973
Ni 4.859728854822448 6.420965404997318 12.23202351999224 -1.704769693980296 0.20918855274664616 -0.10288783520517765
Ni 0.5217958940649109 0.6964189358498847 3.519037419506289 1.220476445410169 0.5097787944357414 0.1841452366247732
Ni 6.141788935701919 8.002196496577199 10.103594781604974 -0.1874223647141482 -2.0899836824580587 -0.9052674253666345
Ni 6.379538134715843 4.075608499853239 12.651411127210308 -0.9183404565005088 -0.8090564879610003 -1.6339206323782185
Ni 3.7745323576971423 4.334743733345201 6.509531604375448 0.7667237886310602 -0.05898599161590487 -0.8050260266453685
Ni 1.2627099221727045 3.7257086947053604 11.940655143268422 0.7350308284031535 0.7154806741853679 -0.6385388694219907
Ni 5.914265809942777 5.473078455876636 10.642252956828637 1.9951544558912995 -1.6264418075026699 -2.178393378651719
Ni 3.712680957545158 4.5205687613120125 3.72231401193996 1.596564046106631 0.008019527870366834 -0.3603629908723535
Ni 5.045451155112727 5.963257572768884 4.973396095017204 -0.3946273113718623 0.8871606884635946 1.3678878169490183
Ni 6.799993175881877 1.6092664083934491 12.219530900637974 -0.037846124313496106 -0.15614155232299562 0.51375500547467
Ni 8.83308596100755 2.3108310669496217 0.14144853948089797 -0.027324655956881976 -0.22425547438209764 0.22252512195455224
Ni 4.960831566289364 2.211428031585327 2.3022906614779335 -1.504788518764531 1.118988061655679 0.647883029641052
Ni 2.2381932607617707 7.444525296203388 8.774617103077375 -2.395011133982901 1.2802728487425112 -1.0306575554393862
Ni 2.2265103222761704 3.320485366305125 2.758158734408474 -0.7971363394846466 -2.67034774331153 -1.0539170401879592
Ni 5.977835563956751 2.8524487331453776 10.472614075131407 1.2879830729025754 1.1902821812149758 -0.020019123434404235
Ni 2.0317853419698095 2.328724360425569 7.1736791075867705 -0.061042617034617455 0.4165300249822246 -0.517380003821767
Ni 0.7694732560716745 0.28891598691860615 6.32295853214589 0.1451336312482662 -1.1325773703043396 0.03299265287593672
Ni 4.9723930993390635 7.646301130671722 0.3789689359425464 -0.1779959291939257 1.87853461581201 -0.11280278032604445
Ni 8.63027351089421 7.250089821167253 3.023721918787438 1.2537724884591375 -0.19837012197490353 -1.0354552339383458
Ni 8.210649630020118 3.7508116032979215 9.137909795581129 -0.5952800587333554 0.30664107586886546 0.8173292694927536
Ni 8.322828252793126 4.87575437236145 -0.3449305872676327 1.3722622918676302 -0.5753648078666672 0.905814556119356
Ni 7.057036500324459 1.4160449877163304 2.9948685161134874 0.9033948909342701 0.08438026331929338 0.30245814813576943
P 0.17503582026703904 2.159298405185149 5.757579020480301 0.6365367513902973 1.3267751060691084 -0.5727816205205233
Ni 8.999374052673899 2.7851714438965636 2.6273527822162976 0.593493656256894 0.10910476264916692 -1.181396705799888
P 1.9414130032606511 1.3001027964303742 1.7196893217857283 -0.7443004266305375 0.11351240479855935 0.6025416253917752
Ni 5.2348716517581595 8.527461784444988 5.970806189218054 -0.060739226861585706 -0.44694103317391415 -0.2880394016072781
P 4.008051044213882 1.3263824038632117 7.185378856055804 -1.1024468694675464 -1.4610676808378127 -0.0792614540354893
P 6.096644791305921 3.6314607209270378 5.09954101235873 -0.27913027204310636 -0.8475844688328693 1.024788498253119
P 8.389797359012343 5.115670191462232 10.899546563246771 -0.27749505043252853 -1.135544937573096 0.7400254534042675
Ni 6.9384981004861475 3.450818771185254 1.2710514095071077 0.2570843479866604 -0.4420564513881031 0.36084944359046883
