# total energy = -381161.4597808694 ev
CRYSTAL
PRIMVEC
9.33001004021425 0.00000000000000 0.00000000000000

0.00000000000000 9.33001004021425 0.00000000000000

0.00000000000000 0.00000000000000 13.65541278572610

PRIMCOORD
 96 1
Ni 7.016531499844355 2.192235163857764 8.167384519293082 -3.735119466825806 0.7090277194711725 -1.83254323668356
Ni 5.060401572729714 4.096191674238526 3.9119752889198427 0.8128072132526841 -1.1802386809360446 -0.3373832421477286
Ni 1.0957257215027691 3.8328614678907074 6.651906306347386 -0.782497249415233 0.2427836150932722 -0.023651577980668942
Ni 4.253057134815548 3.7576989061582093 13.643764594361851 -1.2859904679525787 -1.0298098627271104 2.457704142136748
Ni 9.670089015348516 9.209298474280414 10.943311648863148 -0.8630465690242105 1.8640919580241186 0.5897370174279392
Ni 0.5231569938859855 5.637677290464924 0.6993896895231266 -0.8792501753672665 0.15047021296983118 0.26609220791222565
Ni 3.0660092740081994 7.987524315711354 8.041085104953876 -0.5196366610664276 -0.21021853667305732 -1.0828483785103287
Ni 6.417927378916433 6.105595959284219 2.1874059506064305 0.03767566017390286 1.5223941476614362 -0.33200732254779597
Ni 6.674577298000043 4.312349349290477 0.9935182593613842 -0.38878962164416264 -0.2565672991409259 2.1400443465598755
Ni 8.78689159495108 7.465743498321835 2.07028353424638 -1.2509959541552647 -0.8247196484195539 0.283136564989022
Ni 2.5392742212313983 5.851661073152964 13.2621783754213 0.7644632747316576 -0.28165895200223107 0.12979005891266035
Ni 4.003628643584589 6.678701162484372 9.69546570994338 0.5951612737673041 -1.761529881589476 0.7780109315091053
Ni 7.831116025631463 2.322407465408386 1.8848290565813834 2.652162330651755 0.19665005396000326 1.3255497183024396
Ni 5.0637137263313825 6.171960321449471 -0.22427944888364637 -0.17413567490757106 1.5066582249834182 2.7081743272410006
Ni 2.457832562670949 4.1254879060955325 3.084060977637797 0.4469911696855592 -0.6692082734813893 0.09510921970102329
Ni 4.805738945807105 6.4151936859437875 3.958799810837282 -0.24125715114641674 0.4585989291278167 0.840571784960462
Ni 8.269085361883564 7.65671014598082 4.381257072221402 0.4757810973340581 -0.09403655546213482 1.7438378636263514
Ni 5.862353264779757 3.109272531053085 10.532174488788614 -0.1859910315842603 2.9696220944026797 -0.24578846335786697
Ni 2.1522280803536735 7.822961596764259 4.144295340546919 0.7669294768839631 -0.25625799543062316 -2.678857066334122
Ni 7.842284047775679 3.2076108379871124 4.584258499967122 -0.8287251700345212 2.511479793196307 -2.4385527660192774
Ni 1.345415453017803 8.157824990897959 6.161363295926162 -0.6726378679882287 -0.5148248415000811 1.9053064845892156
Ni 5.578581006203052 4.342233371786652 7.865667852203455 -0.43362683256351126 -0.44018391695573866 1.9458962330861196
Ni 5.235525863161565 9.047954608833532 12.611429760790948 -0.7280564539678493 -0.36099573936034596 0.43260121951247427
Ni 0.9297037889689106 6.655674697445171 8.34501391744901 -0.7896729412280659 0.3196691126974172 -0.30975493890749883
P 6.561861445431732 7.698629881564746 0.34644566872837784 -0.538502644732995 0.3837654289566939 0.7023027420425131
Ni 3.8269089214178504 8.945259187161534 10.01243507761894 0.9314633670357121 1.005877777391545 1.6486054880839025
P 1.2755336770276826 4.3540731546613465 9.028453954628331 -1.8866119935035055 -1.1095130322857087 -0.030005802333470905
Ni 6.079826471262229 4.2848817994219965 12.60733295333604 1.8302063610202672 -2.3517996315924337 -2.13197031130249
P 6.175020564777209 5.432771607648498 10.058604632824162 -0.6223789718326765 -0.8956841525535736 -0.8148769512975192
P 9.024135092931958 6.389498838002962 11.57427317797683 0.7634152930831175 0.1915091331890121 -0.588618844663096
P 4.713325195315498 2.1720170318723713 8.849745074298562 0.8998783931405793 -0.4944102823994711 -0.29920236020263313
Ni 7.782665282945656 6.809022744197323 7.057526631422858 1.8910836561216142 -1.0024319849347898 -0.6659434866871886
Ni 1.2689093698243468 2.4132351141752517 4.364734557254659 -0.10012055687268563 0.2982898756906927 -0.365870293843828
Ni 6.0025646572469835 0.9876655439970846 10.041084739772861 0.4606735522686582 -2.974596150578503 1.0183975071251106
Ni 4.545385012695715 8.905420043840065 1.8156918154008772 1.2655766801829171 0.7226100861412975 1.0468112823811133
Ni 3.5393113586814735 2.9828135735403887 7.300170339275978 -0.32026689418241616 -0.594967155478627 0.6595774352598447
Ni 1.5908880199470512 1.6876868752070646 9.946179876572392 -1.5727936831599107 0.4651483002105602 1.5141290794391666
Ni 2.820172836683275 1.0415650126078893 8.409331275388329 1.276876935687085 -1.6134147991153827 -1.6035705593314513
Ni 1.7961202531185707 2.65261518447946 1.014822404527718 0.013819679491911683 0.40230025453608775 0.16439736457388462
Ni 8.582946903179646 3.5129727400406043 13.889602897688805 1.5906070571922477 0.7803740324246431 -1.9833438364096163
Ni 3.228855271088515 8.062080426784393 0.32704951063680754 -0.8711709979035578 -0.27742151688211575 -0.5605794220273765
Ni 8.053067636983796 9.049960561014823 7.23446001082193 0.22297506500777728 -0.4613142711764507 -2.0420256665215417
Ni 1.7571861207812178 5.551999807298398 4.652849935554114 -1.265990113571252 1.199973697471127 0.4505660315210111
Ni 3.1842764826131083 3.456843399005015 9.755508990235024 0.3376609212891475 0.7189493494602587 0.5962457650807343
Ni 7.954234839512055 3.8354178906705862 6.978353098328792 0.8416660464659053 1.3711636594868128 0.2686016045976406
Ni 5.896099911476187 7.009263421940977 11.437064182774437 -0.31199385554034653 0.08197319653969753 -0.7682998748689285
Ni 9.433853158463355 1.2024890275982227 0.07448613599694617 -0.49491910371508957 0.4597392133798469 1.0413080931746967
Ni 8.072483388096673 4.239873830479895 11.251377387856817 0.08773889537888116 0.8347464365279366 0.41970790848957396
Ni 5.580577628374199 6.83754458521225 7.718012044641098 -1.5208630557288905 -0.796071645665558 1.0696740459118999
Ni 3.936723140830897 1.89851711446591 11.663880461416658 0.28820523776118107 -0.09101473791667551 -0.29909925896586553
Ni 1.755217488640508 7.707260140949374 10.362573564362926 1.5067063046125344 -0.4170355038637334 -0.6554603277676776
Ni 4.116894966751486 5.275420986543908 2.0585398504761843 0.5994205632642903 0.5863202784369064 -1.8804500876671677
Ni 8.411228066450919 0.9013302951152983 8.993208908302526 2.5720446992635577 -2.9538576324795707 1.6538667364828419
Ni 4.210251048267795 4.926693197333931 11.78045613918218 -1.2576121739202017 1.2065125270309094 -4.217457648552092
Ni 0.4031926564356022 0.03649713368733689 4.446175282814094 -0.31146317984785715 1.9278658579469699 -0.9687500193013121
Ni 1.9135384308002352 5.411937694993501 10.782928774461254 -0.5485291757310617 0.4266905104549941 0.06586343546202851
P 2.1649822042226314 6.2727897410923585 2.002265894283339 -0.2589517402127024 0.3880679129867897 0.08180941726832362
Ni 8.041852964788854 5.645122638561068 8.990273687110738 0.14443172008523514 -0.9982709115785647 1.0192467424992833
P 3.9140698761975172 2.850028869149014 2.22036980945165 0.7160535159697023 -0.50533721372462 -0.365728368949325
Ni 2.800999665834183 0.9127474285303999 2.975296384366124 0.4000801069563174 0.7081563726098127 0.351292396029653
P 3.628860796058399 7.443510084145006 11.947106914399846 -0.1833199125100004 -0.2382520457715058 -1.1174806238722175
P 0.8009272569360615 8.88411963067779 8.398501932612398 0.6146157829474899 0.27089914238256574 0.011021805031800374
P 8.12093413078248 1.7610953950322006 10.877942798780426 -1.2572555619117314 -0.6604061018087272 2.028578796988016
Ni 4.997489314318314 0.6226531550790754 5.069421826538425 -1.414798622567944 -1.6138035499133692 -0.8807020773224444
Ni 1.3881562294945375 8.562243610666686 1.8652061792432764 0.8068062584742428 -0.3862036060845413 -0.5617976107051937
Ni 5.756952140165552 2.2408725067464816 1.131943887886754 -1.03784713120929 -0.780022048401863 -0.3059358222717247
Ni 6.475232301230361 1.716983107064071 12.439739847093673 0.7546719996728487 0.367899922679347 0.08155693493788535
Ni 2.6843931990351813 5.261024780889335 7.787791190519617 2.129571729163326 0.8555664585970814 -0.600585787216985
Ni 3.2491387131449265 4.047666291471554 5.453083972736362 0.15984599775777633 -0.15909780673784216 -1.5437096213097607
Ni 5.669837835436613 9.206788701551265 7.951642962693622 -0.7008148446430769 0.550181366622504 -0.24617824259711796
Ni 1.4612008789239974 1.3747210148849551 6.4881786233083165 -1.9173089083667303 -1.0762596695492175 1.453403736534652
Ni 6.167407276498445 7.9566419821296055 5.825508121713991 0.34204850883388194 0.342488681695094 -1.1041857065355243
Ni 6.254045750709961 1.848452280024924 3.427399752987709 -0.7160915682964892 -0.33235827812931146 0.7572778127268119
Ni 8.435849963225008 1.8333563236094348 5.986191422442569 0.9897631312178697 -2.493287952778629 1.5160052134159567
Ni 7.503184829035902 8.712606054172264 11.528349935039447 -0.5124092900800531 0.6922798105888722 0.3076129528638315
Ni 7.06391862137357 0.19668501087718704 1.7111322577018009 -0.2376992585918293 -0.7602124698751036 -0.9246581711884204
Ni 7.565826517153081 5.839364119781138 13.050109110815125 1.2866514985753454 1.8912417789660332 0.6677831109990886
Ni 7.210978241287626 7.903283654107242 9.351417853822406 -0.1517238828712742 -0.3172895567216471 -0.3829645303219534
Ni 8.470818841250505 8.562878051356583 -0.013647938840900967 -0.11431818852930635 -1.1078464432165631 0.043025611631906546
Ni 6.4300377320853475 5.11337737033611 5.935652623486189 -0.7719788663824123 1.050513670933365 -2.3059069828253773
Ni 8.662307969477638 3.088457278418377 9.338622677908807 2.527348384797447 2.705900700715475 -1.1601411388552212
Ni 3.7018867854675683 1.4352447906990953 0.36631859033838543 0.9514989455303484 -0.647473195797143 0.8848163566011343
Ni 5.691054278507578 2.5047998337436153 6.106045665773236 0.6302887135980565 1.2726281877130599 -0.03180557454637103
Ni 2.0931411261019464 0.5610359020758774 12.840785668194785 -0.5706270360713657 -0.02262982158437393 -1.6873517556141648
Ni 6.301647462472525 8.139192960637308 3.352826847896409 -0.5778580066021661 0.7395261451703458 0.3055316448547706
Ni 2.3516010671537915 3.6792988309052075 12.244945096271971 -0.22533353793762484 -0.9348744495997898 0.5280521388236324
Ni 0.34399187606009984 4.031935894366168 2.4677242394272545 -1.6607608924995139 -0.3045222297536498 0.02938333825812359
Ni 3.8518200485064513 7.765479404257565 5.655634760992052 -0.7745556259706532 1.5711836583603134 0.9700641101270453
P 4.203542770973149 5.820592139368304 6.182979996432372 1.3503811755238229 -0.918837193631269 0.31180616500957264
Ni 0.5307049720937301 2.498390116773627 11.856626342010395 -0.6525025306909343 -0.33543280328957714 0.6091889555049638
P 3.1958550252037274 1.5636070702814822 5.527110139233133 0.6827713568778048 0.9866541532752426 -1.2643080978831387
Ni 1.055364097613148 7.739150115626841 12.70882013869419 0.18984691499524078 -0.8971255129857904 0.16100505106288399
P 7.111035172608564 0.4178389063620764 4.911633627958009 1.456185413044847 -0.2831756457570736 0.03348579046227136
P 9.241561649363703 5.839951910420307 5.716865751575225 -0.7878610848303076 -0.23713567277887546 0.16491107098550956
P 0.5827860217271682 1.1478991382366481 2.285874877682496 -0.4257692841923055 1.1637319415302732 0.7378245890982067
Ni 8.211593839366726 5.540216004484577 3.5860612405177483 0.2675798482013456 -1.1485382645089703 0.6240512173287769
