# total energy = -381163.6744552651 ev
CRYSTAL
PRIMVEC
9.28870403356371 0.00000000000000 0.00000000000000
0.00000000000000 9.28870403356371 0.00000000000000
0.00000000000000 0.00000000000000 13.59495726971801
PRIMCOORD
 96 1
Ni 3.1048329638812846 3.1209860204158573 5.139723317310568 -0.4131549378624046 -1.1125219943153615 -0.916173530756177
Ni 1.7336065896414083 5.677896903295795 3.1959430763773504 -0.40363671395932416 0.5907415474330536 -0.4993100336939337
Ni 5.461089259492777 1.0256494246641306 12.637994453548949 0.28696339493428 2.523810803957834 -0.267760596753584
Ni 8.521141380617781 3.1902518873384014 9.762769896673841 0.5137820020578635 1.1141651863457391 -0.05815912483923532
Ni 6.1086048264996915 0.29939908571377255 10.0792332608003 0.07389479040693725 0.06881017679517827 -0.61326029736086
Ni 0.5590490197148398 3.3289879726750145 3.5521444457715234 1.8210912860928767 0.5214516027879794 1.7044444494303939
Ni 6.704586662825867 1.4185337445277293 5.654196774631068 0.03355598157857447 -1.4651374800318122 0.9577588103971312
Ni 8.928934070658487 0.6497597179320171 4.367733541334599 0.41412835751926746 1.1217725663793519 -0.8329466643150364
Ni 2.6114448650044193 7.551837235389369 12.84817274919284 -0.14767542383351343 -1.7074873500217753 1.5573413531605824
Ni 8.069552450461774 1.7626523675503254 0.012661432640756358 -2.693827828711341 0.026052474112677713 1.157656938980787
Ni 0.7340723567236548 0.7307460717638904 13.327707674685195 -0.49047006680480043 0.24765868379738637 0.6839144693433125
Ni 5.905080029645747 1.7095116910498729 1.5038467767574197 0.08337007688722417 0.2963414937150703 0.25738439572558247
Ni 5.541232198986905 6.797380817386176 10.116088981167106 0.011768453389837796 1.5746104246536752 1.1681568100708462
Ni 3.9141670460628872 7.6133098795215135 6.896993809670479 1.8892771990404946 -0.9018046636290147 0.5811834714309733
Ni 0.4588935671075803 2.5497028484516298 1.2454684663558826 1.7701366494218804 1.4518962987511899 -0.26028922807720334
Ni 6.7802524469147825 4.545195163185463 4.53576712846287 -0.46468267342805136 -0.239262232203575 0.2831085399645641
Ni 2.59493883771176 2.9012338573940584 11.32523861425664 -0.002118846115215706 -1.196818696781913 1.1276045996800967
Ni 4.949077308774728 4.079858950872374 2.086594996266571 0.6465028614640738 0.9794095558976874 0.9064709587564325
Ni 2.1520255572413722 0.834942110680833 4.8752200353858015 -0.6837584033814225 0.14265688757299946 -0.2737839201295285
Ni 2.2905758684947815 4.566856421287029 9.89163673384025 -0.8647278133813752 2.2704851516826574 -0.6388954814304609
Ni 9.018765128591694 0.35141861562209026 6.874725070316837 -1.0205657184210228 0.5275438317286463 -0.46044318142540697
Ni 5.144298004109462 7.028864613762296 2.1542158336823456 -0.4750781577297625 -0.5892582780193077 0.25649222292861634
Ni 4.664044132915107 6.332128203410528 13.575149464808522 0.6076925734650953 0.1986125770030128 -0.3045158019957465
Ni 8.66554357549211 5.87801274572295 3.9209217917281785 0.5436762185141346 -0.3371068485578904 0.9526081194341273
P 7.506573380016758 9.236037207602722 1.9247876275368754 1.1605419738380658 6.419309001116435 -0.8199183703761685
Ni 5.539606675758872 3.846879673126464 13.501505831615281 0.37214892776368813 -0.09879849562715243 -0.9339519377855205
P 8.037766504825601 2.7162957575646556 4.695943400742035 0.3880208617989382 0.46343157462976964 1.7373134322442727
Ni 6.406149886863091 2.633059679585184 9.703428081276044 -2.645016720745909 0.0957432537405964 -1.1354521207489736
P 7.3919043271592 5.129733315986284 2.322698065221554 -0.9167047206692988 -0.4880444880824434 -0.562471753954083
P 1.6224951104772034 7.614517411062338 1.38861575729817 0.4672216377998211 0.06405903526343805 -0.26883094699962734
P 3.7082922070564144 1.4186080541610109 3.577471955405116 0.4492246870017683 -0.24345878678342583 -0.6678466172471724
Ni 0.8576604233158281 8.446738860294651 11.569431215664736 -0.19279159944586152 -0.01912103710016707 -0.5492637399042412
Ni 4.6970004552754645 4.669803129494425 10.675699038613221 -0.6102819314588264 -2.756423392055375 -1.7354666088435207
Ni 6.591338781704819 7.1506859688232005 7.050371679374801 -0.42652595985267183 0.1101915679554425 0.5008400971852148
Ni 1.2291556441097553 2.233227409009762 8.764057714074264 -0.4059473643703718 1.0574091125016174 0.2063127738607479
Ni 4.320742915858608 5.47439997255433 8.446030132167229 -0.20091705676647334 0.16489770124907085 -0.3904274143579018
Ni 9.108865558945547 7.447534376374585 7.660418471540337 -0.8502895264688582 -1.3550988927144663 -0.8209522109573216
Ni 1.719729265626083 5.020739661370603 5.75450084650489 -0.960555913526294 -0.6721362457614618 0.1544590224142501
Ni 2.7104160078312542 0.3538634025570525 12.59211197047927 1.4846593521148237 3.216650343704918 -4.601801575720074
Ni 8.149769699589184 7.087411316083979 11.990113840468538 -0.2261542340667073 0.3458473137546818 -1.611747695825605
Ni 0.43133119525304553 6.6897897570986835 10.09622694506137 0.7890281085552152 -0.7437568954222417 -1.4210492314633463
Ni 8.00123403136357 1.214061499849445 11.407909010152757 -0.8590140508260496 -1.5287738259355348 0.8812600067084434
Ni 7.003144191942726 6.2628994913046245 0.2534748034753722 -1.0267193967272445 0.06783367181452189 1.629743103961761
Ni 3.668146427676068 2.447545680097849 0.5547557806519995 0.14437258471252554 0.5548803147600702 -0.18550200776298373
Ni 7.990394113608627 2.412963834509458 7.5177263271019 -0.9210236597596266 1.5828204712682934 -0.4760747173150769
Ni 2.514154977630579 7.1916863089862835 5.307879515333754 -1.080515616612094 -0.5817678831795334 -2.301947741067313
Ni 0.30160143747015383 3.1627759004325564 11.766449275254468 0.6722892263995583 0.34587405322755915 2.0539105908845854
Ni 1.9477948188712526 8.873266866626462 6.759426243317218 -0.6057483052545309 -1.2727271751847693 1.2620488695353167
Ni 2.4793223370298625 5.309562628527581 0.5729486366201496 -0.12969724208853795 1.1808318344353532 2.0225480174129036
Ni 6.430569890100233 4.386636983171003 7.325384201186409 0.012910023193448734 0.6042622076273078 -0.1325480812737717
Ni 5.437273022026047 6.630146987686096 4.535332417108172 0.1627163773270359 0.9504013415907955 0.6159118760510941
Ni 5.635781918633489 2.468649615949803 3.8459730956004288 -0.8557842310348424 -0.051122272597111953 -0.007144838574897372
Ni 7.453191197208141 7.493467018446729 2.570385077134711 -0.5169107774948323 -4.639265376993488 1.879980347119601
Ni 7.928568498718396 2.9462097629377033 2.657338494519091 -2.618767557241393 0.02393079978398459 -2.549812113117602
Ni 8.638420559344354 4.659056098781084 6.416547662300008 -0.5727818776308393 0.24755558256061883 -1.248128917020115
Ni 3.2203008452966193 5.490125748697534 12.020403375864506 -0.6704693995820001 -0.3070532237056196 -1.0688230107655141
P 2.264140216454878 4.193385493118229 7.758315840166255 0.13619390555647512 -0.3836690125881457 -0.5981015873425506
Ni 4.214145746916256 8.220930462160407 9.01568592316259 -0.9176218331669294 -0.9802292235855053 0.21920865598680958
P 0.7236104892280317 1.1937471038511072 10.885550371870673 1.9824097546311212 0.3193832060258822 -0.7565702451368261
Ni 4.717036190148996 0.980784983570408 8.08365641885861 1.2619665942341556 -0.45147800181231923 -0.4222828683056018
P 1.988470054388729 3.504674523160867 13.357616373210593 -1.2974041091061592 -0.745353293375084 -0.3169190607561058
P 6.197376972158637 7.84122681350012 12.403794640076388 -0.06748837265996119 -2.191154277861813 -2.8923121076666063
P 2.6432493880489134 7.046169469612731 10.186007843992112 0.32656249738314086 -0.36661977041534277 0.2499065992912987
Ni 0.7603705359419876 9.172056613347326 9.013524441704513 2.547575767587916 -1.8994955343343933 0.6144337488436707
Ni 3.081992040351375 0.6799656549905423 10.01641096795368 -0.8832744660353111 0.508706130196853 0.3026134427667111
Ni 3.7092489435849134 2.8049285726611983 9.105658169399033 0.5794083818084216 0.8648018611524203 -0.7340286123908842
Ni 7.938089420482592 8.044630857199982 9.762158699940102 -1.244537857234747 -0.2132956329364843 -0.4357881018808882
Ni 0.5029015896777332 2.5424019269817193 6.034448456836807 1.1293218394815194 0.2897036766835785 -0.30693778117367787
Ni 0.07802790155685249 4.8591254976874385 8.564659888478692 0.8935843326017514 0.20208228071916812 -0.47757984110569357
Ni 3.1785016765757597 0.26002241103789087 0.9501025359884651 0.7459757574504313 -1.1583110276250181 3.3339810938083034
Ni 3.3234147501789 8.400648310251784 3.0174141824184795 -0.4935530766054984 -0.20843650507197006 0.8247309612734635
Ni 0.45889728258924434 7.878344475324243 3.2843650378894567 0.9042554391623522 0.3665639774767429 -0.6094980021049503
Ni 5.064591633710863 2.8201527587797512 6.510951549291278 -0.7085106706254378 -0.6036749676652701 -0.05381036095223636
Ni 7.057009387367674 5.526230941768197 9.210841597568203 1.1218296448695324 -0.6172007700658466 -0.3389906958441646
Ni 4.468145362176679 0.22037822168219567 5.642125174704483 0.013664641971286145 0.4776274065141774 -0.4699981721036938
Ni 4.107910837436151 4.957752958460347 6.044222960224576 0.8345343205171306 1.375916600790766 0.24762011724996708
Ni 7.193766978718166 3.3109307317876033 11.74679066176984 -0.2656288951225618 -2.5614810648150983 1.3162202133713978
Ni 2.735802036301057 1.6093237279780526 7.146203240195492 0.3181974132478972 1.35470679948237 -0.7103760059689508
Ni 5.728353144293953 9.203601052675335 3.40697779054481 -0.7114013619096715 0.3262519081212575 -0.4669889529637247
Ni 2.668700437447837 3.546501557994207 2.671150797605295 0.9071250474006636 -0.6300945953093793 -0.5749056088420615
Ni 8.250282767306611 4.346212542665851 0.049518081877978244 -0.6371895544829478 -2.5048306633109054 -0.6410703775945927
Ni 7.3037638133831475 8.428012832707706 4.948741057684129 -0.30691309858332944 -1.4534353611035356 0.950528354086963
Ni 4.5287727342302455 8.65098817607309 11.409608843014073 -1.6281888721007636 -1.5944256596073896 0.20641458954593483
Ni 8.653161732846577 8.104134296050166 0.34311265636204746 0.8524230278720932 1.148813372547228 1.1641823988041304
Ni 1.4131927396356196 0.8666723240920454 2.582389798391342 0.5336622859215583 -0.016861294531712895 -0.2976414434734165
Ni 8.267485447411286 1.007044150231268 9.217408711409458 -1.7572417957370834 -0.3088879629215132 -1.2804697952446658
Ni 6.501006133746961 5.2550286464031 11.598633043803543 -0.557807258598878 3.8541787695845238 2.1134984777505474
Ni 9.216614527203761 5.837049560376508 1.214118160944822 1.9988185350064478 1.844807398762894 1.6759995638261393
P 3.705431286175075 5.5603204860360975 3.8826244644757106 0.34926122453223724 -0.7171621756528488 -0.05898779138811776
Ni 1.8598122130659236 6.436254577046269 7.884150844294778 1.3917299136739385 0.041560339940289716 0.485516322343951
P 4.575838598209933 2.279466578319193 11.183688051559491 1.4446671279926024 0.08949418750709102 -1.0742855765419819
Ni 0.8753154633131032 5.8544101484519055 12.270074454986279 0.1543276390427084 -0.8910366264792332 1.2030816469724894
P 6.684365153869131 0.04969921160910197 7.708109465310007 0.49682583381949913 -0.22027643512969158 -0.06065489467789553
P 0.12070578169126608 7.859256188275051 5.442673474624781 0.564823284905395 -0.026580578702005836 0.6323538236572012
P 8.489634096106412 5.0685764877955855 11.123380210929037 1.2639980228418877 -0.575328298201777 -1.2126505216078471
Ni 6.064158377093178 8.81432075002589 0.4883879894274348 -1.1230408915688141 -0.5902815770774995 3.3268041164438897
