# total energy = -381176.6095505342 ev
CRYSTAL
PRIMVEC
9.20740651110802 0.00000000000000 0.00000000000000
0.00000000000000 9.20740651110802 0.00000000000000
0.00000000000000 0.00000000000000 13.47597012792157
PRIMCOORD
 96 1
Ni 7.93085497591627 0.5020089884477494 7.309150621555456 -0.17812602701388677 -0.7208907894573456 1.3203134096041649
Ni 0.8519788328472625 7.388078352974926 3.774457587046106 0.4115328288779493 0.24438644080401786 -0.9758236383186419
Ni 1.8823898409499094 0.18249448307627836 2.481451340838504 0.1992682083091407 -0.8009865664686722 0.20147704303500139
Ni 7.95876262551992 8.468521488158165 2.388036675771265 0.5292086210255789 -0.5382162238408279 1.1458951704591684
Ni 0.12841385928478938 1.8636067313519389 12.35017446582802 0.1284011489849337 0.607739881763263 0.7068767345664406
Ni 5.265863190604267 3.7872825837907196 11.986269211440012 0.47995245510292817 0.5255553405437078 -0.6241283504236155
Ni 4.222286511710377 0.05624068139525557 8.18061508912928 -0.010041186286085933 0.5121755768026922 0.2219941891517467
Ni 3.986392752935869 -0.019156009567929868 1.0754831052124425 -0.5047836552139953 0.6655089702529313 0.004598675114275951
Ni 3.113751578790173 4.526020442797553 9.793001412571032 0.5378038188937576 0.1086242234683226 0.005312413351848916
Ni 6.7802237797206155 0.9419637389315381 0.7345024519406245 -0.28907889861538605 -0.2825200144509457 -0.8292933838331653
Ni 0.8017017887493625 8.0449991963506 0.23263525755552647 0.984555361764685 0.24735272252119336 2.6318133346817576
Ni 3.486117519163266 7.6360430218881294 6.201007924159209 -0.3900628319296315 -0.8651510169617229 0.3809071335722924
Ni -0.15977060342540075 0.9871536908466546 1.4638542805924724 0.7517951923456859 1.4491449612582978 -0.6421816083809005
Ni 6.855503536619146 4.8170297378727716 3.7163091309897234 -2.2861753087244043 -0.6162414914763709 -0.9716952179725652
Ni 1.1787966531859444 0.7730243999484616 8.499765901937456 1.2983667301297444 1.145523903162679 -0.04487989123182593
Ni 6.347015296100764 7.49217729273701 4.09143913484385 -0.03930368269562908 0.25788473240076876 0.15246796012615033
Ni 2.815781484275707 3.3393606643191256 12.059901763286057 -0.11956478164022635 -0.35240131282311565 -0.008633250194965776
Ni -0.0650365169829717 6.929033886251201 11.76069511405639 0.0006003525881602564 -0.1467552260120892 -0.45427433361053376
Ni 8.81193013456772 1.2490859956716818 10.181634999041034 -0.28381456489265317 -0.858334765370838 -0.2696084485956002
Ni 4.3168281633534935 6.728330835752889 0.17717628498618643 0.1697069497122561 0.24668269303736226 0.25442119933220053
Ni 3.9960789447481555 3.799169345796102 3.6027735201359925 0.45433681141735305 2.1981726181611756 -0.7176933655659704
Ni 4.066046028000595 4.362312752281912 1.2153205939473306 -0.9088546284972606 0.36844139700511386 -0.6758484045057264
Ni 2.8796440569088055 8.458328888979267 12.650836806051528 -0.18751286754542545 -0.2038892520209198 -1.118681586158854
Ni 4.118021838628311 3.6340068850272838 5.8604701471480105 -0.6224162528285152 -0.5785555468898229 1.366615120884182
P 0.5748119529532152 9.014474666399167 11.980986922235918 0.2717380933440933 0.8724087269654007 -2.0249419715663772
Ni 7.230401513825299 5.7260862053812 5.771448335800963 1.2852183656732448 0.859538555870952 -0.2506658460548264
P 4.065889502087279 5.574090336144292 11.754671628615707 -0.9761429693312738 -0.15130607860756523 -0.28855953577680626
Ni 6.968763846013574 9.058467655447746 11.180392784508435 0.02030554432657148 -1.1701990373118556 0.6042784055772239
P 3.4445552854744244 5.555426922832975 6.979542036256409 1.0004856598416962 -0.5885666512689219 -0.41091936366366644
P 6.975991660246126 8.485417079389673 8.985453841329635 0.33355718353341907 -1.8329705540289656 -0.6316737668710412
P 7.716055385812815 6.3260592385296945 2.436118674120069 0.35550412011815546 -0.20831669166465414 -0.12162474949304858
Ni 2.8402639785997277 1.6837860791713717 6.657048934828593 0.7367691512504988 -0.708466961871696 0.035828579662835064
Ni 0.3722425611237729 4.50603116292638 11.562369415959155 1.0790395462871996 -0.30052287878626954 -0.21977764111640213
Ni 8.267873682099848 5.264380798131095 13.48863807411499 -0.25550517642499865 1.0645948316167795 -1.0792398352234638
Ni 4.784739362696261 0.10185877772032577 5.374958069223144 -0.6707658477764964 1.0690343554453718 -0.6086798770790292
Ni 4.692140473859601 2.2365527383449693 13.39953431684862 -0.6029799984807745 -1.7295893241271372 0.5283051353747031
Ni 5.914782797587474 7.93079052406961 1.4521838926437336 -0.20143976203916275 -1.3367959806402203 0.544928602863997
Ni 4.574129142625687 6.6738598179187765 8.619122435285224 -2.4013527599302127 1.4815130931763583 -1.2517135490475797
Ni 1.366627749165646 2.836166682633504 9.829130355586463 -0.13297925527391938 1.3442064141716783 -0.10423946413706563
Ni 7.191113509582878 2.220016235973423 11.536683513583933 -1.558455926381 -0.7599165359012396 -1.3848732957634213
Ni 5.688704134318572 2.40511273217342 4.45640876544241 0.03148752908531997 1.0147429410916589 -0.09598468032744115
Ni 8.66637024259012 6.791843526932693 7.763776453820325 -1.8332652024512492 -1.7131283503576367 -1.5436628272322253
Ni -0.05673327765186901 0.4825003352045243 4.162538729116167 0.8312695337229297 0.19207606143607567 -0.8972923775809579
Ni 1.8949671584552166 6.338213015328383 8.313649225078903 0.1578572494625217 -0.8882300102683734 0.10915669893302492
Ni 8.442289586567668 3.857765281816436 2.0828461329495798 -0.17130334766509853 -0.7967421893700214 -0.2324711774236706
Ni 3.252009997281898 2.3128268951633935 2.011504383881956 0.4505945707661014 -0.7998912765219643 -2.1184254827385196
Ni 2.4953361100903364 5.613267851506725 4.426627408582294 -0.28664483525259665 0.0579835184933195 0.1635941519462989
Ni 0.3295984571517146 7.953569648160482 9.37579816395812 0.45688297487797447 0.9497071437372483 2.446564066359528
Ni 5.891184214303358 2.805625714723471 1.8261694158493182 -0.5097011471202705 0.6783912255322382 1.5605847997985447
Ni 6.147205364049023 6.174919658112695 12.445180170767086 1.3259366693282133 0.30643461628501417 -0.8151787988086543
Ni 5.940683232538008 7.96622983232578 6.784477601600155 1.5321198595896324 -0.6437211849538785 0.7897377330277302
Ni 6.303215662592164 5.075048894864889 1.227081214481393 -0.2800826086540467 1.0998598254666607 0.47436596215408633
Ni 3.4592042694795073 7.836727657573109 3.6695198525367796 -0.17813656853684806 1.1302757187543566 0.5943297790049442
Ni 8.719082645751088 3.9130741736571255 6.816051640538077 -0.17293496973125055 0.8850780949029531 -1.1710271896401059
Ni 8.261179897453907 2.8544433848648625 4.575078426252918 -0.10300276351648711 -0.39177878617947365 -0.3585107681549632
Ni 5.4886271874735275 5.312894623852518 10.069231899207182 0.725798254061292 -0.8770012314320897 1.0094454401381454
P 2.2882247045527184 9.280973844930365 5.147942091955677 -0.7309929108883539 -0.4273122031993931 0.03753656349287729
Ni 6.505833853676934 1.271901949389216 9.26095602209853 -1.1552946093961973 0.41840667317964714 -0.10771456716985967
P 6.319218135377101 3.886437146173338 6.414642777319456 -0.05324806069086313 -0.20519820064033048 -0.32338667075832045
Ni 3.3202276732678593 1.664505769613455 4.133848449945934 -0.13314226321434489 -0.7796528379879024 1.4979990066465232
P 3.5448976033169135 2.3058845105374766 9.421738519516488 -0.23308592818953405 -0.47180025830943906 0.04386944768944058
P 7.316674914282642 1.579687139409288 2.893182627670009 0.7817508581675118 -0.37957401658316564 0.8327641159905852
P 8.908377719390632 2.5739857778285042 8.390907653669887 0.3284985380635891 -0.8398896712917729 0.2008268110455122
Ni 7.654163198206171 6.380502634143812 9.936358892874209 -0.7383524365772187 0.6673696776107538 0.4137331789633778
Ni 7.2598283855287855 3.288664683217937 -0.09386766947518935 0.23519937498811103 -0.826397807452925 1.7208758555135397
Ni 0.4298229201888837 1.5439716089531477 6.213809902387159 0.6138444519991042 0.24150371993958408 0.09690899191392342
Ni 2.0758190401823393 1.2996530730795504 0.2256523603402811 0.09547148813644848 -0.3149261986957931 -0.40136591564727647
Ni 2.2119505477342947 1.048668374780007 10.932650014095875 0.28474530423703864 -1.3223281260413484 0.5344346453112087
Ni 4.698088458565625 0.9817673579472367 11.124615235668465 -0.0582722533783319 0.6718282276027397 -0.17305478313856645
Ni 7.82551303625432 7.760057582268061 13.550762288369611 -1.369844683565073 0.18394289080597997 -0.32369751713052
Ni 0.6944668062769511 5.856223691193802 1.1999331759276604 0.751563535950854 -0.055044747579969716 3.1937724106654803
Ni 2.3391416634138826 5.576042306357414 13.131375963636264 -0.32766010132269374 -0.3167300846737513 -0.8416493342953569
Ni 7.166069363452252 3.493382163022481 9.458689683947162 0.41408284899331266 1.1489164737839954 0.5179852415059338
Ni 4.942139979645918 5.640816412250414 5.083432238633983 -0.28911489405964397 1.2243662673828783 0.5166204999479231
Ni 7.000437324943484 0.7419236217131558 5.1414333761837145 1.1600336667430797 -1.5610568543389565 -0.13854415095620656
Ni 1.075194913383807 3.491227629862714 0.39175950103299706 -0.02764244430761691 0.42497352776388747 0.6937427682876439
Ni 2.2503454335301454 3.8251434399999615 7.558335271851861 -0.48622594681646586 0.1471833146884433 0.582126809180849
Ni 5.735836849040146 1.8077453951113092 6.944571384999521 0.15624465355976316 -1.1078819244401887 -0.8967781569487007
Ni 1.5139370484097265 3.50653033974106 5.251450836950491 0.27208364960897014 -0.3282506837188411 -0.26649201445380555
Ni 1.1562937512950429 8.221228959931556 7.092794058984836 0.9619985595100916 1.5463892250244529 -1.4234131037098323
Ni -0.03512901865153705 4.807407997907145 9.062226118848672 1.254525307464762 -0.19184954724756637 0.29250052270242527
Ni 6.421503216026048 5.666219647241002 7.885760781030476 0.986193154478424 -1.0343689428527023 0.44126249473189816
Ni 5.212395780096712 0.5165115746868488 2.927897313021591 0.6958047930229951 0.18953375463019617 0.7534700089449475
Ni 5.080573338864291 3.5079114507409104 8.317732709935127 -1.1698786778579593 0.8309378614151238 0.6425791009296353
Ni 4.608969969448589 7.676684514910404 11.006054222256608 -0.05787141839548743 0.053102279141618226 -0.07012426762091149
Ni 2.1698819066788406 6.511376712489668 10.822807494055747 0.14440215239888032 0.4469775428388044 0.06968743719380902
Ni 8.547981407682911 7.8748186989489914 5.546386170227952 -2.3888052622825056 1.2184727847165788 -0.21861113161212675
Ni 2.561344008476537 7.220199707239735 1.5177443110659818 0.20143821937726597 0.035358324894635876 1.1014875908780708
P 7.447917288895126 4.633406426739281 11.576761513318267 -0.666546153268194 -0.3560705341445868 -1.671069987735006
Ni 4.717580538476852 6.195461382383808 2.768705855475461 0.0463454200337589 -0.7554638994465247 -0.6644676734726105
P 0.7898159474846469 6.477079122660041 5.891235775780685 0.5139738063536954 -2.1896933770455704 -0.9302870873394237
Ni -0.1474667458980637 5.022428565770575 4.0888251520914665 1.9067285617477225 1.338948765317165 0.716006721892167
P 2.055461464044539 4.228722488969682 2.5140768656176444 -0.4047628571439674 0.9489658946958496 -0.28538062382819235
P 5.46796576691576 8.882201062240128 12.949653061238571 -0.24726093413833541 -0.4168807234534239 -1.0136494509171639
P 2.7614209553215816 8.10435013971752 9.334656708753897 -0.20876946293135656 0.48519647711068703 0.36553065111622207
Ni 1.1975797627839144 2.3365727969541603 3.082520055380215 -1.4438209779422233 0.9360432730969106 0.17235724285090964
