# total energy = -340872.65365179494 ev
CRYSTAL
PRIMVEC
9.30315848449453 0.00000000000000 0.00000000000000
0.00000000000000 9.30315848449453 0.00000000000000
0.00000000000000 0.00000000000000 13.61611281972451
PRIMCOORD
 96 1
Ni 5.370108775042028 6.596962820116681 7.222843981119535 -0.4233071958050581 -1.0436884204814154 0.16461230879816813
Ni 5.984414946070422 9.468754859351522 1.865353080135022 0.22095340659205814 0.45287025417415555 -0.1390491156170831
Ni 8.537834290476487 5.064593045447702 8.798541356502266 -0.19586021106885623 -0.7161057093638764 -0.20856917399509242
Ni 0.8501672912859766 4.676000109237138 2.6815163962918813 0.08300138069389576 -0.7048962138013022 0.9963747229971162
Ni 3.7687002601379858 2.9996546515230387 5.053157602852778 -0.5464213853594396 1.0204518185509779 1.2008967235060286
Ni 5.429034981840154 6.789380050177565 2.360911873706416 0.4153221207170525 0.5773103616288122 -0.5582487170116709
Ni 6.147536529587684 2.209639723343365 6.238889826126187 0.7394058175423974 1.0287150870010349 0.2453830003893322
Ni 5.3450925814708 5.367103854802717 12.24047747272213 -0.6274738698570806 -0.16077725132279408 -0.6412562683531536
Ni 8.181988472663365 3.821421260126142 1.3958831343255451 0.5714130223077708 0.36458525648381723 -0.7347801458449281
Ni 7.270613840081805 7.137727522130363 9.289062489672462 -1.1063750008773592 -0.09491150186792041 0.010465418307698105
Ni 2.996286908096938 3.561602645750067 2.7204584880247946 -0.546306199937814 -1.1340464986506986 -0.5668115189800174
Ni 3.701512848471414 3.275279332421061 12.397852495150161 -0.12534873531185511 0.8481907349583004 0.5519641695545398
Ni 1.1074014881930718 7.222693269949637 3.083681710635977 -0.49240559326461647 1.2625957431777222 1.1270566975964267
Ni 1.5546415364426935 4.624116393526189 11.332404531140359 -0.8157426417319241 0.27031113108957966 -0.027340596796481948
Ni 3.2055800679228676 6.410648462120775 13.137315919935508 -0.21929195972923524 0.6768295374720731 -0.22498772456243188
Ni 1.2391342144736943 7.115604610894818 5.777643872550613 -0.3940974070103213 0.8877214460630711 -0.4841261268646437
Ni 9.137032131880607 5.5389518011202075 4.641188619938447 -0.28007206713108534 0.27940255186788654 0.5593334654354173
Ni 5.48416549991494 1.0117743205773573 12.695841039092393 0.4460845987108898 0.457621909926528 0.3232887117278755
Ni 4.14823191983744 3.980068024339663 7.379878507941499 1.396191291879402 1.3540712227809004 0.027161648016456447
Ni 1.5240806603246253 1.4617122848313138 8.813573400225728 -0.47684013472619163 0.10340925492628641 -0.4397229181589201
Ni 8.560264205947009 9.026557123082416 0.9143125700786949 -0.4141005896051256 0.4507159268353141 0.0987792123534428
Ni 9.059508910969841 6.209904905080996 1.3227798440825718 0.03468546719732736 1.1961594659313592 -0.40879486112149604
Ni 5.449874057183981 5.061067148324796 9.331735148018266 0.3701115856186851 -0.5309037493398147 -0.13992560468476548
Ni 1.4282023074257484 2.0672641835835734 11.231754588177262 0.1307799336297554 0.25816678241756186 0.19752680013800175
P 0.20676828257221772 5.5500225598966155 7.031020292579604 1.2153062140631392 0.632403188837898 -1.9042423049907593
P 3.980449453843724 1.5880863917378092 11.151147370178785 1.3982898262796435 -0.3331188104444199 -1.5440106974899475
P 5.110020369065519 4.964398026941891 5.596508582967166 -1.431350613389354 -0.6095651078974599 0.20353264001244947
P 8.926873778301562 3.9165367540168963 12.722106646868387 -0.3036979340801415 2.468373448925136 -1.5148070793427977
P 4.396533223822597 8.624511819484718 0.2582938266756942 0.4141358137184352 -0.10795033732974958 0.45662226501742004
P 1.0323715137966578 2.825853041892065 4.359607126566026 0.6782043063324127 0.4023812442856683 -1.3615353923684292
P 1.4568932486580537 7.348099848358027 11.861962648261551 0.19260570868730054 -0.8193570985560599 -0.22621414077036525
P 7.8097039735410725 0.24680349544481875 12.107965141747844 0.18038037026570225 1.131602150875264 -0.14358402737295917
Ni 6.599967740355991 6.114352162734367 4.679163183173254 1.340098562650892 0.9595128169737606 -0.13488907070212255
Ni 4.676679239817539 0.7207519818214914 5.061435553406767 -0.25679072800564157 -0.7438731092851317 -0.22550708740101164
Ni 1.8460071617522142 5.618214712695836 8.811041080445108 -0.416154901030993 -1.1471524399050372 0.6555117498309033
Ni 5.951649221355708 8.751527844337074 6.52951212906072 0.8704446612604946 0.4503287186992244 1.4271887687021807
Ni 6.694590166839058 5.658469480112237 0.542978853768964 0.40479988102949 -0.11650516887829612 0.44715520606724923
Ni 0.7626273594722214 2.3041877245573454 1.9812127571515201 -0.49976537606379734 1.670508458804581 1.5104598581176953
Ni 6.536269013177784 8.110726277514384 13.177115762894628 0.1319919516599856 -0.6894014605998127 0.2801389158132788
Ni 5.846421194028016 0.581502303363274 10.344324425292106 -0.03048505596273459 -0.5161697855637497 1.2257685470470436
Ni 9.072403088838835 2.0031654205840335 13.37450832219385 -0.20125284283933725 -1.8363327856329794 -0.26760324524011336
Ni 7.532637303054526 7.977765534293858 2.7478404748370653 0.7918342105454428 -1.5822162620253915 1.0409671648955103
Ni 3.359770619149918 2.9042321533973077 9.597507783921149 -0.10160356917611535 1.0875984916008044 -0.0694786636171126
Ni 3.896200049239394 6.837598321386071 9.391087439481904 -1.2221391778245725 -0.2508275684436712 0.2972668337428171
Ni 5.0942329088608425 4.606179903676681 3.0957730259147147 0.13330887069919622 -0.6978027972896305 0.60237527501724
Ni 2.8988828371818163 0.5618521716930812 12.519172195969913 -0.26322054279138535 -0.14523261871997567 1.8391825963769486
Ni 3.0028270286177907 1.0112347373764903 3.4079358623542024 -1.2405583037617087 1.3337798195217159 0.5431997930983484
Ni 1.7696282293536332 0.43072694167136577 1.563837708754021 0.18839218482658524 -2.6112573649072774 -1.7133985732998878
Ni 2.9476872073843694 6.058635545665535 6.879636504312925 1.0274210507799595 -0.07551535672949575 -0.5163027115971882
Ni 8.35952064890723 2.3519036251995287 10.65998711001032 -0.34269308439641627 -0.09390568631122537 0.48641518000913647
Ni 0.26215463750948365 6.906320754227524 10.060768801657202 0.1655553894377278 0.5365771455755082 0.5968142359896947
Ni 4.332890315596202 8.11854093076832 11.637582556076211 0.5731778275176774 -0.4853242609378029 0.2256096744171469
Ni 8.08333777849107 8.566525231708793 5.237097794764869 0.8218407842098622 -0.41957909622119355 0.03322096683665891
Ni 2.844766363398315 5.965706294054156 2.278493330721579 1.2821446118439273 -0.8033108437264745 -0.9954671235811823
Ni 4.095836530401532 1.354856204742385 1.109454695303957 -1.408879943090664 0.8364132827073982 0.5288633218710183
Ni 5.841183515716152 3.0993845120970693 10.608668096028554 -0.9748013677017147 -0.993304825822541 -0.8814368986059399
P 2.050834805433038 7.962843267842296 8.790698793772425 0.3340690901728311 -1.1135527495727209 1.1768126859736314
P 8.48232234289764 0.7097807668424845 6.775092259144953 -1.2364687070733673 -1.2021714764533942 -0.6769465226659116
P 6.107681797992615 8.446077236853197 4.371003495894681 -0.36986578815646626 -0.30099056245130745 -1.0105798108529047
P 7.825900772725716 1.7426862819448277 1.665291444623235 -0.43593774008487507 -1.6239894893074356 1.186623501416466
P 3.176107661365169 2.1888657701099867 7.37748201427696 0.05985785269789691 -1.7859299077003952 0.0889236597156017
P 7.579748498385392 5.444701500982567 2.7171093509159654 -0.3645016956310755 1.3681955779974242 0.18733006211065803
P 4.501649613246661 5.209815351749999 0.9278505265252742 0.5562882508511904 -0.3334620527164515 -0.04711212299645435
P 1.5973523377389038 7.506020966197968 0.8665799237509676 -0.4237823356692637 0.023401666753391958 0.6122650233271262
Ni 7.643642591894948 4.368772598453855 6.4973092454434624 -0.6595272987481996 -0.005028306452526824 0.4501927073419924
Ni 1.8084224008642402 0.8782042204661963 6.2681780301428995 -0.8937504258659704 1.896427951152663 -0.8443263669068878
Ni 2.538785475872208 5.321425345901738 4.54484045752847 -0.31894560426783136 -0.6055606147237571 0.024626283189112426
Ni 0.7584986176697256 9.111020500335366 12.77100218802557 -0.46132995490573453 -0.43174349949786933 -0.047564380042524536
Ni 0.5322923154442075 8.681437847176182 7.621551311398764 -1.1432142811928956 -1.0157680399220634 0.08224316237163255
Ni 5.21544376272456 1.4530417409828997 8.240648609124511 -0.7153009540743939 0.1916680273643796 -0.2719692355182929
Ni 5.932968478815348 2.988183856925298 1.1498750589440734 -1.2723050000456864 -0.46946466819772703 1.497352117091144
Ni 0.0012252259923134167 0.0038198769357926264 10.420057718481374 0.06928068867369358 0.15918702401753873 0.020119139347378256
Ni 1.8071199586552509 4.665664299992945 0.2807451394110774 -0.9045549726806421 -0.8463814496637035 0.06310669865249777
Ni 3.411198480087721 8.595271991892911 6.926720720483749 0.4549081105397908 -0.6182232977930902 0.6048471335965002
Ni 7.753177981670941 6.791324410332413 6.9221184479066995 0.516494258782704 0.7149104035041947 -0.20153823529023998
Ni 9.217550969872047 0.43868765451588054 3.3525048522554854 0.3110284063032837 0.3684899908548621 -0.27494528742748137
Ni 7.500020428877982 0.2637975753245372 8.821634587183508 0.16063146977354917 -0.9049900033355318 -1.1861301067198153
Ni 8.504575498354084 2.2442195639920284 8.169191047644183 1.4148078785393248 1.758318830851346 0.36459965466152044
Ni 4.353301445642791 6.950203753511824 4.5528467558503 -0.7622310429670291 0.8737462148299016 0.9375712797056627
Ni 8.669427469377576 6.168608183897403 12.623212209939837 0.38778406319778375 0.12562384335011267 -0.8873028704684138
Ni 7.122833165154708 1.4597679246764654 4.129481403607313 -1.8628837966486302 -1.3000086366085417 -1.9023186056054848
Ni 3.4743576240650613 0.16399421979728507 9.486958349853873 -0.1910003118733936 -0.11270353574401881 0.41557614570938756
Ni 3.53127434859789 8.175048316321181 2.5630155525387255 -0.281760767687418 0.982076046986257 -0.7480907469109052
Ni 6.736035738560821 3.255724092968952 12.71015115770573 1.417269966926572 0.5625954240161407 -0.10881294244036098
Ni 7.536749299171477 4.7892195498328425 10.798721393480124 0.011492831130947949 0.5814542085938568 1.4897884458112731
Ni 8.562738846144088 2.394660942288917 5.559295948424618 2.1008496786382853 0.41067279487049924 0.41041208500994475
Ni 1.535625880191451 3.7089925880144667 7.13557849248553 -0.5532386653915892 -0.12898710339539077 0.0942584416649538
Ni 7.395192437371621 3.853489247943183 4.10947868222483 -0.3333926329310968 -0.4576597051429989 -0.43209882595475907
P 4.873124737567654 2.2036205797061075 3.409080150866386 1.1154134569305436 0.3238489551067197 -1.6909222465742426
P 2.5712255900346754 8.734642611413392 4.853190859559073 0.3341662778723277 -1.2982844548285835 -1.009346452666436
P 3.6130956287983187 5.04448891963609 10.819240440166885 0.9280152605861115 0.22712379706882818 -0.4766048787869341
P 0.6950799155664505 3.515272915744594 9.444898769662158 0.7842512559918623 -0.712880003337727 0.6946441970559908
P 6.688087258952747 3.226512174853051 8.398173412406575 -1.9989843711603508 1.0611678082131015 0.31517508148180556
P 6.814247393210622 6.855572023870123 11.378304455216867 0.21765108169170258 -0.6798752662769324 0.5097266010415673
P 5.205973147233481 8.318503022482705 8.775952357019076 2.44876287378306 1.2959774039619616 -1.055004616825183
P 2.1807813252556185 2.44544688528086 0.3527971727282238 0.6991091748058799 -0.512805239966891 -0.18562593493535773
