# total energy = -381166.60907525755 ev
CRYSTAL
PRIMVEC
9.19614553011083 0.00000000000000 0.00000000000000
0.00000000000000 9.19614553011083 0.00000000000000
0.00000000000000 0.00000000000000 13.45948854395105
PRIMCOORD
 96 1
Ni 0.707633260881507 8.933576906451142 8.889386669702937 1.1386166345198843 -1.1568660676483755 -0.9322856058266913
Ni 6.7100409475415335 3.3428263851752327 2.2678834497415115 -0.8256884400907263 0.3889120061546399 -0.3956732361378734
Ni 4.8158097537280575 7.988222371358917 6.382557019204008 1.0000897099548585 -0.6046355318063265 -0.18950290139226073
Ni 8.273882231119904 5.865687675680643 6.765034815724151 1.624404722467983 0.19759544859240807 -0.13318160109271257
Ni 4.955830261236051 3.356657387624466 7.400982285187931 -0.11563716445104602 0.4515721041880223 1.8073186577888165
Ni 6.5885506727032235 6.355538744472727 10.323508048062802 1.4933082860390734 1.850120069225059 -0.5104747920615015
Ni 1.6501471067073958 0.10821563917642922 5.835212569951579 -1.843436486557296 1.516826937986304 1.853499527220253
Ni 0.3241356118536378 3.725956188393282 7.002029594460474 -3.1963340007450696 0.43022757707397513 -0.650612255646757
Ni 3.666411147928665 3.9289794869782004 0.6715181592733768 -0.5443477906598625 -1.5374993787339908 -1.662862255113233
Ni 7.980782689855307 8.11628789004776 7.259334979586009 0.04618961118218497 1.2693443747554656 -1.812688149630846
Ni 2.253938415091234 3.8507938601009535 7.937773238156625 4.310385030110448 1.0953051162164427 2.7677483301498915
Ni 2.8581067654301378 7.296755014204476 9.837283938955544 -0.0824935878195418 0.485024470309197 -0.7940474161466776
Ni 3.8815917505281354 1.2950379580523874 7.013254409347133 -2.1781694355663714 0.33899609516080326 0.9793470780908682
Ni 2.5090670726371593 8.705209031569623 13.220178848579947 0.08942116817731051 -0.2787109251175007 1.5001682463837
Ni 4.767392049010497 7.696051640764116 11.403942001822612 0.20572501967807796 0.4117935387385038 -0.7820969286530208
Ni 2.5155595511804827 2.046335436174056 12.762313812180762 -0.3498559206934426 0.7662008262480546 0.2345997937308992
Ni 8.356040592743208 8.270332519055142 11.615605998480202 0.23477257186333764 -0.3555239176124974 -1.0596143476830526
Ni 8.564121771213152 1.1723062036059353 9.996765329032064 0.4878830228039146 1.681929299047013 0.48996227393044645
Ni 6.343758482413241 6.1342978821564715 7.993158862126703 -0.7651991244564177 0.3828267191925084 -0.6493578144143655
Ni 6.1318057267949415 0.49305040772299424 7.4559779925996 -1.247363242498684 0.5624229029940185 1.641889509516308
Ni 7.576354614248679 2.6741470759391417 11.398032558887852 -4.694911248492566 -0.93966544323053 1.3172856785214346
Ni 6.360431093743333 4.081690674924984 9.929899237337505 -1.8776735533632953 -0.8999740381781791 1.0009312320195471
Ni 3.2874104139258455 0.9235964554413695 2.2558236248665615 -0.5392307811482714 -1.2677405206034553 -1.3193564450075344
Ni 2.2258533875114748 4.54419240775695 5.714709961112636 4.059550262577925 1.3849368020115052 -0.2579045298951107
P 5.245407678871622 7.973940757792655 3.9860139797907954 0.9755099637329651 0.2956354687869812 0.5853728269219725
Ni 8.200634934239492 0.2640047769368825 2.5706950399998822 0.773497617019784 0.6680985853569783 0.654219256271725
P 2.055733896614958 2.5937083934767475 6.317951340010792 0.24557866133990605 -3.4980856097321174 -0.9667157624801028
Ni 8.999936290542674 2.675269005659093 2.5763745793035033 0.4755227014663488 0.13227760122120444 -1.1571666296079295
P 2.060681422757037 6.745050672491154 0.8834718345062009 0.5057156801099613 -0.2609726272974731 -0.050596739110945116
P 7.870668046685683 8.775927388507524 13.793821514390935 -0.5302180361266998 0.9803791188998083 0.09535424583229385
P 7.114754103650772 2.5230176249745835 8.635849864899008 -0.16801850626623965 -0.7169752564530234 -0.5065698005801405
Ni 2.5278088166474895 4.447219056143146 11.04998421055234 0.45177599266871227 -1.0931955260726076 -0.6871700001661327
Ni 6.487337898131243 0.38886268016409437 12.145464897162837 -1.2407372525417342 -0.8675760814634477 -1.6031159882925359
Ni 0.7160311807196983 3.4610796168871256 4.627628113954853 -3.210206387851787 0.8552725815057464 -0.2900662022293198
Ni 8.818192872055844 7.828172659506224 4.7583467205470225 -1.6662450555425368 -0.1676528953967048 0.00028899199532853454
Ni 5.635673690800179 1.3395656933311015 9.984221786917201 0.9465598563575182 0.4079106587443297 -0.48775446764585034
Ni 3.962600593995751 7.785134699757281 2.3426646636488733 -0.7901784201095746 -0.5127800431559104 0.4720254869463677
Ni 2.9752748520030616 6.010572944023506 7.551486398275796 0.32610818345454157 0.1368978736020352 1.3039928180672704
Ni 1.0399184966517077 0.7165434060098727 1.3708491402272458 -0.06591125798082842 0.37837871072348384 -0.4425207926190314
Ni 3.934717881611393 0.6912282573780584 11.51137504903865 -0.08110647766402805 -0.7203472582490498 0.8665162727403658
Ni 4.928738417342807 2.80258963658305 11.80395776694045 0.7897554736395431 0.6782747545590317 1.5429166930948202
Ni 1.1461891511087134 5.492811574411327 9.05981055300708 0.262449983173948 -0.0477178749012533 1.0244938498308356
Ni 4.7679989945967 8.392972312049139 13.771074849126189 1.2918137595025752 0.36170022162653837 -1.1545176220208568
Ni 3.098273294661633 8.409543765781532 7.726889994230377 -1.056589701924116 -0.26366200120417815 0.6366077138375489
Ni 0.11236402029667457 2.048386176563803 12.583746742261729 1.2601452247547007 -1.1514212424837205 0.7326728696939382
Ni 2.766237274427586 6.531111549499826 11.970693996001145 -0.855903787331842 0.1485421427091829 1.4267367687664267
Ni 2.1314365642759197 6.210809810599038 3.0594628028820465 1.2149673426664818 -0.4382458193927613 0.6088665391685385
Ni 0.016416038877743257 3.7231421679481587 10.741156502074361 3.6636625964364002 0.806250643081089 -1.4226731402200143
Ni 8.229363691986435 3.7321819787244856 0.45328167760882654 0.5198037827719113 -0.10751119290980195 -0.26520697709379487
Ni 3.0591436966420273 3.553031873196887 3.3913737555407555 0.15845914471257871 0.8230011230665504 -1.4332966813721317
Ni 4.568589781093263 1.3025420125727158 0.3644239241741763 0.46531053682003737 2.1945933854503497 -0.4021213057560623
Ni 7.799057663658969 5.080373656295867 12.03889260914178 0.4537004633849348 0.23594345224298718 -0.37499051097754127
Ni 6.960212882800134 3.980864138453315 6.3418015427049985 1.3332910528107553 -0.4844022633441657 1.0266445776252513
Ni 5.8535855485375645 4.266910236314613 4.405721450722823 -2.275723260153145 -1.739987893752642 -1.1664274860845654
Ni 6.7709470175024835 6.111169576864038 3.295946275942719 0.8076338965818608 -0.35379099408179066 -1.3175649003247503
Ni 9.472949217390248 7.4698540561605355 2.3161494180625213 -1.1303058006613436 -0.12618742916306655 0.3357765597822411
P 1.1857417718096117 7.3676297056115505 6.8095450783269 -2.6564558158207863 -0.1215501875013713 2.2965031730129737
Ni 2.720872689931531 7.049351118664771 5.575740573006203 2.302803147089073 0.505589181834426 -3.314832288793994
P 1.5754927996044215 1.6354056858788584 10.65424833143176 0.046536195888326304 0.20722320149015924 0.07831323118960705
Ni 1.3517046050551627 4.532936325976457 13.252252244352679 0.3096703496134925 0.023748508569849426 -1.1466541601123799
P 1.7033192185168808 2.898247939426748 1.334677942133118 -0.15204552787675102 -0.1697102921463658 -0.012067729797811474
P 6.010609728604488 4.123900981601833 0.1771389085624077 -0.6838267947255126 -0.2044222417062544 -0.27705513468163256
P 0.6633777315020597 5.802491765553563 11.275982238804092 0.1252209514847392 0.49285373654562853 -0.18193151680290603
Ni 1.7486746068676902 1.8102519954315628 3.7244691717070846 -0.6533911039434747 -2.78793586084136 0.5122771353775629
Ni 6.649815392328749 6.968139960001754 12.715326108048876 -0.4656203547509723 2.0202080564258176 -0.22200807310881768
Ni 3.330439177529543 0.923292982648268 9.345313158684371 -1.0472499125804284 -0.24700870891821333 -0.17648026388034768
Ni 4.831388023773936 5.286477663538028 6.078291518382324 -1.024083244655978 1.4884746120958559 1.700890156420232
Ni 4.1330235576853696 3.1565860516633526 9.679041269643589 -1.093104251910382 0.47397644002515144 -0.6820187949824964
Ni 4.338493030905591 6.264864752352091 0.38639075632210373 -0.6018088609908088 -0.5567225101751315 -0.9376795231487528
Ni 8.111138048710279 1.5031099403770858 6.938796899752412 1.0347528085546824 0.5938803501723514 -0.056956877001018036
Ni 4.506350270071715 5.563410381461035 9.428035244011221 -1.0809323924345384 -0.0010029873432176276 -0.26013470477721007
Ni 1.563289514863642 8.564296497972817 3.7016691687999144 1.5213253400772897 0.5746793517638683 -0.8390517487715098
Ni 6.016044650444579 1.007492888516072 2.5527800294471223 0.2975697096952165 -1.0123163339280372 -0.9753502982266492
Ni 8.62478874139772 6.964728190115675 9.003792234244113 -0.04530180926059295 -0.7336527171087042 1.5471626128553677
Ni 8.137990792827141 4.537644752342153 8.782383082469865 0.919224658877675 0.15320175296838132 -1.042443749441037
Ni 7.029606994822681 1.7473043812261106 0.26998135173193344 0.3221543410131162 0.5563820961165773 1.7151073284608784
Ni 0.7196112400637716 5.939633879599714 5.059609679946051 -1.5234303022354345 -0.405877687474701 -1.0140011778296278
Ni 1.167101185396982 1.9964371520719697 8.37839642183502 -0.5732284782499547 -1.3640861838147411 0.6541691197600799
Ni 6.408407383489111 0.22920840255695707 5.200799937129272 1.2967685324046891 -1.8021057461293093 -1.1341213177526919
Ni 6.587704627340638 7.836237678886528 1.8805464100736455 -1.0297005908427554 1.3630955377666976 -0.25221673548171397
Ni 5.208292036660781 5.365978339185381 11.72816681628513 -1.4448723020248728 -2.0238590229148437 1.3909133313099142
Ni 6.5842192882925925 6.771259686440832 5.301746023489134 0.1303688142342658 0.7444521217170534 2.4963593926151004
Ni 7.157801259544962 8.790043471459368 9.456407191322642 -0.4070002311149184 -1.593956947501087 0.41660355853263736
Ni 5.25877887405858 2.080223231403726 5.535227874741674 0.8622610970084377 1.7777563707506674 -1.3780932967271105
Ni 7.186861078520743 5.833749463243019 1.0507469576782846 0.2876668487592078 -1.9655769993444987 0.32003266668442304
Ni -0.011897053104104226 7.127159703586953 13.58668018196508 0.5419759479935762 -1.2034441725182305 -1.9296946836255926
Ni 1.4242989756231448 8.753645128577675 11.279320439528208 0.1918857998021405 0.29283733721655375 -1.0018583718195069
Ni 4.780680478890246 5.040398012913676 2.173841829231972 1.1542597403737798 0.48028746984484383 2.252696203130353
P 3.8974459049313785 5.320429831784417 4.18576620951189 -0.8015663502315421 1.0046349061233795 0.02586941156759416
Ni 3.6348683697365978 0.37925822606969345 4.863720750842592 1.3718794546069148 -0.6655899600025118 -1.7450709647025042
P 7.8190224949869505 4.369833493902258 3.9507504412323984 3.452582483093996 0.09191873778818364 -0.16014398861416934
Ni 0.4063482307338893 5.21624670229814 1.7396522687673295 -0.6275916263818676 -0.7396073920302424 1.1265237079110924
P 5.2282568679887635 8.064605553768047 8.85719096519844 -1.0943885179394444 -0.6523708902090766 -0.15812850084603736
P 4.522351562798886 1.9716351483448542 3.4573652938224684 0.057071291091695266 1.8385902142085881 2.3484721098810977
P 8.706799964697094 0.6671361960638957 4.943723536020349 1.1296838508066287 0.1624176151396945 0.06359572247377436
Ni 7.5045695044623 2.2404476700160845 4.412451189813481 -0.6301858694716049 0.6785259513378895 -0.07459747290091669
