# total energy = -381167.74029547884 ev
CRYSTAL
PRIMVEC
9.26163766354103 0.00000000000000 0.00000000000000

0.00000000000000 9.26163766354103 0.00000000000000

0.00000000000000 0.00000000000000 13.55534290127079

PRIMCOORD
 96 1
Ni 5.2111623886267004 2.548209978934378 4.582194377532513 -1.4607002701960652 -0.1624196720222235 -2.325813234831001
Ni 2.1840145955543893 2.7752590297077275 6.079001931151476 1.188461068845837 -1.2773340778291613 -0.7051947188783275
Ni 4.710895022625377 0.9058307807981699 8.10168991011966 -0.049193945226147534 0.22148948160118628 -1.7448670762218146
Ni 7.297086978195345 3.8990291143348994 2.1622534513693163 -0.06785141242633476 1.2607664032784673 2.8356239109459422
Ni 0.9730832375505909 8.356192307672629 7.328113464839878 0.31269988046843566 -1.6441348539070586 -0.6276463908792029
Ni 3.89125860021706 8.299788933444209 13.378703469698985 0.180397853767199 0.18004946928884477 0.3174934452023371
Ni 4.9191614719315275 6.086702056822002 12.046416871544945 -0.49077577097067737 0.3490478229698505 -0.014381208422336521
Ni 1.5529636421180057 2.011414713432744 1.6313180241064869 1.092462504561325 -0.2650465402565306 -0.4488724458686721
Ni 2.8724043486374304 4.5504001011140005 8.026362231365637 1.6420903126732043 0.39109255874572646 -0.7989996179456303
Ni 6.591665073190127 8.386589002946465 12.078637183302456 -2.7830484508420716 1.8096419066053544 -0.8266212363176408
Ni 6.110291448309652 6.532585085636254 1.9984104477916724 3.1559869643865905 0.041823363793689255 0.9591052971226967
Ni 4.06079288022547 0.32888816774229074 5.2236730089728 -0.4687835829703023 -0.26495680875620176 1.0899582500822325
Ni 3.949384639077086 1.6827377110323918 1.5403474391009366 0.008500067051211167 0.698217773339862 -2.0565084335187485
Ni 0.879409180469954 0.18249872060692215 13.435920941890407 0.05733920004110125 0.5087930334837045 1.2959259818987356
Ni 7.218918755126731 6.354993180738069 11.238626083888375 0.22714899387980877 -0.9421951516309193 -0.17629360179083833
Ni 0.9296183713348319 4.465563498826263 6.550308155738635 -0.9443528214038703 0.15743764542659983 1.2589954274209736
Ni 1.7982118111768797 6.196665482472909 3.1759758294415623 0.7808797684164681 -0.08229561287612279 -0.07532123844081867
Ni 5.067773712139938 5.7594883931947365 9.61358467172189 0.13727068356042166 1.3787777243886448 0.41465157701258915
Ni 8.935174333373023 7.621068330228898 0.9269074899495021 -1.2377686568317134 -0.0329995948544722 -0.08076529227452542
Ni 0.275297552915049 2.1353446888925927 12.141385705590627 0.3503308034473321 -0.0744455207040847 0.8556968135273586
Ni 2.049146625847617 6.351640467852899 6.489322123124629 0.8763936797550778 1.2620663530368137 -0.7719462133722641
Ni 2.1112366456879 3.816628322789703 12.803848429804205 -1.6560850842903996 0.33059167314719196 0.06408397496410254
Ni 7.9551911756582 0.17415861576411565 7.5046717709590975 0.9077020029500561 0.3648791335751523 0.7717469528772645
Ni 0.07533045724536468 1.9627448067709468 3.427495979621534 0.7402565955784671 1.337744974817051 0.5075290791696162
P 4.8574326559656145 0.5367072799424929 2.968688335251329 0.9325460585769295 0.5180276647080949 1.4145890776602994
Ni 8.334112563147086 5.253099084604744 0.695249848204714 -0.8078367566212861 1.1722150393006199 -3.018196660877273
P 7.984837678269887 8.125179275919022 3.801595758469482 -0.0027611076849049223 -0.8152405052845251 -0.5080551268764153
Ni 0.27244218997997155 6.882147081285388 10.422608183370215 1.4017834412551986 -1.0060994064840478 0.8702009206808047
P 3.1317579920723113 4.34087406906646 1.2228788707713947 0.06873098681781066 0.1827316441066982 -1.8826272978241447
P 2.9306693120645213 1.0582254738858712 12.9306587746212 0.2408115789685659 0.691821382895215 -0.20019689077099714
P 3.8361148087300307 6.997917553839614 5.398984698643557 0.23137691591822732 0.35256766319765087 -0.11000027788024282
Ni 6.704434775095748 1.8213288591365078 1.71860062493835 -1.3223677210300322 -0.744153616640028 -0.34827212114609046
Ni 8.624112966076522 8.702697962846331 11.484276208027959 2.421914900352281 1.3392053614126616 -0.032277629086783124
Ni 5.894939846083181 8.804492623953811 1.279334110171518 0.05750940707037837 -0.056971275178721234 -0.5295894014037654
Ni 9.055038449836767 2.053360671048591 9.897976226797018 -0.1333248115387962 -1.4965707588404291 -0.5606017906248797
Ni 8.882623800471208 2.3660243016852425 5.845524377578135 1.6066299149830652 0.09729260050558729 1.6554137692549875
Ni 5.824097578517799 4.75953714437376 0.37307544170678797 2.1499958013456326 0.2544723642851101 -0.4811624162506294
Ni 3.2745631853774007 4.71594261522874 5.375696310384548 -0.22772337832604006 0.007174149150936031 -0.7068281407166923
Ni 5.763572775466449 9.16211224449272 9.767777048707412 0.4036477697029177 -1.7631671600825827 1.271426454095475
Ni 2.283466062297372 2.1658617854578868 10.864878247276993 -2.0015187075464302 -1.2606545602909514 1.2937541710583977
Ni 7.363187287204906 1.5888895351610335 11.33816368386294 -1.401902483331566 -0.41194266272185837 -0.6542128285138218
Ni 1.8877718487448296 6.95160010318012 0.8503276377643322 0.20616750653213528 -0.3163806717541326 -0.6075190240017085
Ni 7.79588174378578 7.942298975834561 9.402555475858705 -0.8200258424883103 0.09378098780790302 -0.4438618800279582
Ni 2.0240661106734694 8.20800610280322 4.428774421139872 0.9990070184136407 1.013963639723473 1.255939157093153
Ni 4.623205835893903 3.0926924038136128 6.597155372080538 -2.120286704316974 0.05124054334253111 2.877375026740799
Ni 4.3386790609068315 6.082432441794203 3.4822054002955403 0.7554317606570087 -3.7319418404287723 2.369254079623455
Ni 6.7698034147187665 3.135647879950133 6.229439640171121 -0.04333208712873182 0.7208964458843005 0.9984460037038483
Ni 6.72286543432638 2.0165456607763472 9.14347227224771 -0.7838617338629273 0.9172891324178589 -1.194782640188491
Ni 4.188297847877792 6.281214973988712 1.111634560612148 -2.049494978315393 -0.6212728832526914 -1.5778461579821534
Ni 3.7312638071471182 7.879847752119909 2.7667540677120037 -1.1700774241323266 3.887979263073736 -1.8825391089857129
Ni 7.980225382643327 4.979482518951182 6.379754169407967 0.22213637115656581 1.895795973995619 0.5374374366932744
Ni 6.77107225909796 6.416360792829614 7.95758253053928 0.7882349232299587 -1.5809304533344322 0.9449521455507662
Ni 5.226666370311163 1.0364328401322638 12.602931090095796 -0.10361879983393123 0.34769336582448507 0.8852467592703335
Ni 1.5651519574685149 8.914919131494935 2.2189152252924766 0.2353955501593172 0.025280628943659685 -0.06704125782021357
Ni 9.15154471575797 0.1934811707153063 5.1692488467431685 0.06345611157211652 -1.0189304968104451 0.03240901245832483
Ni 0.25682799480563784 6.951479701888663 5.031309717940479 -1.1646899345681685 -1.2032161156678245 -0.024259643878313062
P 8.249905752230044 3.1627752170790395 8.037206683070735 1.0933994145532975 0.5558992429428878 -0.3188445599135928
Ni 0.9064392704019147 4.4292208320820405 1.5669301919269478 2.234006082920017 0.37308969441040263 0.772875667165069
P 6.732747601863609 6.890621479876357 13.373701259120862 0.11902587841762081 -2.0823364503254465 2.3316545241031266
Ni 8.79240618661915 5.870026040389512 2.891544449323875 -1.0408712627475945 1.0393468556832681 0.5898077227648745
P 6.700600457044751 2.7302196850652307 13.106878104796783 -0.15107262244052044 0.20304490174275355 0.5261160981431843
P 7.936630853498307 3.7592802615052414 4.528894578132328 -1.0922370188140804 0.5591576019791854 -2.2965157714184645
P 0.4183704075526841 5.312345781639095 12.350950636516947 0.4455207557876198 0.446109024190922 0.10367973497885369
Ni 3.7709777100521205 7.76089127616099 7.576270714333094 1.3855908906557364 0.44641652812901184 -1.688347286758215
Ni 0.7501380184883436 4.163106193049993 4.240680745135348 -0.18563724778926738 0.8317372173879675 0.33903980391454513
Ni 2.3633106418085714 6.120683005926119 11.345470189926782 -0.22281694216335823 -0.42557593723457676 1.0035046491736783
Ni 4.381421519373851 1.659620663072764 10.471719870155278 1.3030425383388593 0.19651070016866157 -0.0803109783459262
Ni 7.815794265065107 0.6694348851526822 13.348244721451858 -0.09044600989739907 0.09341820515184555 1.8026276800710503
Ni 1.0210029515502363 1.2514325001221691 7.730652954893607 -1.109182645529483 2.938871957704016 2.5853511865644765
Ni 5.167039946126834 5.462273174415721 6.520716296789994 0.3749884540950123 0.23910308091789143 0.011174014338948499
Ni 4.353534727944989 3.450525042022021 12.949500650570348 -0.4214768274645386 -1.2013029578055119 -0.4203010619888827
Ni 8.2997704101686 5.015871493884427 9.573541980674833 -0.7971733633701691 -0.9263083051973339 -0.9057109406619563
Ni 6.2376667530327135 1.0217253592989746 6.363677818507197 -1.1427766794348446 -1.8832348495011564 -0.34353794889521483
Ni 7.3776910120065 7.5720372196927315 6.000787399893841 0.17072536367444144 1.2630654837252893 0.4408125516786731
Ni 5.651071661057154 8.155779727224555 4.206900773571586 1.176261955676484 0.05840646496335103 -0.11625834297481268
Ni 2.1257403704894937 8.502989266871388 11.861345267955977 0.11203684869429738 -0.4706273210472604 -2.0514593011306155
Ni 2.7264872450300826 3.8899341860110397 3.199738413556153 -0.019796465900636873 -0.4061299126948232 0.45922782096106723
Ni 7.17100830276489 1.4902530925448323 4.335229100824715 0.42174730751710593 -0.7342998637743999 -1.7568031655377678
Ni 2.916665715704362 9.225258091042697 9.206951537758643 -1.4848192747314557 -0.37408985354014285 1.423109713536801
Ni 3.315416269732336 4.125429850461946 10.610146161106476 1.300841159812166 0.25438906054268445 -0.735947426680152
Ni 8.8781226444983 2.7746755465260544 0.8707967834757 -1.8228504348758285 -1.2798535018169055 -1.313703103376499
Ni 2.292227571660276 6.635926440257059 8.780798575958974 1.07432491442035 0.15933203423583528 2.906728540202252
Ni 1.0707749931107493 3.681130561712236 9.144488273914845 -0.034369992839437584 1.1958966991882758 -0.41342670346655247
Ni 4.904778148421391 3.9784569201449034 2.4429977734770967 1.0389442209282107 -0.3523010397998255 0.13438179204840084
Ni 8.044973492533455 4.0451407123361385 11.68703753982321 0.7171377501728166 -0.465541678994237 1.0630933073705886
Ni 2.979820823892144 2.3275236733326086 8.638847305659443 0.32624573747367036 0.3840431080981128 -0.5448021045884617
Ni 8.605839754688564 0.35908666396711564 2.1386131208737433 -1.1037596747416991 -1.0254793536725564 -0.2601987252459261
Ni 5.872471112769857 3.53212007107824 11.035512809856558 -0.9280954790047435 0.842027286460066 -0.5430738090434454
P 1.933987421388477 0.6886268510108319 6.031314684260719 1.0806948225024355 -1.4130523293007988 -2.4932645557398607
Ni 6.808804171512834 6.030650624830148 4.4389140622080605 0.04873346064996124 -1.5540711670497427 -1.016302829379611
P 3.810802752610775 7.429130148371794 10.395050180083407 -0.1490280812066659 0.7983882096138767 0.23319648562546935
Ni 2.905292424480635 1.662667741910391 3.6589128187834095 -0.7286048702721516 -0.8661573467390503 0.5611134401539756
P 5.8959493646038545 8.210812379057932 7.567758343027126 0.3883700176082408 2.2063770083488388 0.3532999133779851
P 0.45669043396813314 9.025493825240929 9.42370164729357 0.10063811993905247 0.17092565261070564 0.1411947012051762
P 5.118314469638212 3.890054587302496 8.825897195083417 -0.8850585545189272 -2.125118064267346 -0.7840404255326368
Ni 0.2948544273026894 6.282391201989864 8.101459295338332 -2.6335161763054775 -0.7586240423420612 -0.9932945414098958
