# total energy = -340853.748922045 ev
CRYSTAL
PRIMVEC
9.40601229417828 0.00000000000000 0.00000000000000
0.00000000000000 9.40601229417828 0.00000000000000
0.00000000000000 0.00000000000000 13.76664976681858
PRIMCOORD
 96 1
Ni 7.392288425616138 7.576806166232202 7.530453338289297 -2.704542644025684 0.7598183197604784 0.30301299219797495
Ni 7.4831128790692 3.9198897271530053 2.119004291670192 1.114954515016254 -1.3701910111608984 -2.4824643798005637
Ni 8.814543306858592 4.618878709076928 13.753970445064793 1.116873586415838 2.9987187546583196 -0.8288532109719531
Ni 6.079632398105567 8.533435227333095 5.338748097403134 0.43372890535901437 0.40789806033883946 -0.8266261214136474
Ni 0.6243268791718131 5.660933172648897 3.234997535658878 -0.7180134679095506 0.26710162301334645 0.02471498624817679
Ni 6.14001899619677 1.4166300859685395 6.542187155275669 -0.4434067947684105 0.1395039437663146 -2.2397648397806655
Ni 6.491982565351712 0.13860511404242246 2.7896736521715297 0.17858188360438276 -1.131183832390923 1.1537912853777936
Ni 1.160664276956715 0.8371031021313979 13.044231331838931 1.9605615484077785 2.4388805816723416 1.3357212595188028
Ni 7.984951846041157 7.506768999661002 1.7356989493844548 -0.8393790502039414 -1.5077054353010098 2.3108969798408006
Ni 3.5878669037851894 5.016818865688227 11.197930847825939 0.8654382091848386 -0.29069972204826067 -0.8215993576230173
Ni 0.6358473628699604 1.8483190142233326 10.855306508148374 0.44094367793989864 0.34534054932159236 -0.21838950251962388
Ni 5.376137936355213 0.3992588795166543 9.483212008572702 0.5273070331274918 1.4829066310897752 -1.4975655186535304
Ni 8.225454171055794 2.54108121609486 9.073791814115562 -0.7737534417843319 0.4711466838858402 0.5556920120280882
Ni 7.778320570828142 1.2524011135896596 1.2938656370110695 -1.0657009201967647 0.09313486958347186 -2.2905793513293715
Ni 8.255892026417653 4.066952727333062 4.252008491844893 0.49863074823872183 0.32573434505489063 2.315461459283032
Ni 6.877008267262197 3.5974704422043664 13.545832326703147 -1.972468070037377 -1.4988855230165348 -0.2725947849174338
Ni 1.8946906541905648 4.605729104072021 12.801951270525349 0.655035324415117 -1.0777357398741116 0.8326188486619724
Ni 7.1374325260396345 1.5406953864082544 11.095245413034402 1.1623923967832432 -1.135497372164612 0.5628353079410887
Ni 7.396351822870873 3.727677868587003 7.056220076416697 -2.335926926226235 0.5286990283790121 0.12018184639893496
Ni 8.671910538407657 4.8920293023119035 9.97615382863898 0.1349263516979612 -0.6395984210347565 1.3050809089251265
Ni 1.218793432128621 6.1925703861555785 9.557165838608883 1.419105220363098 0.6136935282435365 0.7261764633363171
Ni 4.399455257321229 5.567484441802152 6.782277496957535 -1.264778609761654 -0.4566860283758199 -2.297425941937559
Ni 5.330979671957103 7.2768296263062435 1.9679841821728505 -0.7678010808556389 -0.7867809643922514 2.516078725420899
Ni 3.0310121716675233 7.331431526916748 11.379333317213373 -1.948249820919961 0.10006553526503412 0.907329964322618
P 5.92436735531873 3.521055999386152 9.326891611221095 0.29063081648353817 -0.24376757627309628 -0.4824749644144659
P 6.638293084558669 5.767324576232946 6.693675684178764 -0.13757073129934372 -0.6352841099301187 -1.9703276266556065
P 2.7600908033153546 8.605005573886983 0.07102761965204094 -0.24995930690610504 0.7368174879899311 -0.10402477702309826
P 0.5484974903101835 7.795307828795854 4.506141069086004 0.30226017319235043 -0.49295580934113165 0.6461498490000291
P 4.931308809107676 6.770579239629492 11.892940146003383 2.3328176911732923 0.062314027547873324 0.02204438139454913
P 7.228727280100883 0.8329766845951657 8.092215186952785 0.7481959050302018 -1.3242664807146418 2.5456081023385835
P 1.3274234666076405 1.2181538233014868 2.1112123511937506 -1.441165542597247 -0.5510038625237995 -0.6474863084232656
P 8.484871986531711 7.375639784086319 9.461735260999237 -0.9738215202869487 -1.5939734025613195 0.8916755456148128
Ni 4.833796681006196 1.2514134823124672 4.321847191559437 -1.4295456989701316 -1.523215615121467 1.6540235737756805
Ni 0.16731978797588434 3.4867522730249974 7.137979955947564 0.9269551947527133 1.264300384573655 -1.6472613153511824
Ni 2.4108831957243875 7.081024671093693 7.38262751052276 -0.8629002732543333 1.0626989001456473 0.11291050954850232
Ni 9.110851502040694 8.763177074432415 6.936656493398547 2.422667462247589 -1.5847979067096385 -0.21243842714251157
Ni 7.5623303135122075 6.673471570051053 4.68260161968261 2.665346690552513 2.5626496312019027 3.720188813657903
Ni 4.923802811401013 2.2801772506970726 11.26932436135115 -0.46938059312435293 0.23912493529476236 -0.5213119918863215
Ni 9.126070429721622 9.290835544793836 3.2310601789671374 -0.5078903191637769 -0.7849487962795191 0.11547415651062047
Ni 5.454207837314246 5.921959416204812 4.446062988193772 0.23720406412296566 -0.7416701880965421 0.28180833309590175
Ni 1.5536662771820502 3.331468418213833 3.098996946384595 0.6815151158732006 0.5584402641971866 -4.317889823127925
Ni 2.73260643577291 3.1433669869633842 0.7133228038602443 0.2007512206125704 1.0755680427988314 1.1755749569117881
Ni 3.3073890270746618 5.818671996634797 1.4003708533423005 -0.010293154395891952 -0.6326014208916331 0.6108041225108835
Ni 2.084231205302066 4.784631455426333 7.595460169555328 2.0267615412736193 -0.6755879517554881 -2.4383033690126332
Ni 4.10672134676135 1.838329829305442 7.663040485749359 -0.09604150170730556 -0.13277613812417777 -1.2239566906492858
Ni 3.757523145182546 3.9408369162416523 3.6269893301778278 1.3575319276359912 -0.8478642048568172 0.5878446855012327
Ni 4.491295560087975 7.94745007554433 6.85811817303376 0.3729441699714738 0.5337273348315389 0.19771474777909173
Ni 5.037465062387633 9.060435276843053 11.623168192337623 0.0816878040887948 -0.5567610767225508 2.055441682817131
Ni 5.261751422431985 3.5685281427765423 5.641366786145888 2.2237916042808603 0.3130852888323124 -0.45666340266800065
Ni 5.631624038746686 5.80944469870217 8.60531220988352 1.72434453078843 -0.34632631027362937 2.4164767600558448
Ni 6.471872511345639 6.10970341899304 0.5621070493098972 1.1588476168547783 -1.323668956339959 -1.9734723429321752
Ni 6.948390493572811 3.8084002649762096 11.150793558468576 -0.2062623802387867 -0.21507200811061666 -0.3771787768781117
Ni 3.6813156346319342 1.37836642848645 13.637174110825216 -0.31792564764374925 -1.7309319541979609 -1.4669354524724993
Ni 9.299404421875002 8.9764301822087 0.883883903627753 2.25389845096857 1.2607543190936095 -1.5570315352296475
Ni 7.550497550210224 5.711189495639753 12.087297515943934 -0.2692685487576782 2.049026009098774 -0.23966820939274205
Ni 6.18394507300143 7.564352606127412 10.195305446643147 1.2249205972244517 -0.7071567277007047 -0.13383363285441466
P 7.479952458982183 0.8614938322731891 4.62151897669129 -0.526307388218384 0.2977751408378033 0.64269634323379
P 4.562461448118823 8.534488700695434 3.7024161417188495 -0.4015620908184826 -1.730316689211465 2.3464131704695395
P 8.816734907692744 2.677844632955622 12.424360080629084 -0.6324975483239171 0.1393998140882825 0.004299655816618402
P 3.537892761159245 5.610244173098509 8.844700863057973 0.0010436107731659448 1.6572487655811974 1.5171511540949418
P 4.734563252678752 4.844303196593093 13.791291620128074 -0.18814613025405016 -0.28969236382966884 -1.150629085599728
P 0.686214676804349 2.6574618045968004 4.665228715216185 -2.0343444958271997 -0.8347137835177882 4.525577880069645
P 1.17438764870361 3.836975729929648 9.065765663936244 -2.5435041686217037 -2.565868909470149 2.9054149635971513
P 0.9123634272571214 5.789325238683932 6.109666735545601 -2.630939930937869 3.0212737571407 1.6448887013539477
Ni 0.32821432904271863 8.565829533225012 12.11470663538907 -0.31493108379179957 -1.6346492830141266 -1.596929914086482
Ni 3.297578556387882 1.664375040349256 2.6649621586961656 -0.5596515108964684 1.7525706155136593 -0.4225507772550077
Ni 4.059061083127685 7.951767435127486 9.144826958577335 -0.47639276277612796 -1.4002713754860465 0.37596624462724926
Ni 3.1031656909755645 0.3328787704747167 10.826809113095893 -1.0480754938055175 0.4114204716698011 0.7277849454740175
Ni 6.177614826815234 2.7303866169022677 3.6230378644678414 1.7439515063860804 0.9274295632859705 0.5056974252775162
Ni 4.240578305863517 9.254725864097242 1.852247905504126 -1.0751348119161548 -0.1501421402064511 -3.1201277885961365
Ni 2.9071443974832474 2.140413315956078 9.588746524448638 -0.8956162754301157 2.2658826199136395 0.2774683109596512
Ni 2.285792639958825 0.01701077299812165 4.066654556747472 0.011881839039250506 -0.5059833319490511 0.9113365143788499
Ni 0.5983597013913793 6.06323771890417 11.90483404838443 -1.4511794751898233 1.1789821828211244 -1.0481595688788914
Ni 1.621671745125882 6.792363563800712 0.23383628419419608 -1.4719964119351745 0.605482453187654 -0.7533206278512768
Ni 8.995552604937583 -0.015016698419409022 9.40785292031926 -0.41860439101275004 0.37720011703435036 0.7588171321894738
Ni 6.282313148209811 8.756611677942125 0.3849100079608707 0.13937795971141156 0.5630505092756883 -0.4214326044901645
Ni 7.282191053239574 8.729070874326698 11.987089624756326 1.1489347286164406 -0.3346612152308752 -0.06448121040252121
Ni 8.6375033459127 2.051423034874945 3.149988819526656 0.4862197761688788 1.3301663911388446 0.7920370705848682
Ni 3.335089732896872 6.242224724367955 3.8681670068658223 -0.8105448995810686 1.7155575286244196 -0.728265741765178
Ni 5.281024341355486 4.445300160607292 1.9796438748510212 0.02906117903201447 0.3185486259397288 0.9687921853931574
Ni 8.896770665193998 5.882435353092783 7.9974458519982505 0.7798551838066956 -0.8676886957819121 -2.8770446399845744
Ni 2.3673709834549315 9.48972567199609 8.441805619238817 1.7742792108353442 -1.9391509439424863 0.35358299183604264
Ni 0.10195835005127966 2.7299915643913906 0.7243174914784386 1.533452976578759 -2.0291876342166084 1.4036006969695958
Ni 0.8260256416061629 1.5990596918842537 8.223673612953199 0.5132271579956581 0.9923164937673427 0.005284388327390898
Ni 1.9898889032997653 4.65858148642007 4.941167250456491 1.1482209903788676 -2.0353557107005336 0.5502721265640974
Ni 8.68960324728765 1.3981378660546289 6.5572894484057676 -1.108138520535685 1.976460993246854 -1.8831425468976664
Ni 1.3670039657926534 7.741571281304415 2.454689816174568 0.9834287043594094 0.033300156814026524 -0.2443825841492759
Ni 5.430645776844079 1.9618872050883152 1.6359594776026012 -0.20476882641239572 0.6598054921102507 -1.8831152932041568
P 3.3613419128458673 3.314020265650097 6.142334756391483 -1.307337309059471 0.19762424494781447 0.6178178348245553
P 7.383352714060585 5.692913614005608 3.057269995223817 -1.2513265980218062 0.2773757512458449 -3.2701002359939424
P 1.263810606344275 4.682971275960645 1.280188354723777 -0.06206360209996409 1.0720255768632119 -0.10299736419984842
P 2.0969857577960958 0.6956912340593159 6.478241322181707 -0.22006509044983388 0.05229829518308413 -1.1598009819069834
P 2.9161647631482728 2.928044556511075 11.707916361932911 -1.1343149218207367 -0.7237884227201148 0.6908808733588166
P 5.722307402017293 1.2892538692471884 13.127684293559271 1.8110426436076228 0.02962450773465221 0.18207369880772514
P 8.385299941766371 7.371764507074859 13.373556510918188 -0.20209719311750357 -0.7400300813899577 -0.16734719123082792
P 1.5638812063918706 8.418220984339458 10.175481335406852 -1.0699427261922543 -0.2228727351019581 -0.27123827088953933
