# total energy = -340854.47889598913 ev
CRYSTAL
PRIMVEC
9.41905164912880 0.00000000000000 0.00000000000000

0.00000000000000 9.41905164912880 0.00000000000000

0.00000000000000 0.00000000000000 13.78573418082730

PRIMCOORD
 96 1
Ni 0.9504670798549565 0.3258483231500687 6.443300060286594 -1.2694317922629492 0.6298901926080571 0.8573220078356074
Ni 0.5349842357798591 0.14307539409762052 4.096664855096449 1.3433741480783703 2.5146062546404306 -1.4924166274627393
Ni 7.790167927541048 5.416171319301911 2.7088966399953804 -1.164497101831072 0.9350559694829768 0.08860278604107322
Ni 7.085123656679349 1.1152816450899903 7.998951567640275 -0.642114502588391 -0.026848230541095697 -0.5826168614433902
Ni 6.7038027709224 3.325848288682134 9.513783730991268 -0.9458903410943195 -1.5205666075343942 -0.031965754273319144
Ni 4.483685208988256 2.1880080149638483 10.20673676528923 0.33026540015602474 -0.224810061333987 -1.0221209787232848
Ni 7.344938776546945 2.9236830416916066 3.535503191056149 -0.35687297544122415 0.08915685877233033 -0.7103958034632927
Ni 9.092022147106723 2.4987425278855406 6.651561884926111 -3.0755163205343488 -1.1931376483859 -1.4700652563507328
Ni 0.4236350332516273 0.7558845438821926 11.412961237574175 0.10601121132550774 -0.7688158952733986 -0.021162750120544197
Ni 2.7103132653589275 9.416065779966528 13.622221458706717 -1.105847153398347 0.09412602985214756 -1.5635055729897653
Ni 0.26167726637273625 2.531539665624047 9.37829726678334 -0.5090316318570717 -2.219821563889519 0.42764310417625057
Ni 6.060161297567114 5.617070271290598 9.83329491621185 1.5376580157990423 0.8069834074820553 1.0273788846881144
Ni 0.22939723456813094 8.930372383215785 0.022654702954812173 0.6413287734623019 -0.17841064813384114 -1.0819783172005495
Ni 3.7534261369416124 6.554501383704402 10.484877591987393 0.5549988426158055 -0.5794957993159052 -1.1774706312726044
Ni 5.7966821666196 6.488907108227389 4.18501838500125 0.6433362908106339 0.09269983892858229 -0.05539338916864008
Ni 8.207874609703468 6.9840101375458445 13.673780405365767 0.2566089510121387 0.6010655550668809 1.1894118627948806
Ni 2.0900687162260567 5.983433703076053 8.098098388795664 0.15097594896165611 2.0294884532864788 0.3168537547358092
Ni 2.709343103042136 1.495971454388445 3.653963777556975 -0.9639806229371268 -0.1689875550477283 0.7884557809915131
Ni 6.9056059518665425 2.2139386640718635 0.09946706891044715 1.0975414617461292 -1.8583877085504898 -1.5838219159496143
Ni 2.4545200805327867 7.568264490441256 3.2002339324764266 1.4441475080437065 0.4560635643004727 0.03563883224953217
Ni 3.6742778461843835 7.192576197552665 0.8122509744877483 0.5177127045708374 0.09353930411074214 0.9886652701680004
Ni 8.894401025081564 7.150991084653324 9.374065286890776 0.08216422950458108 -1.1286842058975206 0.2674476934988555
Ni 2.3041825976366628 7.554390227405983 11.940499713048954 1.4899838496515307 1.5448874436679456 -0.844036860690927
Ni 8.035675507998882 5.17698392248065 12.271812028043396 0.9451344367649013 -1.010380550357905 1.3504354258005258
P 1.8032585944174624 0.33152235984555295 1.9863593064662632 -1.6536001130850166 0.13774993718968534 -0.41414558391044803
P 6.542915950212627 4.153293135337023 0.08556549062547822 -0.9251556796501292 3.327025488426077 -0.45857398942715216
P 1.7348103462997924 3.2957544187583747 13.716764247430577 1.2765511769165498 0.8062097625408244 -1.9495428286997716
P 3.458477954533917 0.7344712719308081 11.631189360732103 1.0393633107435003 -0.8619499935259219 0.8040001564840153
P 7.940618439056603 2.193593512574111 11.00075433965228 -0.21617758246996965 0.08553905951408494 0.23058655880644804
P 7.781587171515839 7.916901267079131 2.008002403277159 -0.942008746651726 -0.3459714980373719 -0.5097484554184382
P 1.7856920631474122 7.685032473366088 9.631361752355362 -0.11914800581778191 0.6212808536724913 -0.14197503101462647
P 4.4563134449824835 2.445911067352719 4.693780922978056 -0.10222834724430781 -0.4182133262219185 -0.5575660891223494
Ni 4.980803915353247 5.025911753558218 5.886453263793108 0.25133201888391554 -0.5198058396544402 -0.1990920877425926
Ni 3.748179725189646 8.078541611918451 8.234357215236377 -0.29146873900380127 0.713549518600926 0.7968046671768406
Ni 6.061122040832285 6.0410877180379705 12.372709850894818 -1.9376820727064434 0.32783236523449993 0.47240601021423806
Ni 9.380904460271571 9.335985003098987 9.070723787585095 0.5803537764408262 0.9533858781404161 -0.298256451349596
Ni 2.044075487168869 4.323316436117546 9.961543781155482 0.2876658203179433 0.41194086294964544 -1.206399912712445
Ni 4.4242038980121885 2.1707052171391394 13.691205650861525 -1.360519035288773 0.5586199843081605 -0.31474056504754827
Ni 3.8139341245441876 7.580678800475532 5.925784397639943 1.3477493943279306 -1.9223138177804895 -0.5669866111053009
Ni 3.2411804336759773 0.3441128061451112 5.742102530106231 0.8560392844684418 1.109104226883064 0.4643684846217422
Ni 2.0321415487671777 2.920810230947711 1.9165754368289722 1.7836231139440895 -2.111136405276274 -0.3972331244258256
Ni 4.27126675686913 2.978699722200113 2.6421598335569425 1.0297000766221234 0.3899476465080059 -0.9226547676051464
Ni 0.3904234572418703 3.061615633605073 11.763973499030444 -1.266192459390045 1.3227760122120444 1.3218558143906203
Ni 4.875621365920191 5.461024843113161 2.35893177707918 -0.7286272388696549 -0.6985034229010809 0.5646242815207114
Ni 6.189070438029262 8.485049041705487 5.352228203573767 0.6464257283692352 0.721873465085589 0.9015529526295247
Ni 0.5266634455793431 4.379152574116933 8.260921766518372 -0.5539500896363169 1.1406981996392613 -1.6202387640157516
Ni 5.160189753443385 8.999131460036892 10.348302285412272 -4.048578079837137 -0.36768934933043773 -0.1626454148797844
Ni 2.236506711751778 2.260016664593625 10.90177235190023 0.7674159296020784 -1.513743928185606 -0.7239344613796758
Ni 3.8783698566720233 0.02430774651400456 1.6928192722756576 -1.4080533334243104 -0.35695370808048843 4.36597613711219
Ni 0.7975760920648323 5.81213883032692 3.7891328197253302 0.1611084094099677 0.7150829245263169 -0.8583522488723346
Ni 5.0255726676999215 2.915149380924494 7.820192096482824 -0.4776708581576032 0.7553091190362153 -0.7434964426720034
Ni 2.421628752278087 0.8508709699373245 8.307048746108554 -0.6643308907844302 0.5246377138254448 0.5745168580440752
Ni 0.17292060105862908 7.621811798897146 11.780654639448278 -2.098000382114948 -0.8244957053342058 -0.5803478629035553
Ni 2.9436137549181085 3.3028563836793494 5.886315745639466 0.9656762654719949 -3.175275380302557 -0.10416515925570448
Ni 2.29916224312356 5.23768971016723 5.826430357348929 -0.4957482844846043 3.4105068940801844 0.20052779174785465
Ni 8.948023685950409 3.689546128859317 0.1703623866388191 -0.9498457261976417 2.8712907682199322 1.2359187481071683
P 1.5074344402091695 2.723123175561216 7.32237543839284 2.2152473142552753 -1.2111775366067463 2.0161886508537794
P 0.6356051385136741 5.172641739684138 11.303460994878817 0.40865859265394777 2.0671494581723624 0.5607388304233762
P 6.2522157600852495 6.770960608968222 7.015298343214933 -1.304977807688359 -0.05249601301618701 -1.152772871415608
P 4.303470494355619 4.433641787734757 9.76585544852261 -0.21241682987595675 -1.721432499347958 0.9408401802649216
P 7.435267481576318 4.91471043014041 4.7857589039459745 -1.239679243590865 -0.6374446079165473 -1.014077539593518
P 0.7892195094681628 2.842170568977926 4.60790931317495 1.027265756149018 -0.015749292414456748 1.2990997516410272
P 7.84059752991094 0.6488784660556338 4.897671365761042 -0.291870088207278 -0.6967167633143033 0.4031872851267314
P 7.2274078504409465 7.606609449583547 11.43783035956469 -0.06908759882628102 -0.7127131387425596 -1.3162055580833785
Ni 5.902448697253055 3.2117082211590944 11.806171792190204 0.7340219275226649 0.9755482731700681 0.6097162887633435
Ni 4.52102232960728 5.716714418371489 8.125490874715 -0.5391973568071746 0.6990623807283445 -1.4306492164469555
Ni 0.07176469619283611 2.649541544311011 2.6876114671460183 -1.97138537849616 -0.6294052825518386 -0.5358569795800319
Ni 5.539353676379508 0.3160864180517952 0.5747957412592806 3.50460515601819 -1.2468204826213365 -0.3703447846754138
Ni 3.2105308397066783 4.243226240198385 11.930794322260395 0.3161932383336748 -0.5109962117826102 0.6106724820290257
Ni 6.0008306914169545 6.911455182922146 0.9212058540943463 1.036793493133795 0.5272844074196725 0.24176134447634492
Ni 5.7663057251472605 0.7842895778506056 12.193509568121582 -0.6615109048371317 2.0730761080694426 -0.7691197996670625
Ni 8.767149637704417 7.9173722196600975 4.783897699345994 -2.150380181268245 -1.8790141265515896 0.5081813680416344
Ni 7.818472177657133 8.315553207815647 7.264571660510175 2.3127484312272433 -0.3684285414893074 -1.2221147523445404
Ni 7.9427000494644755 5.477263288104886 7.827360936670295 -1.7984375532491028 -0.1669065041489835 0.07269485656156513
Ni 0.31597809895817286 1.720841892748326 0.23033443020425423 0.5714287060370546 -1.8552756452840693 0.2839441484919819
Ni 2.2500042127222777 5.058124910096326 1.8595167059293958 1.831381098054659 2.258768377466361 0.5529260192471768
Ni 6.372544144522188 2.3560909911107895 5.492070979155634 0.7269112846198127 -0.427012155460471 1.7839974665643725
Ni 1.5957851443984834 7.799926065018673 5.419392634955723 -0.2360524670170257 -1.1357552538116893 0.766241449678003
Ni 7.831112544930275 9.34899271338528 12.355809246574255 0.8602867468908862 0.3487668013943219 1.685462509011252
Ni 7.111091981993843 0.35894781244555574 10.210665451719652 2.4450643418855504 0.5193376417687701 -0.8572302194527495
Ni 4.055250227031419 4.525505798178081 0.410808168756424 0.7088667684132759 -0.3281948907802412 -0.41371723812377786
Ni 9.396756724146902 4.832218376058319 5.678233824885878 -0.9311532919944608 -2.3002806377775356 0.18578431489009292
Ni 6.291738100679957 7.92295771727036 8.818072798379163 -0.28682455536357054 -0.7557240950864469 0.6974091613956376
Ni 4.701416006220685 8.190647164291715 12.513697041248433 -0.4166593514712373 -0.5850190431269796 0.5442524027325788
Ni 0.5117408420988389 7.890471408235291 1.9219791467429816 -0.3197773561405073 -1.0819757460973882 1.8127400859147038
Ni 5.85134092316657 0.36053869026406055 3.2201957285732723 1.3424333814316558 1.7405383669394734 0.416252860061438
Ni 1.6101209409631037 6.771186666207086 0.11568385008344736 -2.052900404452516 -0.7880688299657396 0.553748258038156
Ni 8.317295732365224 4.618773247312685 10.221143204740995 1.356629984647012 -0.03739875236343237 -2.06916391749923
P 7.239068636345677 1.269075919930408 1.8556567785757943 1.0376409287357549 -0.1785813693837505 0.7483918230910918
P 4.521191872536428 8.396641823206458 3.869586591036998 -1.789432778647331 -1.3394593864049964 0.6088269441798547
P 7.211291853120274 3.2659148632283377 7.471799273281889 0.027656071154371725 0.517644056116431 -0.4967137337216671
P 3.3761931195874517 5.68507582398216 4.059678123197665 0.6925649459294588 0.25870182898542543 -0.8360235034681472
P 0.1289628290563786 6.517682310924442 6.808622686868112 1.2604907810195773 2.6443320359740587 0.6748449029418765
P 3.8654751750051606 6.144235752321252 12.738335770938479 -0.36586335186529245 0.2556273038251597 -0.20120759142369862
P 4.483807656659308 0.8499036333360194 7.767916359995542 0.5355353345745552 -1.2759708789330475 0.25789270282056875
P 0.20710328129033906 5.2007952849743155 1.7366715508997719 -0.17689472570994694 0.2546556839405098 -1.054546960462474
