# total energy = -340860.0455325961 ev
CRYSTAL
PRIMVEC
9.30050723979609 0.00000000000000 0.00000000000000
0.00000000000000 9.30050723979609 0.00000000000000
0.00000000000000 0.00000000000000 13.61223245512292
PRIMCOORD
 96 1
Ni 2.776899014219601 0.3596896855253511 0.2581327943396492 -0.23937716051488456 -1.3122242048381272 -0.3033896588111033
Ni 5.872851936779831 3.626732883178208 11.910526536676462 -0.7565324499203552 0.6641002628308628 0.9388902556274022
Ni 4.072701516288294 9.37221437032315 4.405993571496106 0.41834548092440854 0.2793287612071576 -1.5712299382172166
Ni 2.924470166052884 7.362188698538371 4.656350211550269 -0.35544884140018784 0.7780811226254084 -0.7461606197677279
Ni 7.7581485030477415 2.1066765452864784 11.447165954620246 0.4052457103176569 0.1956807480681985 -0.22690653885169954
Ni 6.050054505373739 4.332139171824276 2.025854205427248 -1.5000767151111585 -0.806576916072256 0.17441438249025445
Ni 1.1912833992576748 2.0466324691387707 6.592527063967692 0.5173776898289218 0.5073316184468295 -0.1644135625238007
Ni 6.542293163086497 8.83507286260402 1.9407917642179955 -3.095084472474263 2.175593447309079 2.2906387438123965
Ni 0.8526091403840214 6.447576795136024 2.093043861454801 1.4678955023929237 -4.226560382184308 1.9357853699043628
Ni 0.6527012429333293 8.071324490675027 0.912775983230172 -0.45622502957900135 4.428182692547922 -2.4212690392381653
Ni 6.081508821596097 5.746234828249024 10.555088250737459 0.03243858014467962 -1.1250725772868626 -0.9975396898394949
Ni 1.3806231300840421 6.70477302837467 7.12954301483614 0.009429520844016019 0.2480762309507792 -0.3119601740889337
Ni 7.128615754242595 7.829157877488222 0.19870162163341235 2.6901169555186573 -2.313185261654345 -1.5283045996086002
Ni 3.6410370636483402 5.451613353000097 2.3473755383964376 -0.016246286655533314 0.9120908760463712 -0.31937626404734676
Ni 0.9473403891464267 1.8727594822147637 0.8999198917712228 1.1649447308914518 -2.8403159171049728 1.4568991512824199
Ni 3.275871239331823 1.4528043684642091 2.2210672067132307 0.3127754709013775 0.9417230970905072 1.0630789091928852
Ni 0.4675969632032547 3.589344843197758 4.411779417185617 -1.0564593469938386 -2.4043774056891496 -0.43725620178598246
Ni 3.6194040833014434 0.45672560003580503 6.5826992177370105 0.7130173002465398 1.7338306159019945 -0.02629184381699343
Ni 6.4546916833412595 1.8945040686511545 9.381033111494656 0.11508386305073727 1.8681625285490664 0.9885613976002846
Ni 6.258878799324247 2.9230378879043792 7.107844930937039 -2.619406733487289 0.28031529349014306 0.43371887805668524
Ni 5.8267400208039435 6.707991003955077 2.8933478779467694 -1.3481497150901427 0.43516203826111505 -1.7605454061890198
Ni 4.788059347914233 3.9991066007745384 9.575307691578146 -1.0279206161241974 -1.1556885024005064 0.11216257563888424
Ni 5.895424268379968 8.879854806013439 9.773392689567105 -2.1612821728927294 -0.6820817870099479 0.6199510791174743
Ni 0.631645824099563 0.6465787188738442 8.362865637853922 1.1454544833773241 -1.3500592734080297 -0.06097139747704983
P 0.5813598403766039 3.2339259506970395 10.7992647035859 -1.113796747262727 -2.113304873682502 -0.9984118080318031
P 3.7560006363344947 9.090483398410765 12.03566393447073 -0.4853399446670867 0.1807711779462177 0.20583120623863904
P 6.039833247677592 1.9729073465206055 1.5049141816996474 -0.6689092541837318 -0.5148914330719584 -0.06521294636222318
P 1.9423272779992822 8.711562123564125 6.954543736458991 -1.183702471114929 0.2809768383335419 0.6056755430350665
P 7.473301861136985 8.370010287683023 4.4630838064752085 -0.6846305215737306 0.5654197808388134 -1.0752978198565804
P 0.30801327593744726 6.909942222894252 10.687318215519062 1.4263469895271759 -0.2661400304310255 -0.6702629399981489
P 7.679345303357604 9.195337319490266 11.138291451692204 -0.3228014876788118 -0.014623663450445783 -0.48911740943164794
P 6.718686587531574 7.227238335325354 6.886211048064871 -1.8684682327149433 -0.4538881539157086 1.5895907001125913
Ni 3.4318500499069775 2.8041402005635656 7.379926626361931 1.2739397074356318 0.5021477602530449 -0.5802218788486523
Ni 7.871623994540644 5.555918544139585 1.9295474507014874 0.9081889698888037 -2.2247912491899684 -2.0966037588777375
Ni 4.94916273809865 7.437569311484029 0.6662381315381912 -1.7690822400154371 -0.15397976878498643 -0.0274390700475592
Ni 1.2491976591975407 8.942335615115097 10.4104997716459 -0.7543138450024814 -0.21056049339350835 1.264062814641552
Ni 0.5740887036460776 4.9608813774955065 9.394700207203927 -1.9173305056332848 -0.13648521154464882 -0.6263502977755988
Ni 8.009420313035754 4.407352375635694 11.717096442670144 0.9516115598488126 1.2463887944005567 -0.651740198603613
Ni 6.429617515234967 0.5165827359836102 12.923249493251387 -1.086742314248096 1.0192336298731608 0.10159637008726374
Ni 3.1135308816555165 9.213584915122514 9.1736643469613 1.7177820470795642 -2.0830237062004575 -0.6866822618964368
Ni 1.4508140598682349 4.993479656135178 11.586854926383024 -1.4349781828396124 -0.04914072339070892 0.7439124471634995
Ni 8.425339006549613 0.6537094179417574 1.645269999847151 0.13769568691298223 -0.23729739516772033 -0.32699264294202396
Ni 2.3620963816006806 1.9410438079701027 9.243250743760733 -2.389544197331059 3.051370062305448 1.8151931754408868
Ni 8.491140096813714 8.194091189118293 6.333785086389556 0.5138038564347345 -1.0920614124681645 2.435021870047884
Ni 8.901041362002362 0.594177799754976 12.8223287567758 1.0385904371332177 -0.6401661206127686 0.2395746212376713
Ni 2.121017927786442 3.857515675236636 1.1126085465704556 1.0839786354600298 1.229862000390127 0.22574028645774027
Ni 2.2466863845565506 1.7536850852322516 4.47244848743449 0.24423423149686968 -0.00031393169599300773 -0.20125978481787274
Ni 0.20904750612949502 0.3229843027923055 5.082358095554375 3.1947869679729237 0.19185057568883088 -0.7062982363551513
Ni 4.566251545552605 4.911951407759898 0.20466975726909756 0.31431299059182644 0.36093994642174615 -0.9839478100876731
Ni 1.6278678203428176 9.040242057123603 3.096293321133187 1.286148847907314 -0.6811371637084914 -0.9688145539906605
Ni 5.241970614393301 5.239608285499014 7.424152399425372 0.2759948117379182 0.8932914839516809 -0.2959329454227419
Ni 7.748252763112617 0.1041396421067394 8.817337724932697 2.4821774446877636 0.7634937117295368 -0.5842855073950647
Ni 1.8264522555822613 7.41867998083719 12.344211989587002 -0.2848118958089159 3.20078226632441 -0.681700235300813
Ni 4.708986433507819 1.730247806438537 11.38220842038257 -1.05966499841533 -0.7469962282951458 -0.9635638471146823
Ni 0.4375526039115022 3.3122548245068275 13.0167660957398 0.07687521319149987 0.932591052882252 -1.8521383852066682
Ni 8.755851140078281 3.0237809846875217 8.615046107420564 -0.5137272375605282 -0.5692144719945551 1.4834144239641291
P 4.49205209705409 6.932096031658788 9.66900007365751 -0.37595878842808156 0.4415743695453621 0.3066575309290977
P 8.442470541286923 1.339207970374355 7.008095128350392 0.05485911393172488 -0.37932513379715316 2.233002581356167
P 3.24443552412438 3.7746853558172613 12.209342540788867 1.302386392812099 -0.8733505220533797 0.7561647821682913
P 3.6648277617254523 7.889211254143388 2.4358549860456944 0.4984924228886447 0.5714947833882996 0.8501177767776843
P 0.3845462217571297 1.4680944027248706 3.232346724530701 -0.37205662516019794 0.755982490954156 -0.08083908293525434
P 0.3579365398695513 5.402469471592959 5.578823833906712 -1.1280242037160186 0.6892291966880065 -0.3549245934656017
P 9.267286045183985 3.6298764546989526 1.6575475997422233 -0.40318008603787986 1.719047029834917 0.4006732604556261
P 2.7329634169888433 4.404143700562744 8.863986280188902 0.5482754078490428 -1.144058631471062 0.2832967447159702
Ni 8.230521276830588 3.4222891282403354 6.4084486302102155 1.9568622451793203 0.7818855839731632 -2.570230014652322
Ni 6.005123753844995 0.6075993620673609 7.378714770240177 -0.8103021874426432 -0.9119417520630165 -0.7266737146877098
Ni 1.7806844583823127 5.31422625683313 3.9983755808883537 0.9894602552654701 2.1036377829063833 -0.7977202370125746
Ni 1.518568256698478 4.374875003592974 7.186455610122799 -1.5195258249747055 -0.9016218581942473 -0.42513139349799045
Ni 9.324037741691622 6.18088474378294 13.2513593057037 -1.5662103735154382 -1.0772917103581576 0.11644449084368978
Ni 7.293541652992177 5.776926502859842 4.296551710087661 1.1892054032110293 -1.240667061425431 1.4813295164106424
Ni 2.323787591381906 6.2960157256033344 9.526044763675548 1.3635832760363935 3.365056217946553 0.6579861795133248
Ni 7.997227347758548 7.185618564451595 8.960401850851918 -0.0890892387591885 -0.9358784653842721 0.4124190881376446
Ni 5.576528468666122 7.375330315576275 5.063859386220764 -0.8717055302507891 0.6449131483794506 0.9321745341701236
Ni 7.7312328344648 6.96247148901604 11.596928306010591 -0.11050344276890647 1.3269491697531277 -0.46472586796116094
Ni 4.180671107366166 2.4121703137536015 0.21760490304143826 0.44217575057478686 0.10759423954191148 -0.4374423496548595
Ni 2.0603507176390603 1.7345818429138826 11.883152353075852 0.1696305879483659 0.1512824244584814 -0.21678024905097507
Ni 5.9092541229697515 1.502915502646961 3.7539814961654008 -2.639510189105383 -0.6106544843068966 -1.2325156359628902
Ni 3.3548790501860317 5.9582956987948545 11.76472620146315 4.515498898567087 -0.0199558742966366 -0.4157486667315098
Ni 0.44968883609321586 7.312058963340703 4.188144065108526 0.6871556019884295 -0.9092053269684599 3.0239443619943276
Ni 5.377246495367341 7.650058005372919 11.704981601655582 -0.8148892925926934 0.47258393055299897 1.4535875704106835
Ni 7.6500766063878345 2.87128986440905 0.3214255377423743 -1.0003439920575097 -0.4937543939830271 0.19568897559831458
Ni 8.261510567680055 7.511220030042532 2.6609877198234946 -1.414973971803544 2.834591870137002 -0.699623138327821
Ni 7.553323427304098 1.324410863008958 5.219515469187133 -1.609628849710389 0.15758522674805764 -0.6766729572895508
Ni 2.993907754732993 3.938997421074626 5.456205013532025 -0.6338972568849212 -1.5714073443353453 -0.029043695530517725
Ni 8.178057114261007 5.63131775810016 7.108880077417094 -0.3215557881971688 0.1586000411658172 0.890442701648976
Ni 4.853693029044092 4.965234014985768 4.516158082334023 1.439600254992656 0.07459952978344571 -1.1864016152136472
Ni 4.51179707438705 7.811189297079708 7.65315135415339 0.8035707822560806 -1.238345612381106 -0.4665202408574224
Ni 7.685325529652984 2.7235978059788155 2.9907706935674687 1.5189576111760614 0.5887558844615924 -0.4648824481436833
P 6.833659460725187 4.309101814851248 8.939085087758588 1.2512165548065033 0.01585933562975978 -0.20977862092216132
P 4.412207240528677 1.8354923488312656 8.94252906567022 1.4983538188827807 -2.114192161383462 0.6502301897169899
P 6.607452518336006 3.5073980719868767 4.750111417384823 1.599013278978072 1.1280758828895605 -0.07785788881974333
P 6.850158560955364 5.634154412874796 13.109846504428441 -1.1023427397895145 -0.2267129347836547 0.966965930817696
P 3.5586531685869414 5.890215984203588 5.9549977388503095 0.4553817077420996 0.8363960563162176 2.114759346740842
P 2.033890773921553 6.170691387609166 0.3653918266477425 1.7441973038482994 -1.4158800285575808 0.6596782225037672
P 4.743947041041778 2.585289959573525 5.371482040844983 -1.2088085221539375 -1.4185891999586278 0.9352333756011054
P 2.8704714197527617 3.6017517201464946 3.357293461922083 0.2160901649624859 -0.9054818553702858 -2.1031096783170553
