# total energy = -381160.12151630333 ev
CRYSTAL
PRIMVEC
9.30839258260657 0.00000000000000 0.00000000000000

0.00000000000000 9.30839258260657 0.00000000000000

0.00000000000000 0.00000000000000 13.62377345138588

PRIMCOORD
 96 1
Ni 7.740421897651814 7.481508953939043 8.454451017824871 1.8580385527411871 -0.16165374039047645 -2.376509732744604
Ni 4.5615685476720955 8.132212147548291 5.557137452599697 0.4322160682589137 0.0128287763335521 -0.449094074961175
Ni 7.077105831896933 0.1554622594582092 9.332189633412616 -2.0863270595420778 2.3536554538542496 -0.7962878754414222
Ni 7.977162249887906 4.905001697349703 0.3656578681535599 0.4643949669843034 0.7080854101625612 -1.8120962816831179
Ni 5.87516892936349 4.667088487629958 9.588139715720253 4.68907664408866 -1.58320922206628 -1.6399904927213822
Ni 8.757801297578999 0.11544082492673138 13.423831420955851 1.129404886113629 -0.9731293793159306 1.5883521997198002
Ni 8.766960756022765 3.2442634256751934 9.933215796714247 -0.5557920279410621 0.7207102980154233 -1.4124188094818577
Ni 6.5853341357154 0.5737730510743354 0.41436961813534295 0.9153911440641975 0.08577174435018131 0.32606473181111584
Ni 2.161688043085264 4.578910083323251 9.142288182541554 -0.5253504236217533 0.11901173735023374 0.6196852270505973
Ni 5.493152491830789 8.409630176003143 11.035678560366277 0.26477271776985367 -1.206048700020613 0.5158985341802341
Ni 3.9208160258884446 2.630924120473751 2.410086226373158 -1.763513744788724 -1.585039076186167 0.7994158795474426
Ni 6.782178716721833 8.497641029240755 4.295657554306862 -0.3744690912564325 1.072737772438888 -0.14416278269456462
Ni 2.4616696155113456 0.3922370527473921 2.262963355959431 -0.7809921256246163 -0.5108961958696363 -1.5452584538541192
Ni 8.789803551775817 8.554245365416106 10.090925102176852 2.1522208340214095 -2.0189919246305292 0.9403257025223482
Ni 6.690304880502346 2.340539500949624 10.190568653805904 -0.21576414908163488 0.3163809288644487 0.37744797137909836
Ni 5.39113250753843 5.46710760897951 11.827779032022626 -0.5510002629793738 2.6911199428618753 -2.0210207821351003
Ni 0.7487205690288217 3.9206577832120786 0.014494098315842334 0.2916456309012977 -0.06117322907521077 -0.05404690244307466
Ni 4.854131331094435 1.369739298230374 6.381171296346681 -0.9371940988719021 -0.41964260246927726 1.215473335768623
Ni 3.319680023552629 4.3271646020105825 12.668406947484753 -1.0116373055831416 0.234397447912106 0.3403538947402784
Ni 4.5876134305233744 1.0143169387198685 10.295513335093215 1.740684148488718 0.21877413955255223 -2.347287088434061
Ni 3.5333634870029385 7.250167469484848 12.358928952798173 0.9584944030115751 -1.4054814589320763 0.05260399934896101
Ni 7.449981427771323 0.6452736081313516 11.682999084058387 -1.3493617331203729 -0.4553439125256287 -0.39750566136092186
Ni 0.017731557306433793 7.3052731544310845 6.71925863608094 -0.5156697059988796 -1.4883020910737335 0.6961048407619174
Ni 1.9589419410896558 5.71224413145572 4.0116836248541 1.9555697516201418 0.37766985758191735 0.5808060334868965
P 2.6584118041977773 7.2056268102842145 5.881506083132307 -0.22572357428719192 0.0783782800995876 -1.7786986800592786
Ni 8.842731072823842 4.581432657752377 7.48214937135869 -0.31559417129709516 0.04425177072952379 0.8477197088591529
P 1.0908877772955021 8.881500528533484 12.104545472986558 0.06300076920225278 -1.002162790433803 -1.1676996679287697
Ni 8.07314108730018 2.6754182377107467 12.74523097434257 -0.009140785959003613 -1.4659815731996626 1.2218411869681796
P 8.18759708427635 2.7979166860033966 1.6139263646483895 0.15459734776432732 1.239983147984529 -0.6874263391513129
P 0.8255808986182774 7.6508565428287225 2.025323812985872 0.831260277751549 0.09300040088813662 -0.49848933756485114
P 2.6387338619720433 2.40684318234693 0.15175379579561105 1.541806490749777 1.2854554213847154 1.6441083715444975
Ni 3.3971910097937306 0.5241025366416296 4.172185448134925 1.8078927851247317 1.1546945139183533 2.8081557874326606
Ni 1.3803974079032528 9.008876574615295 6.292466967850874 0.23495357752589213 -1.356277743513916 -0.6521916843187349
Ni 1.2003172421988755 3.718209549783747 11.26500757031281 0.7255977080147117 0.9033419262091474 0.4790299432886589
Ni 5.964901835255674 3.8199409739015566 12.95154963746696 1.0885685688235576 -2.396944089339556 0.501645880915962
Ni 2.2944443401635146 6.576677330478914 7.804991425484005 -2.100130283973757 -1.1083308390521491 1.4528028697258593
Ni 6.1540949174401804 8.92588294505775 7.228855904335454 1.1404086934233004 1.119817242425194 -2.5647543362497314
Ni 2.601258272851511 2.0081833386176284 10.352256366320203 -0.002835155455949956 0.4484438429716857 0.7182844621827501
Ni 0.6741966460139445 3.743807629784111 3.618773575312516 -0.8178560885305011 -1.8053890448662713 0.2704689968236826
Ni 7.399799882577883 1.5825384643715796 3.2383712130787465 0.5923312605176766 1.136204682644282 1.3684400899080629
Ni 5.643213090989284 7.489467629720975 8.719106309011176 -1.9712532237936697 -1.6550147340443562 2.9646382680348426
Ni 5.653750191556707 6.1232934459051975 0.3182595323856136 0.4956891491118947 1.4911166777043934 1.0560937361243037
Ni 1.7369367745410464 6.317038332133405 11.131604339940006 0.9583380799393688 -0.7801189789910435 -1.0919876218074356
Ni 6.973885064942739 4.89600978997503 2.289829239049267 -1.070434321116692 -0.5680430773942733 1.3362069409059698
Ni 3.794054333726643 8.309220543652625 7.908655271932022 -0.39812272611963045 2.2705774542861477 -1.6023775674646146
Ni 3.15621533886667 3.546125293432211 4.7692741613128655 -0.7073125365522787 0.6236526963387775 -0.4128713451837147
Ni 3.6017336315857285 4.028095252071787 7.229292467954369 -1.1293742899860097 -0.679222720294598 -0.7357710490032877
Ni 5.237488177179882 5.7148504814193934 4.988753030075257 -1.867705643517306 0.19960296594074012 0.430539194777123
Ni 3.364509242927812 6.375066852396047 1.031458343927385 -0.5560259983287392 -0.04367352962855059 0.6806630522855502
Ni 5.268103480860318 6.765051274103408 2.9140844964021384 0.39068452467403036 0.23587840333300666 -1.1592376532043456
Ni 9.169185714166662 0.6394074590345409 4.781767886031588 0.40365933966714357 1.0325072070536154 -0.502812133309921
Ni 1.2927588903747345 6.202461326051777 13.366148242063396 -0.14047530654064838 -0.076177672903843 1.1202309329238447
Ni 2.129769564422993 4.269108156569757 1.896361616783312 0.943044387005092 0.6073552447303346 -0.4499903615231992
Ni 6.047914081598672 2.7273404523442113 1.5116801864127547 1.440271570028068 -1.1454238872497047 -0.27167638686822243
Ni 5.318322259624668 2.57464557804386 4.610149049316422 1.1196809739576459 0.3902253256494247 -1.5074665798173263
Ni 7.460835013691478 2.5065174516719826 7.85875111684186 -1.4682827105290133 -0.4933648718540922 1.7464596175199147
P 8.296812456146993 4.426410685270175 11.702167857201932 0.3507673767641185 2.0177253992132798 -0.5167827365574003
Ni 3.2504814320171 7.89973503918135 10.075774762173728 0.046472689640242544 -0.05249652723681927 0.5126514879978461
P 9.027986704884656 0.713655853624687 8.118665643612099 -0.02501914775215691 0.5795677902044212 0.46737718954107893
Ni 7.4011123659524465 3.970606618587334 4.560776403450993 0.6178695139980971 -0.9767813742462209 -0.1443003367136934
P 6.87222810796675 6.4458106371243264 6.877008898471545 -0.7490883349374841 -1.1611739509951098 -1.4843274226967018
P 3.3159566664616675 1.1747377789839666 8.195667460771011 0.25815161290891026 0.18283088868872385 0.15654213019552396
P 1.5041711059995568 4.127713671040476 6.606889580754251 0.18215674543983468 -0.7090112644109403 0.4223222061839695
Ni 5.466437404703136 0.6828478662147947 2.742533610953882 -1.6934313861493417 -1.70029057516302 -0.27519751264760345
Ni 3.3938492968045924 0.2026278854079704 11.915298402124233 -1.770239236438016 0.033039189843156 1.4712543915628276
Ni 4.951255100812178 2.766584636082951 8.534626996903828 0.17503221857991147 -0.9825563290567851 0.09396199347045754
Ni 0.34956644964569483 1.1326359186779136 10.59614835668876 0.8540824178523871 1.6322658703836148 -0.5878955933438262
Ni 0.13389005931244813 6.361904785079497 9.33013247861986 1.2623936544692451 -0.9174619105502974 -0.07890124248259314
Ni 3.155275191201202 7.6088663832354 3.5294427919861553 -0.48521910281850633 0.19713804934001533 -0.2872554722534021
Ni 1.0622644696587318 1.7192973703226142 12.690885785082163 -0.08361227480501729 -0.5534808633093823 -0.034658727724449986
Ni 7.243530585470207 6.221739007390233 4.189256109557713 1.4605771143546395 0.6028619848456714 0.6612591938376419
Ni 4.699537544677692 3.292183031435875 11.004916184080749 -1.1012536204903938 -0.14829608813664782 0.0710488363177099
Ni 8.959579326730957 7.046537070180136 11.737997722488258 -0.2960717849934514 -0.4080330432548069 1.5301305970737453
Ni 7.420157337472718 7.319794247085837 1.6728903783801365 0.35612966951729635 0.0926263053781695 0.372672661477642
Ni 1.4675239638317634 2.423858924252626 8.463279097487542 -1.5582412392670324 -0.36222395534049234 -1.780078848236257
Ni 5.932536553742487 4.187734187346783 6.445939092943964 0.8522384226651127 -0.7349135860989988 1.9121206792975713
Ni 8.960929043676432 7.763627720721234 4.470532466798074 1.4911976674539738 -1.7570055113565612 -0.1965929754698227
Ni 6.847095447602756 7.782002487965133 12.986331377732181 0.604900612542255 0.13309624046775786 -1.0212802279895443
Ni 4.486756995321941 6.054634741147859 7.400011183092795 1.555822602523211 0.13163096877614106 -1.1284492070685792
Ni 4.621207419876579 4.3495605949127185 1.066876778255161 -1.7008235648483545 0.6878400296499637 1.1023563666362692
Ni 0.17577968826431614 5.230395181921599 5.304157678411375 -1.0750095991922002 0.699875106437627 0.44881639581975613
Ni 1.6173797783502566 8.868952815136943 8.59831781246255 -1.0826383193820517 0.6472597942347562 0.9265494746738623
Ni 8.808438954016083 2.37057768428096 6.175125369129207 1.3747966282537096 0.9517794528852448 -0.4704601993417769
Ni 4.190666331055915 5.662816566073199 9.820587968069738 -4.3562344843443945 2.400993833928897 0.5793747003570087
Ni 2.2704193785340823 1.6476041295361405 6.1235187090092005 0.6251578201293942 2.1208451479236055 0.25842235007179365
Ni 2.16554171767441 8.399530569893907 0.32503883480898266 -0.4014404776389538 0.29057913730999635 0.10328584197454471
Ni 7.020827289467043 6.642915853127127 10.377800457642747 0.16704791482285425 -0.8796998613101753 1.7217644287660798
Ni 0.8993266400011436 2.0414049922617368 1.65587463647444 -0.22581690533194657 -0.06840702781948864 0.10991388881402363
P 4.745223136183796 4.43736666351033 3.3044189136760487 0.21722736389072264 0.21580580095284768 -0.0777910401375499
Ni 8.807061311892427 9.192326378486992 2.657507959263947 0.2690284077224141 -0.18953606862304131 -1.8723590831289174
P 5.266437278562112 1.6099609893465148 12.432810596714859 1.5514082755055991 0.24998398949645334 -1.6130561302243833
Ni 0.05174163181455346 5.841146753944825 2.837954875641784 -1.4006390432381104 0.28404467862558824 -1.406204967361662
P 4.557612480762948 8.169836670952462 1.3030772437130629 0.43539163777341794 -0.5188285633428356 0.543266898890858
P 1.7419539982211178 1.8757621436775647 3.9074892000206187 -0.24211872781576368 -0.27614599260380185 -0.15783128132059268
P 7.051768386892937 1.0692457642042856 5.524726559962145 -0.7810831426765258 0.6248099498716724 -0.014426716948291283
Ni 4.379738404134966 0.8534865291757648 0.5362090322228926 -3.016227452966044 0.7991489990393011 1.0620265566689708
