# total energy = -340892.2592658394 ev
CRYSTAL
PRIMVEC
9.06174108082822 0.00000000000000 0.00000000000000
0.00000000000000 9.06174108082822 0.00000000000000
0.00000000000000 0.00000000000000 13.26277404662109
PRIMCOORD
 96 1
Ni 6.552472505519588 1.9350804444229435 11.504580816662049 0.25283894244674515 -0.49609975428675207 -0.5667133028392562
Ni 4.467184640392928 0.2592709120539631 5.946006419731883 0.8446888924526292 -0.8727347428462517 0.18728712468786454
Ni 2.6689546102718387 1.4270882993197995 4.876881361111453 -0.12823479861039852 0.909507174479595 -0.21488611735205573
Ni 3.293526054805082 4.294159755564453 4.79312640651817 -0.07235907048870119 0.07484249903218723 0.40570413801131416
Ni 4.871075503579788 4.546348010763806 2.6582046667884396 0.9425003415761638 -0.3065377175217817 -0.6563877246779535
Ni 7.132451122031416 6.017104840511406 2.5718770838929257 0.18323198078188446 0.4890065948853966 0.1265170445883434
Ni 5.216518136582106 4.35046941484612 11.636426431346706 -0.39257248572536263 0.809532142045838 0.17940823616042004
Ni 5.859702397363265 7.764426009054702 12.371237581226778 -1.5231107141124864 0.8340866914567506 -0.11739631323399782
Ni 1.804518878454123 6.580128939399159 0.4830578582541847 0.21618478155882126 0.1376602056893565 0.11514582663692427
Ni 3.1799371299425636 1.748653244487037 0.5484491944801841 -0.7972561528919624 -1.511470558770397 -0.5566433201977639
Ni 0.7061225836876299 9.058823233243917 4.478533564963954 0.1808969048908046 0.24841664500933347 0.5760659476987497
Ni 8.424039206475328 2.199221136151507 1.222503182539895 0.9639561974570947 1.116660184853451 0.4792605712422262
Ni 6.9586197422438065 0.7466901863062594 4.727821156832753 -0.11962597389546495 0.36285567538722024 -0.309381357618164
Ni 0.8332470312519545 7.697287569141945 2.479064919056318 1.262639451931464 -2.04133506821242 0.1179483290827259
Ni 7.525023870567037 3.9358856971448772 3.8316421458931065 1.3376606426333608 -0.5075676457170355 -0.7085466660696959
Ni 7.749193222242265 3.892588698102746 12.493374446482022 0.6805008156760732 -0.8629851196586558 -0.13860662876302582
Ni 7.7332354961407175 8.744697977531178 6.832967827610488 0.5261266396661455 0.2694223007267231 0.8620150424359027
Ni 6.835733470998444 0.7325411837310433 0.5460043367276587 -0.2398674698877417 -1.227598915387563 -1.3797264614551594
Ni 1.6855744645933004 6.419273972886629 9.402073831070787 0.2438411098235091 0.5291538565282435 0.2571722797147764
Ni 8.928932236117525 4.771568524408243 1.234866115941565 0.9331721221967025 0.4038133487465045 1.0103954627562406
Ni 6.508939901208497 2.004339331756348 6.82887010827879 -1.036814061959085 -1.1647722098693294 -0.3480695182169812
Ni 3.568758317657038 4.161758656149514 0.5277086814187297 -0.06024634638556721 1.0854842734712788 -0.03254168138144718
Ni 6.0181016320339324 5.685517609672213 4.772542661577986 -0.8955640820359415 1.116602077922006 -0.3939986766489279
Ni 5.289637325630024 2.8762147530285613 9.312470428762605 -0.818145594746462 -0.4647808895688124 0.001927556040016035
P 0.0989678055752687 5.76733607018946 12.515787756953099 0.7952573772943788 -0.07051533241174307 -0.3630986446359617
P 4.0960066626271825 6.006384800773682 12.678681615216252 0.8197070256963108 1.175548217438911 0.5754928488040992
P 2.716157219734053 8.644955393090672 1.6151937337099969 -0.597916467914938 0.20865222062720196 -1.3432643619733835
P 6.177778572201658 7.7424422251124225 5.656440294785987 0.0672456605215358 -0.1474882475233718 1.773113215551701
P 4.87847894606983 0.8816041065320777 12.606545625079189 -0.31469274252874835 -0.7794085831875802 -0.6623028046108078
P 3.6868690513353837 6.072354276082747 8.220890375661975 0.6278523362424219 1.0081717156320444 -0.10113537129044518
P 4.840066225488082 1.0958182294195935 3.9143350644278416 -0.7156053726886902 0.4481093424504024 0.9717553817865393
P 0.058506225327671545 5.712766265201658 3.563110134420755 -0.09139731806707485 -0.35542827257489756 -0.6577000157314737
Ni 1.335764072374091 1.1687833688685763 2.368572391132413 0.6633271321102641 1.6571947724148106 1.4552047942991326
Ni 1.5458152313938889 6.486666141550573 4.879587197008058 1.2243660102725622 0.7879896399883719 0.04233167088867548
Ni 5.99618128027945 5.649732794013492 9.32183392585558 0.15220210805927334 -1.1145469951651903 0.18964019830107337
Ni 8.850566298964669 2.204413513809762 10.128488371634734 -0.7881215375805459 -0.1326244430376619 1.1544289189617924
Ni 2.0140263330070884 5.2264951135484905 7.145664046749568 0.616687320764538 -0.8841998060630579 -0.9485869140898762
Ni 0.5799568683331541 0.1412145488223007 9.19062535157123 0.2372883963066559 -1.1207436108942053 0.6574889281619322
Ni 1.7424278283417998 1.1129630436070594 11.469752920864954 -0.5532363513987439 -0.042818380717106905 0.0036054579630712103
Ni 4.174272920627787 7.045712136089332 1.711786456939317 0.4981314400048002 -1.264075155936726 -1.092088666161674
Ni 5.435857580243634 7.461673238439884 7.940383273307628 0.09349199581257447 1.0343406607179284 -0.48487406077426165
Ni 5.4202079533399585 3.191436479416081 4.73312590008082 -1.2812395835311547 -1.4156918238061746 -0.09446721524165021
Ni 0.6918494352591533 7.282803530592956 7.348505684539162 0.8177118496431531 2.9447690399147413 -2.000794427785896
Ni 4.919583003762402 4.4586303567814225 7.420482188032619 1.0340465265162773 1.0806027770092617 -1.0724462093403981
Ni 8.052797796521787 7.266854866232522 9.073899251935085 1.1701388734978817 -0.2470195075514907 -0.08287359686677985
Ni 4.84867487954627 0.3910141290640337 10.361515575248783 -0.9797150029532483 -0.9388352340197509 0.47950071227749036
Ni 8.184292721825338 7.488124460751307 4.7437227001393945 -0.7025683369990738 -1.5029285827376566 -0.45570309563726036
Ni 7.305004796321968 6.235837147518303 6.92673600613461 -0.5574606738927367 -0.6245114447946469 0.07361222616951194
Ni 2.2881530634431506 5.457279536236853 2.622129875414073 -1.1847131717676307 -0.9257876568071732 -0.531720331703839
Ni 2.3078623503658457 5.371211119137196 11.693509057145388 -1.256196781629914 -0.854251853550716 -0.8970848895558421
Ni 1.060214648583149 3.461585105503149 3.892677503165662 0.12601439392031202 0.05650256307241882 -0.5959943111915607
Ni 3.52292403110302 2.4662434615542854 2.7619860692434033 0.12196542066191898 0.7740550321851507 0.43842399684183847
Ni 0.8352397081228974 3.234497873189251 8.230121571334687 0.7887838537548931 0.7927117280543896 -0.8340476106886991
Ni 3.889607385276279 2.5447815717883056 6.880474911574128 -0.6010200465409262 -0.41034677898964816 -0.25696504879997684
Ni 3.882502980242995 6.6383143790913985 5.9320014988403775 0.15318838323194262 0.778432078206924 0.3052621932434678
Ni 0.9089288806868792 7.718600784241797 11.601651093648071 -0.18458540948598534 -0.651040344323111 -0.6846125238516015
P 0.019270698652782713 5.525405705931022 8.032559303918042 -0.5317663544504261 -2.1585897136622307 1.2705340241881926
P 8.601241553957303 1.5053183103559478 7.827012736405954 -0.6683230426629586 -0.1347862265756711 0.3952281781806548
P 1.7473664772488655 3.404441766039005 10.475376352344718 -0.5707728176206105 -1.113557120448095 0.47350361415379094
P 3.9424373359702143 6.123462495965046 3.758617198952772 0.43503965375063786 0.6181901305623095 0.7625136072044545
P 6.8585328116409725 3.779770021234908 10.41887730267377 1.7547902488727973 1.019657861894773 -0.7806823076936813
P 6.355968649465044 7.720938713449179 10.118926422411366 -1.7085587287090833 0.004292199617450672 0.6247325596665176
P 2.199628914501632 8.400986137081611 5.884865040088293 0.6535415134784099 -0.3407205340510777 0.4343657676120648
P 6.847450302258695 3.955141897011878 1.4351777156121626 -0.06705642732886516 0.26144596738946585 0.7785500918420268
Ni 5.495221046280679 2.6652936668618303 0.3030916797324765 -0.48722559172557384 1.456871383368278 0.5713034933130999
Ni 1.746414994431908 0.9920341084422963 7.246647183548564 -1.1388022681681291 1.4166986678041342 -1.26315110146056
Ni 6.907620263254874 0.6735537799502245 9.122321571751227 0.0314312219260878 0.25252012565474574 -0.7681340387150255
Ni 2.9092176141653217 1.6492821914322005 9.336050891489151 0.05319766706890194 -0.11042579545343563 -0.40598490247652663
Ni 6.214206771479465 2.1457024931329163 2.6271827022591743 1.1631377595897001 0.37509746886905077 -0.14567587690498138
Ni 3.9591381248431 6.55947723140062 10.38678152182251 0.7251025135458481 1.2602794363397198 0.34738586188639525
Ni 8.137099174104238 7.613058685488406 0.17975050908319778 0.928404011384098 -0.34053464329251676 0.24105840487204938
Ni 7.3495613773789294 3.6657461327989234 8.065702622042068 1.3024270162420473 1.6920571315096342 1.2801599773137309
Ni 3.177979793861965 8.30375365492965 12.406595588879036 1.1236895808964067 -0.23239070189472233 0.32508822683045946
Ni 8.98229682953718 4.684938279359526 10.116512374578628 -0.32555308228201996 0.31985808877977173 0.47532035564755554
Ni 8.77541727990724 2.5767060857325137 5.8670532817548455 0.13380792182280182 -0.7647414680937087 0.03447617939999869
Ni 3.5649523863892076 2.6773185973199527 11.589263693545393 0.406155623726436 0.0774943348327375 -0.28527135194383774
Ni 1.2348343998476665 3.281917964438199 12.758430374063087 -0.8103386971075335 -0.1904179570073624 -1.2076728658875975
Ni 3.1973719198456743 8.41369975986439 7.95710762270741 0.0670764819335232 -0.8176462865125401 0.9838287680113056
Ni 5.548676257111472 8.00719911523673 3.6597037638241865 0.07420409411723995 -0.705265681325579 -0.19904760765790236
Ni 3.07191211412397 8.29990241495625 3.722462664256603 0.19312481441556417 -0.37036972437607824 0.537982510563467
Ni 3.1945627801003704 4.245616008417384 9.254021292403952 0.8929346148328944 -0.10314211730782882 0.05810358901095155
Ni 7.3620303331516315 6.0876867420474365 11.342469892831135 0.3077746752526764 0.5070297709356946 -0.9278311695997635
Ni 0.9762938641274823 0.1325932083265528 0.3755928580364283 -0.306544145279685 -0.8848646933405663 -0.4724476620854508
Ni 4.829074333516942 0.34556587268146693 1.8556606267785423 -0.7636927151142202 0.06581201339880279 -1.0199784784589854
Ni 6.535780778387816 5.720722473899648 0.1777977038731561 -1.6762782714088227 0.20788243234071294 1.528780253693438
Ni 7.851110624550103 8.89941814530961 11.243410563670617 0.5273851946635949 -0.08980606232055502 0.037593384872741706
Ni 8.998399543496548 5.001854551335342 5.748617231570512 -0.3958632406614924 -0.6247163617166015 0.036425846927201785
Ni 8.158965155412035 8.975029313163846 2.4692501472558717 -1.484847813976546 1.331717023455416 0.26274360315496686
P 8.71086143621194 1.7129499844983396 3.7494258749409606 -0.9727933361327503 0.9403740392617805 -0.45896839665209344
P 1.7903644388342386 3.373958068931904 1.5151131463259435 -0.02724880841362404 -0.058704198709427925 1.7468146868664884
P 4.832671844739154 1.0578042254468563 8.102931879234342 0.3248665977379566 -0.8565123674501184 0.3682045984039594
P 8.777057455048853 1.393695783315142 12.445310065439877 -0.7425374211928438 1.016076572301418 -0.5025917897689989
P 6.483059568587247 7.874154632202705 1.5878453990282992 -0.5667793801905013 -0.7209411830793068 -0.6408916859248833
P 1.9596105776182235 3.186407213097876 6.141791679716095 -1.1502493336628061 -0.09649118765021447 -0.049660857560237054
P 6.803292437810744 4.132181133153802 5.95502557066253 1.1429556282148703 -0.38681347175439834 1.4828451817242205
P 2.559343789758315 8.50071059803989 10.189882573855401 -0.5291942228478758 0.08210380858029084 0.21439786486172754
