# total energy = -340893.1023293425 ev
CRYSTAL
PRIMVEC
9.04574842710703 0.00000000000000 0.00000000000000

0.00000000000000 9.04574842710703 0.00000000000000

0.00000000000000 0.00000000000000 13.23936718133772

PRIMCOORD
 96 1
Ni 6.311227648815857 1.917553911928721 11.294146858735788 1.1339295134568599 0.6684711382050488 1.2009728281596026
Ni 4.6763714633928934 0.44301461941145526 6.03186870801512 0.028618949288273292 -0.13998628271937183 0.49669676444080263
Ni 2.735280514334773 1.479160765334103 4.761577889695881 0.3470799006102023 1.2150133654130686 -0.05386255434641046
Ni 3.417212342956605 4.343080866531745 4.68469717014689 -0.2568922865805124 -0.3513831559712465 -0.1314317082811414
Ni 5.135922615308674 4.533394365442362 2.861715652331986 -0.2282784794985617 -0.32311130560974677 -0.5664739331349405
Ni 7.138108548522045 6.2401823415082855 2.6789327388980118 0.6060974610638337 -0.05444362366086107 0.2383191515640154
Ni 5.1223268555832755 4.82200801134959 11.26321944522871 -1.3308443910424759 -0.6509979211209498 1.0975700009912195
Ni 5.789704075157758 7.885884379167281 12.316080324897595 -1.0590021680203503 0.21868749337601692 0.021810925227504375
Ni 1.8632341932653693 6.254827408038838 0.34061584385092086 -0.7175753519308674 0.4531975556065872 -0.14281655307931532
Ni 2.6878898388847645 1.6294468279274295 0.3155428386567362 -0.4860490549189694 -0.9051846358448411 0.9000941086958111
Ni 0.5914689179699228 -0.3243488746465402 4.55574550496697 0.20641047578087676 1.0695056386548354 0.4501747096198634
Ni 8.5395482442882 2.5050028993451066 1.630295319119873 0.9503272938197505 -0.9011546887498415 -0.347577151961595
Ni 6.816875934171844 0.9105631174172056 4.933888540299454 0.9323658242453233 -0.5601886143468611 -1.0253207166075051
Ni 0.837641721908006 7.626606095062757 2.451970390667732 -0.7785678324538399 -0.7731227501788684 -0.3110366338333998
Ni 7.921153751868098 3.889337085037591 3.6504243987013743 -1.2007797383121899 0.33953756948657005 0.30036347039026984
Ni 7.532656953008209 3.8356505687566598 12.734827915290202 0.6726620363579449 -0.45029272325496644 -0.9400235979008972
Ni 8.236099571135695 -0.10459689240236525 6.8819818031323114 -0.771584202047155 0.2526810767126422 -0.105653827986089
Ni 6.966682572104196 0.7028881137554521 0.2967819566404512 -0.0938411516218771 0.4708587203317762 0.46855989699527045
Ni 1.7011977036039838 6.604409397624832 8.971366036428797 1.1780948951201646 -1.617464286594408 0.6624601561242784
Ni -0.15184012215475284 4.942370738499392 1.3459937814369283 0.24959601002941528 0.36314106783812294 0.8280014044946191
Ni 6.6595432336370095 1.8673590544994223 7.083472228667482 -0.7906178216398383 -0.017453419589757036 0.5423485008416467
Ni 3.5175116003319995 4.396161317675216 0.9039470570957442 -0.11095569981497666 -0.5602613765663255 -0.33060864242805643
Ni 5.893377396656621 5.705641936017288 4.8499774651559315 1.1050817359872322 -0.5127113947015041 0.4143736407608541
Ni 5.1740775817236635 2.934911134015291 9.490097187580423 1.0228861390240835 -1.104933383334826 -0.8189158972535832
P 0.07194083639128009 5.626654461684499 12.542831002617179 -0.007820781595999434 -0.4127592450858827 -0.9649036489720284
P 3.9183015711591653 5.893295984921739 12.667717508501958 0.5134742410094577 1.3020871164041254 0.06313883744201383
P 2.4813211302425824 8.491081124788078 1.4443889087909016 0.6931046204830127 0.352644024961541 -1.269923387187387
P 6.375461507638249 7.916540420224749 6.112721415651551 -0.9742362392268639 0.08199325114435556 0.3232342043408562
P 4.488409859045551 1.32775302994906 12.33423152347709 0.5744605508848428 -2.405860675102895 -0.36927212043652535
P 3.9265874766205524 6.14911879316791 8.186735113402198 0.5347354643810791 0.6208208833169372 -0.13551976230758597
P 4.74728108447566 1.0716045747633594 3.8784324354374795 0.6593915445012837 0.007161036524813473 -1.0421246755387215
P 0.2205769544909856 5.863770662404306 3.548494192903831 -0.7931081921618599 -0.853374336041769 0.5433170354025031
Ni 1.474230832499544 1.0210931161428503 2.636064033033317 -0.533255794511759 0.999655193520601 -0.33563772021153165
Ni 1.9254146672190544 6.482237520810972 4.840643157464223 0.28823326278563904 0.19448389954661988 -0.42488328204292636
Ni 5.918325570523986 5.450533741888419 9.151778963802856 -0.14739131693419133 0.35263682587268946 -0.6450828411880954
Ni 8.481691638031615 2.456002080694086 10.271021162945368 0.863399324377939 -0.4410089839601954 0.34734112469138884
Ni 2.4448215357702052 5.183657029194853 6.994212402542171 -1.0917886184227519 0.3027299137399173 -0.6550821184926524
Ni 0.9058140995490526 -0.2252527017977444 8.70694886270352 -2.294575359862642 0.7087443839027987 1.3362146542154536
Ni 1.509183604009151 0.9573296362331138 11.458354327994044 -0.4772777364842425 0.43415750825600075 -0.22634063904590052
Ni 3.9303414621734736 6.863660544484393 1.4731046368336678 1.334851969539972 0.1238371837633351 0.7173686352367001
Ni 5.420818458656261 7.828489106075029 8.2680247306825 0.6269046276171719 0.3020719684409443 -0.9025335713752392
Ni 5.3518084447207555 2.8807904218149853 5.0609071290633265 -0.7830186691363418 -0.04492771375062585 -0.5450787552886162
Ni 0.8098441373197495 7.316345973425072 6.836173229063523 0.4810899111414811 -0.9264242619499078 -0.0846779970653703
Ni 4.833279013756673 4.6530243869782195 6.704176764998994 0.5466090758902135 -0.15262196920551133 1.2443360256365859
Ni 8.212842952204225 6.771086356174528 9.087885225117308 0.10667404172048726 1.7533756279134576 0.6279569801410863
Ni 4.932538010075234 0.3180078050740157 10.343070548316492 -1.698794707343784 -0.2571792216933119 -0.22590637972195934
Ni 8.072163474327047 7.14759753851003 5.1903083679347635 0.362267406983918 -0.8567021148634214 -1.65605783059689
Ni 7.073277670310513 6.008104622602881 7.128737153262222 -0.04004210352355039 -0.3912010592991327 -1.0317240490306878
Ni 2.218415501061624 5.3792441993762 2.5486839134089627 -0.7507788352660296 -0.2841120415284139 1.3848923219268148
Ni 2.4145544618905097 5.225014190515227 11.32528594275356 -1.0539265532696558 0.23501734088429202 -0.6992675547606151
Ni 1.1498050689922812 3.2271430792506357 3.8698407836828665 0.31275284519355817 0.21092816114557225 -0.3462818301889391
Ni 3.6488739574392763 2.4448486730151666 2.4795743962419343 0.7394639244738426 0.10351492726621528 0.6126602018830158
Ni 1.1530796298842267 3.369179419375856 8.122391801025131 0.21668383268242683 -0.5953301952450005 0.5284527166961609
Ni 3.603310523149967 2.481022620548013 7.183495590719108 -0.423321079762129 1.2896481193098241 -0.3095248251745637
Ni 4.142654220999041 7.1251278996824245 6.066410802550985 0.254210111762659 -0.7958834409141519 -0.04166909760401211
Ni 0.6328794492053863 7.34510240733528 11.252892818946265 -0.38461286455865373 -0.5503919399714133 0.40597436095356537
P 0.2006256519957502 5.3313017332786545 7.910098038271037 0.3851970191968979 0.9756081798737262 -0.22667102580212575
P 8.683583694792205 1.6136439056118799 8.183663177272626 0.2156055120165835 0.10599089961053358 -0.28877088045666394
P 1.7907777492198327 3.178766417233715 10.50970046897492 -0.5827207340111061 0.7424428045965086 -0.19925843811712782
P 4.047529131662853 6.27533411948094 3.870806869603473 -0.608493472099836 0.1720209425574134 -0.7705017676162538
P 6.92063066740559 4.030568353562306 10.506946943186225 0.9721263919727129 -0.830346507688028 -0.7547792146746743
P 6.506697224269041 7.742554497032258 10.150000809892681 -0.6071022481792642 -0.5439940068648695 0.7405178196596537
P 2.5184448813490596 8.572773277868633 5.685977383743804 -0.8906051953687694 -0.732322685443371 1.2177479907354123
P 6.827124767018734 3.9189800022831873 1.6380402888317067 -0.21836019194358522 -0.22893745323879927 0.2695364577070841
Ni 5.238202891566212 2.9636675679254982 0.19128591685504895 1.334471960492734 0.01828954233780721 1.5436445723997803
Ni 1.4999931237157347 1.072219685649139 6.823966896280121 0.22314707180926732 0.30735429988580615 0.5278179113256394
Ni 7.091902866101994 0.49825609982864477 9.277976198619246 0.36716690116806444 1.149283370205111 -1.1378617586317308
Ni 2.466323279527539 1.5461354858975427 9.336084276679136 1.274430016808489 -0.1651175305693608 -0.6466728113830348
Ni 6.329373419946362 1.7945769635143551 2.391241759319454 -0.7965658116931572 0.6781533984898191 0.9401876342825872
Ni 4.059731846146926 6.944086292800106 10.295567705587313 0.565449348525168 -0.24999041725435656 0.19050306052200094
Ni 8.042140635651998 7.336852684867173 0.23847125381818668 0.09825213620537918 -0.18737968440167085 0.43764212437049144
Ni 7.743142470673076 3.75069290053248 8.09252364464636 -0.3811609014543113 0.22869551243132225 0.7830844893772707
Ni 3.0024105079813075 8.134624366478661 12.378530362151222 0.8641927668135118 0.09799862543367639 0.2821310065426431
Ni 9.153392725303197 4.868032778803234 10.275430060676678 0.14991228358383213 -0.6314107430176416 0.3882358060232217
Ni 8.82911169376906 2.421727740308501 5.905260796224988 -0.6343433432834044 -0.3085020403370042 -0.46746974925488516
Ni 3.48031548323896 3.1078025216610268 11.905712715748903 -0.5867501668854733 0.7736269435087967 -1.525202563644509
Ni 1.0498857330463387 3.354597673083546 12.897434287095765 -0.08478675472909268 0.7259214099027176 -1.1680755632109496
Ni 3.0930760433955915 8.529769790353965 8.035103948033644 1.0508774820306868 -0.3486552155171221 -0.38376568606701
Ni 5.721092074148345 7.94913225142276 3.9062752487673373 -0.8425908722730198 0.3797779050638556 -0.3178868239860138
Ni 3.1429090708920784 8.469742204500509 3.53804906731839 1.036013677544977 -1.0382055429899735 -0.036370825319550264
Ni 3.4855982002580106 4.2829990061883665 9.1387775097421 -1.5695780044360905 0.2733149509129099 0.22371734249044053
Ni 7.146385408235111 6.1420269264848 11.334102833641348 1.3053863559806873 -0.8666486845531719 0.9472923636481684
Ni 0.7235422708951742 9.013427861543322 0.3769752292243334 -0.8007621091626919 -0.2691099116926269 -0.4001662389122205
Ni 4.575050036457306 0.2306177351265094 1.036121722402183 -0.11149331748600153 0.4499548802995734 0.5454788189405121
Ni 6.0774221919812765 5.607920716913176 0.4866766374038393 -0.8436666218357018 0.6367318981202389 -0.45097278004112656
Ni 7.999616572798308 -0.020729236850780517 11.519824710704587 0.012373433963688368 -0.7193224165289612 -0.9879628447843372
Ni 0.010370950449214463 4.799990659938 5.756728704230967 0.45463840181817183 1.1131352024193282 -0.19909491595607004
Ni 7.684480792815984 8.77236771455587 2.559513483298016 0.6334871659306962 0.17472522886245392 0.40808009444265847
P 8.579566634857171 1.5744667696366965 3.7519176948550474 -0.27476273910303 -0.36347891079351596 -0.4241931979544372
P 1.738393820697023 3.2077580406002504 1.7029534833529523 0.28026387142691733 0.4453220095132524 0.36653672378323326
P 4.829027512046136 1.1325005524555631 8.177228936492403 0.5730405306088646 -0.9258316226712312 1.5041740251089837
P 8.738382838116532 1.629184501226141 12.601851796682585 -0.5746739524472296 1.1151992840372085 0.1560001416491249
P 6.099982288292084 7.784933827912824 1.3565981121928061 0.7641318595341678 -0.5665135281236243 0.20536712211802693
P 1.939571263340311 3.319590627084017 5.975072263461673 -0.411058460344692 -1.0268291828322316 -0.5302823137057319
P 7.010491131219369 3.8626340359960896 5.935803765428453 -0.2079819340330547 0.9372630044366244 0.21491234260430084
P 2.325544298418839 8.21548431071375 10.28558481774104 0.20477216884650543 1.9656523326671245 -0.04806703071055592
