# total energy = -340886.4774893648 ev
CRYSTAL
PRIMVEC
9.14199966000616 0.00000000000000 0.00000000000000

0.00000000000000 9.14199966000616 0.00000000000000

0.00000000000000 0.00000000000000 13.38024058991049

PRIMCOORD
 96 1
Ni 6.408834427307576 2.4822997888021434 11.050406011793575 1.9706901522013478 -1.142632697657813 2.250734194307975
Ni 5.649609625131584 0.5356462258469228 6.215108137234955 -1.4028033978792809 0.33470903774967514 0.492944496487222
Ni 3.165280312366395 1.6540071778837426 4.653513778868554 0.09437285575563102 1.422160462249654 0.2024427493823804
Ni 2.706553044718927 4.7888903408036105 4.6754170962697374 0.03124918782226876 -1.610088305845311 0.9147717653126439
Ni 3.6663441812429953 2.7430204820549258 2.5110431504787822 0.6906541020599912 -0.5665811481367662 0.5345616578073761
Ni 4.880200635141027 4.757213311380387 2.1886057305497415 1.8460924361229045 0.4433301758942042 1.7928459180939382
Ni 5.448732462789167 3.000632895364304 0.6663585394669056 -0.593663863286171 -1.502313060640845 -1.6778219617468588
Ni 5.81130417618744 8.344223218067905 12.647966825905094 -0.22775294601239485 0.17281361366203787 -0.8789730104464798
Ni 2.2917165182722945 6.531190953079701 0.3136245320895066 -1.0780208752146982 0.9966752849566706 0.20904765629340769
Ni 0.6708847435844921 9.1108621821089 0.06094148509037395 0.36256591206094335 0.15232757789354412 -0.19758002197344038
Ni 8.32701797438118 9.014788905858207 6.921571715771626 -0.8876047179795488 1.1669571333357902 0.3707055104489422
Ni 9.039353459410934 2.3916842864520755 1.2048214154625427 0.9095426557032206 0.8642449602076858 0.5806463679805807
Ni 7.324881094628146 0.6023782536318623 4.625616052176518 0.46202081032517206 0.6744312124432256 -0.951157760140846
Ni 0.8598471375438541 7.337131374405091 2.1536302675865766 -0.8283323054714767 -0.41553989315481343 1.1699750942265077
Ni 8.003756860267137 3.870741013521326 3.724965426775616 1.0039203965548582 0.7751238397692973 -0.17701325356568223
Ni 7.723901961362751 4.6508918533162955 12.663260477426627 0.6987489632529837 -1.7148491897034852 0.7840982753537658
Ni 8.56659322201898 7.375180377712293 9.157021967668419 -0.2759559880801828 -0.3050251375319973 -0.3251969844941819
Ni 7.39896786127917 1.1110455237700194 0.31464752187087985 -2.506173807602361 -0.8976014241809445 -0.9691770795364018
Ni 2.1167569254579686 6.8999700843649485 9.249666993981533 -0.15514165030357152 -1.1675027214266152 -2.4826880657755956
Ni 0.42336509809134404 4.861788647476273 1.3873432705391742 -1.0243398407514746 0.3364936404539237 -0.05123745801873757
Ni 6.595770039903841 2.5651171652941995 6.9570298763260014 -1.1149072067180863 -0.9496356670693646 0.28215183247824954
Ni 3.959537257904519 4.572453494744505 0.06473907182122728 -1.9153702965831205 0.5526493685470224 -0.8152623596613959
Ni 6.124838202478595 6.069940493478176 4.507294805130918 1.0359699687912352 -1.4731963457805468 0.3597556963056578
Ni 5.47150518437452 3.2925003820499645 9.224364681042239 -0.48188232513578944 0.8396508158080894 -1.196370553500901
P 0.5157660330089026 5.736824303543574 12.666351387570348 0.7593159262027632 0.7392561793384107 -1.1852970692955587
P 4.059450174085298 6.782093138511259 12.558814043528393 1.9571604931460296 -0.3902482084675602 -0.1110390035574023
P 2.453621335324322 8.500487421222639 1.4198842189466667 1.2135151836009874 0.06768660471369634 -1.393262291158065
P 6.7571720469650245 7.918608273817527 5.689720149401249 0.10143207659525758 -1.3066621373693175 0.6943318080218945
P 5.136670298471214 1.28738555855921 12.7423917995858 -0.4324796063329455 0.05747109763327522 -0.40496186052865096
P 4.192749673658174 6.615242499549285 7.812575702948174 0.5889453747645792 -0.5303108529508221 0.9731877433576916
P 5.332016550914337 1.3364141036664956 3.795586461289744 -1.6046445091219204 -0.39853076019132655 1.4696973314883526
P 0.5384071097966525 5.579984154399329 3.692023144575431 -0.09409106284915408 0.12728811842641305 -0.4503197198381599
Ni 0.7663281360466534 0.12029409060967831 4.780800585150908 -0.2065171765620701 0.24678450872254917 -0.44446866037402166
Ni 2.092759175894921 7.0531168655764445 4.538096030970087 -0.5354242629179876 0.28871200219427057 0.33717421146071613
Ni 6.265067337925295 5.661677064911859 9.016101697034303 -0.30784178104518595 0.23203743232036167 0.04911398391783155
Ni 8.967488198719462 2.828013654507365 10.400273607831222 -0.32616423350345763 0.3247318719323053 0.18424319565521818
Ni 2.472307582984082 5.530836763294207 7.062800071800131 0.02743444206186888 0.04448445556562017 -0.3389639563712872
Ni 1.1466810391211661 9.002940874073937 8.82367997033793 -0.6140611959956006 1.3034629137057294 0.14424942887109996
Ni 1.8629841520786778 1.5135220664417035 11.336944626776262 -0.970048940618394 -0.06836923260301773 0.5165155989389427
Ni 4.322163823301794 7.098132072756805 1.6532355930977916 -0.08702515714130818 1.104701469829678 0.3097721652986794
Ni 6.178062925509476 7.8431502071914725 8.112172750493093 -0.51522670492419 0.20866559036364063 -0.7450715004686073
Ni 5.28481640577376 3.4582082710327455 4.682094412948157 -0.9817757421370188 -0.44317179593946904 -0.6632039762688384
Ni 0.9426133188368427 7.643050114834906 6.745983153368752 1.0773863269544928 -1.0893866938494787 0.08669091373034102
Ni 5.492321517995495 5.123789220705753 6.738302959308594 -0.6628741037332455 -0.06817511431434066 0.574136848996837
Ni 1.049062764898605 7.814298055716813 10.978233579907695 -0.6748287049919603 0.2661112340756191 2.5501712962292338
Ni 4.996057199031504 0.5358820894426282 10.526169001738912 -0.3442005221798782 -0.5974359287340936 -0.3345056634896174
Ni 8.276243307305688 7.3245428406343045 4.316706963601153 1.4011586631870063 0.3224129939911415 0.12919664830303557
Ni 7.873327948641994 6.15530848792379 6.945883950128947 -1.8523836684482549 1.1875285297292386 -0.3569624498312368
Ni 2.65468133766341 5.2859225877536185 2.287954585340792 -0.799304550780559 0.8379598012589117 1.1246594010088438
Ni 2.583364596961949 5.727426327714694 11.45822239656803 0.2736466232207158 -1.0978283968589286 0.08146797476850487
Ni 1.408270222358135 3.255712974719792 3.2938945370245793 -1.101004480594065 0.37956681749431403 0.8664144570551788
Ni 1.7474567001822083 0.973741828270053 2.4985862615055985 -1.2757297094565192 0.9915227942214537 0.09093477660835952
Ni 1.243339403361205 3.4983416503019944 8.402295943610515 0.9140719110321418 0.35395297358095174 0.1541134661493733
Ni 3.6851949848997587 3.400723376079434 7.312341927656459 1.1440725154281328 -0.3147055980445548 -0.7388993102196243
Ni 4.496209216132765 7.634758320985884 5.570675770168817 -0.9662236533350327 -0.44751850294393897 0.8429623966798256
Ni 8.308249448722918 6.918107812034697 0.364333376766197 0.4089563264000247 0.9726856069102926 -0.690189760829063
P 0.4952678409821348 5.629945183489635 8.059708641848363 0.33360963403790933 0.6939790526681661 0.5788957038380611
P 8.79507008185886 1.673479637529187 8.396555681915034 0.6317187611763636 0.3855806277885617 -0.30896561023698405
P 2.2628369407981355 3.572986078942865 10.551724548073594 -1.1719599858670204 0.21117318727684276 -0.016629638136881036
P 4.109987149165119 6.2177666307865485 3.8847392436664454 0.08114941508682152 0.456978105694942 -1.4230919729249878
P 7.171496621420979 4.4148454176142415 10.462625703495911 1.7761574016946637 -0.5892924736913528 -1.0932572325484784
P 6.835308719542307 8.224197902253334 10.242012791912844 -2.069819548805358 -0.199908670106617 -0.4840117127739665
P 2.7116359966263763 9.0787554786935 5.750560158293472 -0.3176248285738788 -1.9293005335109676 0.4844624271581398
P 6.89065438653457 4.30227997366384 1.333672417916416 1.474690156717254 0.5614276289602848 0.7855095538789956
Ni 2.967538855966882 1.7630438098983972 0.3581305298791388 0.2386965895080921 -0.03310423875313653 -0.38394103530260976
Ni 1.4512467635756157 1.4147519002401163 7.054089574358733 0.3070611941254196 -1.0966040375335244 -0.11171828901261405
Ni 6.811548661974932 0.9524958206569015 8.782054616695847 0.5575408923113688 -0.2777981834952442 1.4089146529833414
Ni 3.2376392410488792 2.0081499674354903 9.249399133386412 -1.0668180645203436 -1.1025263165552304 0.3337068217374059
Ni 6.635976555171759 2.359047347046331 2.5433966878896874 2.0043325228461413 0.4422282010792771 0.19244964272541049
Ni 4.184860127801827 7.070276399264002 10.201416827452018 1.8609130460755048 1.1294357393515646 0.3261776032398963
Ni 7.364703645903054 6.545708448815366 11.414389249966147 0.5161008799990273 0.6699906601733687 -0.7618546334642169
Ni 8.061415453217286 3.888979303189242 8.15496279491397 -0.27787608792103113 0.6469144950801956 0.7643378048973869
Ni 3.1769455041539945 8.907297271815422 12.48856783100744 0.6663111544392524 -1.0352883693431785 0.17782340817180342
Ni 0.5354981254496194 5.373731496154789 10.502940094361865 -1.5067785526113664 -1.1686388919135873 -1.1644978731620204
Ni 8.702708457540586 2.276659644546451 5.671977356124311 0.5632284296144494 0.7700109440227642 0.050445558245061514
Ni 4.096804385405151 2.8200235466528496 11.473235388694672 -0.1396489539846111 0.3325842780971885 0.5192358260835832
Ni 1.2024198121062712 3.6212832640634667 12.62302653615921 -0.021202087998911875 -0.12447147491322433 -0.8476302344691402
Ni 3.551154983340367 8.715360985310207 7.838814156670423 -0.02152321878375648 0.4490454811114266 0.15605079238140224
Ni 5.830182405843704 8.182153845018874 3.4090041995286566 0.6495750726314942 0.0854326158432077 -0.5165119993945169
Ni 3.4070130719649105 8.710470015399263 3.397349978140857 0.886941373363937 -0.08167957655867868 0.36691904682331644
Ni 3.4954527783545957 4.819324058249472 9.300846651649652 0.6345590588386363 0.026545611699012348 -0.2389310741164014
Ni 5.469009418419963 5.025421302496841 11.464511178253522 -1.9900202199885273 -0.14239232105770316 -0.10106646572572273
Ni 8.324522208426622 9.137949927615685 2.2174140004251988 0.5376125288185579 -0.517457908247554 0.8191079586597313
Ni 5.197199479369094 0.7363688883921531 1.7054190423476325 -0.8960605620563858 -1.4133549481428822 -1.156971482877988
Ni 5.942519299798269 6.091671027082505 0.20310781030180136 0.43765960787198815 0.023218089987676143 0.48331160138314827
Ni 8.36717877964993 0.3243188434947839 10.87540619417998 1.0272223045055924 0.8083874869184337 -0.3085105249774364
Ni 0.3295526383994867 4.874925701237073 5.924556184325342 0.7433781719265842 -1.1969243691218419 -1.4067672676230354
Ni 7.616081215325957 6.018772720409841 2.405473164801007 -0.7719557264539608 0.2821243216744238 0.7228833944073421
P 8.883464078249377 1.718503986709381 3.4133667618492223 0.041517145407180114 0.34485023994873515 0.5815272279236371
P 2.087429389991966 3.524067237833582 1.2322346161634015 0.7559166707132272 -0.8305753358693825 -0.2745639928286626
P 4.891728696931123 1.5018477326542705 8.075858898754298 -0.01577577477701799 0.10525556410640582 -1.0244018043376615
P 8.881672246282003 1.8161222609319418 12.383466829921126 0.9871943420494288 0.09405249630173479 -0.020521774102435622
P 6.747536379140471 8.09957416052249 1.2135063153044074 -1.566265909343722 -0.22563667100034043 1.0954102743357392
P 1.9830368938927505 3.1512930526210754 6.064540314176503 -0.10988560667924946 1.5890710801636956 -1.2581112250438076
P 7.062286291409487 4.048616904282551 5.635650705585749 1.6628126328222201 1.8869128125733763 0.20137779845297576
P 2.7811060533614613 8.990873434293661 10.269723107608293 0.43819054067479374 -0.3215264776211301 -0.6906821270844492
