# total energy = -340888.8785626924 ev
CRYSTAL
PRIMVEC
9.09379827499845 0.00000000000000 0.00000000000000

0.00000000000000 9.09379827499845 0.00000000000000

0.00000000000000 0.00000000000000 13.30969299068003

PRIMCOORD
 96 1
Ni 6.681268056237609 2.111061581611103 11.267958858752472 0.3873199790771717 0.40409205632918793 -0.6504420486174798
Ni 4.609982747690811 0.5370060583827241 5.9860344571181745 0.11567470255720079 -0.27612722355072444 0.14135359538054365
Ni 3.1616953621182717 1.9607047231645511 4.59329471872412 -1.2847974760857421 -1.7105631607336218 -0.007122469977394185
Ni 3.6307261887844042 4.216748728521474 4.951751325666703 -0.12131775977559106 -0.26892453515469816 -0.4335494423583566
Ni 3.951437167787341 2.5634052886903587 2.348721630340977 0.6212579708543559 0.6652911978151704 -0.6438127162264202
Ni 5.078349727092724 4.768433086481952 2.6950261948290946 -0.05043990181810668 -1.3728914408111967 -1.273546328651955
Ni 5.390576192431053 4.935668034276321 11.33224473656367 -1.2190222294621456 -0.27003088084499943 -0.031732040995958256
Ni 5.624977933287369 7.685350684066182 12.316536531500189 -0.16819539816373613 0.303431053572 -0.5406672564844817
Ni 2.1817112993606655 6.497209581884264 0.30442762405347545 -0.15543398473300973 0.6807129316868792 0.40633354406519695
Ni 2.7870672539433494 1.4673207050795327 0.43547743966902036 0.7138932750935899 0.20058204202455776 -1.9635304012281152
Ni 8.144514739750427 9.008971190937633 6.677445932879373 -0.2625055190022318 -0.06028414160203812 0.38126091736728535
Ni 8.990901814033478 2.6394203473425133 1.421595269272048 -0.8913407879832133 -0.6472777919568852 -0.3429635644489835
Ni 6.915878954451145 0.8865771151627251 4.836968496163967 -0.34885293335022505 -0.6249055949092722 -1.162094148816534
Ni 0.6256769559062997 7.484868810272019 2.4924527474627345 1.6848104772495498 -1.397141314497497 -2.0573103605947534
Ni 7.670464136511023 3.796688004839175 3.5693403232000467 -0.36195630350140245 0.3695390009446668 0.984015687211131
Ni 7.9100675299034116 4.271929895634918 12.799318999713607 0.08227812937462604 -0.6496558052707585 -0.512433201339453
Ni 8.457741522884156 7.239427198473758 8.702742085472627 -1.0849309720709703 -0.07889250073184478 0.6892932171567226
Ni 6.911768557691871 0.3817576459166726 0.10106756314800637 -0.09739493041140647 1.043981783352118 -0.4323541364986748
Ni 1.7492739164098432 6.7285376189692645 8.988101833586176 0.7610449930787281 -0.4909878869814835 -0.10692241028586746
Ni 0.5041347062461115 5.010409961188877 1.270958321842784 -0.9698404241520135 0.512933023794007 0.23800496275770622
Ni 6.614055794184963 2.2348827370851723 6.915956251735334 0.06422564274828939 -0.06129355670315896 0.3459499007708171
Ni 3.5971155108590103 4.042347867792795 0.06277266980070527 -0.02825308130842231 -0.1852263855040939 0.5264523984366805
Ni 5.941778579090111 5.728938233623705 4.54844137815826 1.196926683114687 1.8827260281855382 1.0998991633450284
Ni 5.402407223811177 3.5116247145449884 8.949024873598836 0.9881561917420659 -2.0193323386890834 0.31072630168183263
P 0.23071329633073726 5.890334963012202 12.450326308495312 2.15140656565023 -0.7876916491319789 -1.1029191811182748
P 4.062699788030088 6.0021704925377675 12.687997269782954 -0.66437074288343 1.5583091163904905 -0.711486208313994
P 2.359176770062521 8.488151183864273 1.3074326368024598 0.3643685124873209 0.40970374608901056 -0.26735719066757824
P 6.326546272191119 7.901446609266704 5.7513708148754255 0.6075506485705923 0.4125615272527798 0.11191086463939434
P 4.742206572646228 1.176728385516234 12.588028237450256 0.4525573509194271 0.04236586656072058 -0.2686108605690213
P 3.876840741645024 6.443638017041597 8.083589020351955 -0.42346788975263844 0.1379517687878463 1.5995339273682323
P 4.990740075812085 1.0930563488302099 3.5343892194288187 0.7398675876701645 -0.4196086639075483 0.6753002453117402
P 0.19149992937129742 5.679868098860333 3.4435367197314606 -0.05099988808663474 -1.4832120781453357 0.26999925627611565
Ni 0.7348816496299667 8.911176485740208 4.185486069275825 0.09880620893663629 1.6396930160856211 1.424662145625585
Ni 1.7302405969028494 6.584100823111844 4.600482456773966 1.117843663638591 0.10864993449993547 0.2070311400840112
Ni 6.175862037011528 5.778835904017816 8.962360928571128 0.12358033055752266 1.3104393450235625 0.9506232277936144
Ni 9.024639805132832 2.4924463818040365 10.077007772945295 -1.4255234651846158 0.17870735343865352 -0.44163916134502645
Ni 2.392150882118115 5.275330488602992 6.738351645921938 -0.0787965985839288 1.328295142258061 0.2778048683634635
Ni 0.673867720389535 0.03000771510233054 9.013244366683614 0.14092884913829923 0.9274853562245704 -0.34144275692908294
Ni 1.3674344263099107 1.2083384278508305 11.432253781608182 0.7879315330569269 0.04012823547945347 0.22659620670013234
Ni 4.301393801608477 6.938549793214134 1.8353267094489163 -0.19999531628315234 -1.2362748458950061 -1.0195267356335473
Ni 5.293318021323888 8.397977081508158 8.123743595418881 1.4113867686729176 -0.8227890070557442 -0.6756563430995782
Ni 5.399206206865901 2.827116340951854 4.924879152163039 0.9965688412857933 0.011064228233961589 -0.5847591045973736
Ni 1.0354744190078093 7.702165116827019 6.57493518396655 -0.5609177792034017 -0.45273321437565894 1.1206839613008635
Ni 4.947680941619245 4.961876360515765 7.029474133916798 1.5598011275549848 -0.8107721851005264 -0.9551393704964131
Ni 0.8827950045163043 7.718706735643656 11.189658528627739 -0.6778842039888325 -0.8951637612737293 0.4715596030535427
Ni 5.008227449635282 0.42113924814170217 10.406010477092273 -1.0865595088133289 0.6730785550700731 0.09015804634333505
Ni 8.201960262600728 7.244919852550311 4.649794486567862 -0.2899294195411394 0.21953415764702838 0.5810963110338057
Ni 7.405716391261569 6.098282845079295 6.864061583269683 -0.29881386651496283 0.6165291979201188 -0.9773467598313879
Ni 2.6379835272363956 5.311769337749921 2.546623593602826 -0.4957364574100624 0.6398035950670272 0.5821080401277717
Ni 2.188686242534036 5.618621368387517 11.321530423595137 -0.07422517716316249 -1.1096529002976825 0.396000280459989
Ni 0.9875501028100756 3.549163913266857 3.526310289161254 0.6798019898368357 -0.2800746382342467 0.8671958153058937
Ni 1.7682072041372972 1.3610596738137797 2.4454832800696993 -1.1076623522302151 -0.7173074429814614 1.3479725660823303
Ni 1.357276653787545 3.725629066173313 8.267662044782323 -0.4657818200295011 -0.8520070233805972 0.1277213493090897
Ni 3.639010638889933 3.0677655211303416 7.098551533967957 -0.09810532621486974 -1.4583520816788627 0.4098652113675393
Ni 4.288316919883176 7.014255662729529 6.041375675078882 -0.2955058851876523 1.708948250838018 -0.7360767531691647
Ni 0.5802898093896223 9.013981873712765 0.08344196359308272 0.311115052479819 0.5426434063742461 0.27887573283013906
P 0.37708252429290506 5.591085347619636 7.534550957650213 -0.4686501427162315 0.9969388230307022 1.5320167583528648
P 8.731701285649416 1.7795835456104214 7.938366520335238 1.056982309376844 0.8740436914656625 -1.0813576528974151
P 1.7907871049188857 3.401207817529261 10.623770567352413 1.7904967011354713 0.9212329475569555 -0.6659727972632273
P 3.912806713288674 6.008599807822739 4.174638077474635 -1.1854829600541197 3.1227395151873707 -2.2751558176854494
P 7.11536051044991 4.247140201905312 10.477655965738165 1.7066540554872025 -0.844405042663623 -1.4969332843861705
P 6.226387179477298 7.81712891291274 9.97526908749456 2.147019235215812 -0.6649754663469645 1.0003807588327158
P 2.493710419745495 8.893452673165372 5.512701354552014 0.6164731478712029 -0.12624476476356322 -0.39134606951742923
P 6.885778482607787 4.207163865281927 1.5763198789652362 0.8321704482706441 -1.4807895847467722 -0.14030689928358417
Ni 5.880422723039616 3.0382106771753823 13.256827074756561 -1.0548387806712802 -0.4341269121283814 0.7642416456391548
Ni 1.787231429846151 1.234028407596295 6.985619292386709 -1.0424090395483596 1.428876697927565 -0.3911092709162748
Ni 7.292725949372225 0.7573815249879237 8.983576759631719 -1.9622787882092012 -0.5187745701764485 0.3803353202292224
Ni 2.8182953567560665 1.9663155966169235 9.256052414540536 0.24084217509618522 -1.2228043222123974 -0.10469300673471646
Ni 6.710986588559089 1.9445177624753736 2.2002653757056825 -0.8503342636638647 -0.031088493874688396 0.49704463469852456
Ni 4.07500369691349 6.908876729883356 10.338716370856366 0.18516725013138433 1.180081072312258 -0.02066138500409345
Ni 8.190492983146205 7.1735335371514095 0.2688235855757966 -0.5580399434349744 0.9590986122544775 0.9114180183490626
Ni 7.771087012929984 3.9835109938270765 8.17235085585693 0.6063874815004267 -0.046564220912784324 0.10147809934184458
Ni 3.333568146964035 8.475419866468291 12.310480971318771 -0.8321200546486831 0.13747482915142775 0.2098315856472838
Ni 0.1567734424141274 5.097182983040638 9.980618968940314 -0.6749323204493602 -0.26149430412889807 0.4853281175925448
Ni 8.833906482944736 2.242994405026041 5.659733520398587 0.4053485544441084 0.4765799390862695 0.3376192694179347
Ni 4.10434028971309 2.849659866540883 11.052262151290295 -0.14680150586899232 -0.3436407930216663 1.203644718564811
Ni 1.2006996374132413 3.3158261467929186 12.719660965526575 -0.07907144951187027 0.5030162789009273 0.07796253271840767
Ni 2.9983980289185173 8.49750870215032 7.890944181794832 -0.19896661790832185 0.46746049328350464 0.293021685313218
Ni 6.035608388298502 8.065225913767877 3.358687945566122 -0.6102179109901104 0.6669397891621869 1.0618041562455196
Ni 3.158949035079996 8.27344660977917 3.329113095255255 -0.3074016081839738 0.6503839416860347 1.8475001151037087
Ni 3.5935325543918553 4.719390233113 9.479801680255669 -1.6828775218928953 -0.14409439135047442 -0.4365350073492417
Ni 7.4626435676178895 6.380481588959385 11.336410605491599 0.21488714579332024 0.08403753526789398 -1.0325066928329831
Ni 8.20838048408756 9.026558596540369 2.124466749449259 -0.9876921076214539 1.2444625239121214 0.5815655373607403
Ni 4.699665784947367 0.14739318963273038 1.554026432825057 -0.09761861638643834 1.3562389198561804 -1.0486714755183038
Ni 6.030752300091748 5.63821850337919 0.2684616524098251 -0.3922045608629826 0.414401408674996 0.6401530079866459
Ni 8.089078946289064 9.106347581420618 11.090327880924468 -0.5465247437065233 -0.20026913876982927 0.5954754625736132
Ni 0.14619098951862403 4.739969498303791 5.513779879011416 -0.8357486525402058 0.5246055750359288 0.26768500632064224
Ni 7.39767747370582 6.219703237844406 2.5631006464526687 -0.2745853329849013 -0.6448187888934315 -1.01263360805814
P 8.655076942521882 1.6275988972968114 3.5795617523093926 0.04383242380391806 0.09650532871760155 -1.5538307689041626
P 2.100558244759418 3.528566460479785 1.6454372917282107 -0.2019727517244973 -2.3987695725840688 -1.7520515097853955
P 4.930557319721649 1.453398100127212 8.129852809009325 -0.4019426140863529 0.3103144109553946 0.5515615347994823
P 8.52638151124478 1.8649561225486235 12.510605458846031 -0.004332823047398989 -0.6329261512209035 0.39634969337960774
P 6.254778017270338 7.646947574521016 1.221056104549603 0.8190418813084862 0.6453067842734435 -0.09082859004779842
P 1.8561078569584157 3.390604448898036 5.761952358391116 -0.7160442599983217 -1.7902007671616071 0.3566210073314181
P 6.872501537323406 4.334122381114292 5.745528049570484 0.7910037442243475 -2.480171470001329 1.192469675784598
P 2.41744982854356 8.80077777632076 10.233223765533442 1.836236112154115 0.07541251260304431 -0.6904617835435269
