# total energy = -340887.13380182075 ev
CRYSTAL
PRIMVEC
9.07615477845999 0.00000000000000 0.00000000000000
0.00000000000000 9.07615477845999 0.00000000000000
0.00000000000000 0.00000000000000 13.28386995005984
PRIMCOORD
 96 1
Ni 6.617143135000577 2.2414562761040147 11.325255964011728 1.1294177416294355 -1.350376290427816 -0.06859497546057863
Ni 4.724392727952472 9.543667578630359 5.747983318800657 -0.6653115095301445 -0.48198516926224094 0.5435078112570704
Ni 2.8087885630104883 1.7661561993023531 4.501584925565882 0.8010099635074399 -0.7908782743900766 -0.23540994833702036
Ni 3.2082210614821562 4.172036096536426 4.982740029856559 0.8030907572958685 0.5798858356654722 -1.5809829038389223
Ni 4.209293712165643 2.729372208137006 1.9720832612970356 -0.5896205464547328 -0.4559977440595437 1.5021081437188906
Ni 5.390382817998918 4.875683153025167 2.5772168255078034 -0.29104604964408587 -0.31171849039177285 -0.7607290045002061
Ni 5.496510296574419 5.141060844470396 11.842038606521875 0.04329300636068028 0.2618748273967683 -0.2534038138112797
Ni 5.912134655285434 7.852071991360653 12.008114087833302 -2.016208448348121 1.5692427325838587 1.124485851545457
Ni 2.014997136624213 6.450223571288782 0.5916427676526023 -0.36136649243620345 0.18549969377013859 -1.9928070387050454
Ni 2.9079637069764934 1.6945725660581068 0.05134743840699888 0.9837259238848541 0.0685055010705659 0.07263392141664266
Ni 7.910077696960245 -0.07579496909125176 6.819008617703159 0.5072552566829392 -1.2021475651939943 -0.5333365271510234
Ni 8.656328224280543 2.5317933933666237 1.245477163518242 0.5589143756201278 -0.2732537586576713 -0.27490826354195885
Ni 6.94324030234336 0.8910932519927507 4.709410719153654 0.10390264962293719 -0.01560479641679248 -0.8314757361964648
Ni 1.1022899294890953 7.471436209568183 2.637526059206468 -0.4131803917837013 0.2264802499475583 -1.0321043151882419
Ni 7.635151890620512 3.972614822332979 3.677107927271977 1.0405300773580919 1.2796506417774802 -0.03371744685710322
Ni 8.020189607511684 4.087001601815322 12.484951665265312 -0.6991724239436474 0.04473436679289715 -0.8618594906946448
Ni 8.482120508230071 7.43496821941028 8.970424899690329 -1.1300754298180926 -0.6616147774048476 -0.06974091613956376
Ni 7.318212563513996 0.4592352827301109 0.4013757032234865 -0.6891407507392584 0.38293419130465023 -0.334096858086973
Ni 1.9452196581936605 6.577670937589747 9.065670068609453 0.2619002813180651 0.4904816367690263 -0.44532689460925884
Ni 0.17660382092893984 4.9972582471429146 1.1471388410287326 -0.1870207584003553 0.07251282245774608 0.6264027482800889
Ni 6.423249239096325 2.215316950157085 6.819194678877434 -0.12004172127664488 -0.36011462230697333 0.2464034712340466
Ni 3.5318404385528868 4.406382414574519 0.13693648618899065 0.5046849248526019 0.4725551341975926 -0.183453095653755
Ni 5.951470710373626 5.738789173945018 4.766810137609754 0.14982666584856133 1.2603352292783196 0.43925240628040485
Ni 5.516922568815615 2.9083539816347286 9.05174815469626 -0.6837943988256805 0.5478421769663663 -0.2039864397204164
P 0.46201803180487777 5.970412645530306 12.163614941137519 -0.6353293613457575 -0.6550486941515558 0.6255558268987613
P 4.0240221633619395 6.494705806172774 12.632097010421354 -0.03397789960734148 0.15401679267050894 0.3631194705715682
P 2.285856825594423 8.591987362600758 1.1497137461576021 0.9463978768583572 0.3341246260011149 0.2501580531804724
P 6.40726613041836 7.88503658574928 5.769982102908354 -0.5006832598923765 -0.8165566529927873 -0.5378976641591446
P 4.988899108532804 1.1927973455803373 12.49788972399356 -0.44841710349880837 -1.5034374040532752 -0.9314651668079248
P 3.9113144725254934 6.024560985321758 8.033021475228269 2.172074121301911 2.789629960714331 1.0421547574457084
P 4.998156786472341 1.3298926644790747 3.6274931268244464 -1.4645988339195228 -1.042546336457172 -0.12485919726994628
P 0.1582654500692974 5.6817727692232785 3.445357389518891 1.0454478263746834 -1.2536110231806088 0.6653981557066798
Ni 0.7743611940990582 0.043518347239699905 4.305568117043926 0.3022066942465957 0.5316511690288004 0.027076544501817883
Ni 1.9373597080998963 6.508846455417676 4.6755503082820535 -0.7495997273562639 -0.20375375488432004 0.707986936911484
Ni 5.920666240837557 5.642636389541627 9.048467124720629 -0.3975092609053476 -0.45775200774648905 1.3736946534387826
Ni 8.791817063772125 2.3551986485925265 10.00377689507182 -1.5299475345286617 -0.3938384969219798 0.2351991178777949
Ni 2.5474497604702533 5.071228909110787 6.9808065072372285 -3.4504430681534894 -0.4283804965629074 -0.1687664401758577
Ni 0.8609150371408273 0.2377144791002136 8.754003987466536 -0.47656579801888255 -0.11152751315804663 0.8785832312072288
Ni 1.5227700310409467 1.28827849452537 10.964599521874458 0.3233175080832819 0.3476779392055173 0.00924877229177762
Ni 4.023876944884457 6.897151588052213 1.648395813064985 1.0670042123892205 0.17667309661744413 0.2237124573944341
Ni 5.4072190852320965 7.664059443794459 7.788134110955882 -0.23705596858087566 1.719465091208942 0.5222499303195587
Ni 5.380970845427055 3.277208914441395 4.6286846751363715 -1.0907149257425988 -0.998231573700197 -0.7917892162401201
Ni 0.6778843909677831 7.330746733351742 6.895829192291634 0.5636318357004552 0.14556686213094286 -0.17102489719273128
Ni 4.943835999738879 4.380560754047084 6.94673371434231 0.6648235141501324 -0.033544925834980935 -0.10542937068010874
Ni 0.6989710215137902 7.828029257182384 10.897821712619413 0.9932600886275346 -0.48631362143426565 0.5719457548827893
Ni 4.814400955527367 0.5532379260512704 10.237307266789557 0.5259052676839587 -0.6660136778034917 0.6873024119789389
Ni 8.404392318157328 7.296611314988409 4.797124494784318 -0.7195692424324446 -0.5551371679658826 0.7452918440095294
Ni 7.118936507788033 6.096779949404992 7.232973855308932 1.2635293107355852 -0.012273418050714347 -2.3350200981412494
Ni 2.420102231872558 5.0874661501243486 2.6773104763438877 -0.2936804019431394 -0.3088990186651067 -0.8778859480298881
Ni 2.42501243164245 5.846632045785786 11.28738389269966 -0.131608857288954 -0.7800888970840565 0.8698733621380567
Ni 1.052679667118986 3.32227202323532 3.802720095063751 -0.5979748319566992 0.3311526878569845 -0.6206416774265957
Ni 1.5568509924752238 1.3767256234673229 2.1309450147394973 -0.0908769267872306 -1.18585551290219 1.3412653292654835
Ni 1.210114649020178 2.7870330198525757 8.163257036296907 0.3644695568415594 1.7755094836980194 0.4686383156416897
Ni 3.3773733592852526 2.481211982428347 6.909512403332464 0.40552184679717906 0.2990172407750205 -0.44658210717259866
Ni 3.9568949221454512 6.966375421037362 5.9972816943265865 0.4891976278502801 0.24851100449535266 -0.6917547913233376
Ni 0.892531822535316 0.2457178324404921 -0.4162233849306327 0.024861539128370087 0.48086956760055893 1.4320800353562109
P 0.4431169393449889 5.382876837944019 8.088376035998314 0.8672595786642936 2.0077778010822644 -0.3377048871532055
P 8.553486313758093 1.6197215170704942 7.832302310882319 -1.2629441276560764 1.5823970105776297 0.13983921561854626
P 2.337436613565395 3.3540294890298705 10.751406090312724 0.1875087537803674 0.6297253848954187 0.38529369267576224
P 3.91806713172845 6.074661360053372 3.8966637433784332 1.0706214974268335 0.5316051462822136 -0.5764112468533106
P 6.760192411476115 4.084487506923899 10.290296581607597 1.3025905384031051 0.8043346570052987 0.9058873183388205
P 6.420326717236981 7.761673489127523 9.816049338767687 0.48011494882272154 0.35197708080150353 0.3450369020382445
P 2.335249260248308 8.45722461549659 5.673009741722668 0.10952256691287589 0.5585382232276316 -0.15446724994436623
P 7.07137745641237 4.009772600258927 1.2962065157804543 1.5784336550545075 3.845773576239963 0.13396193090216285
Ni 5.778361209059119 2.825152870191847 0.2824699062449713 -1.0844200938728228 0.3954312953303964 -1.6752279757674375
Ni 1.1277485438228232 1.139629230511896 6.435277867109335 0.8591783443180556 -0.8660159360651796 -0.06069474677689547
Ni 6.792694121967767 0.8017012953316744 8.81066006884102 -0.12418274002821193 -0.8067098421056944 0.9877504716632151
Ni 3.120427415688877 1.968445538436088 9.303424482790973 0.037368156235813056 -0.47545688122541996 -0.3192906463120759
Ni 6.494487978456551 2.4145022443346225 2.4305098586306633 0.6147325110310123 -3.1461802627088136 1.8310944200521755
Ni 4.1961695922631215 7.052126931991038 10.171034091743763 0.37147529873543117 0.5360451843314381 0.0027806480689306946
Ni 8.748224292062716 7.582310517126407 0.129321592275979 -0.5421903779972275 -1.259917425014611 0.8398732162315407
Ni 8.018773727356225 4.089107269738825 8.427898651584394 -2.198987657863303 -1.5520633925910947 -0.6327058076799813
Ni 3.175519675583967 8.745519597919595 12.189624478070195 1.1476106104883783 -1.3904047671046118 0.3919801035570023
Ni 0.49711915304347276 4.584719781078412 10.255971471608053 0.2538509286510273 0.8415858280472732 0.3792045490588889
Ni 8.485551294760606 2.637367226496721 5.585295966092004 0.8214574327285145 -0.2073345302570429 0.11317764716695992
Ni 4.533811628565799 3.1323171785327926 11.466822196785971 -2.544466532534973 -0.6888260477123169 -1.0349896071558369
Ni 1.241191403201527 3.2698300005542933 12.58452706765988 -0.16408086177473033 0.445335122139375 0.4488755311924656
Ni 2.853651996397874 8.693186489096682 7.845586171110071 1.7594359751749247 0.08455329856204792 -0.6840898185789122
Ni 5.571506564039514 8.084957048469075 3.6540608472799505 0.3994003072804734 -0.32162083710714934 -0.1833746770073358
Ni 3.325403296656046 8.558895702044333 3.33320152889688 -1.313978982745705 0.6316987065717056 0.461356951488928
Ni 3.5478961564695943 4.502281066642316 9.379249403193207 0.35812047469508 -1.0301178808858322 0.6425181657847128
Ni 7.460154549098727 6.415371136692875 11.36873437617012 2.4280811770639925 -0.8969743321199068 -2.245962741061261
Ni 7.934891904300141 8.516782343574281 2.856895814138649 0.21228004718777635 2.182144103943403 -1.00733122200862
Ni 4.786573464779698 0.27417157787230556 1.2041851970614526 -0.040309498252324126 -0.26128141678714356 0.4344254172054066
Ni 6.854348441814117 6.093694056758479 0.26879758658995256 -0.2934081221183592 -1.986471326295005 0.598126527043215
Ni 7.863353651830109 9.176718638340656 11.102632407568445 -0.07057832443919458 -0.5454546505707961 -0.24340582205830338
Ni -0.02510555191034744 5.1382200080046365 5.905198657754656 0.13905631470593469 -0.9678259648251462 -0.32350956948942994
Ni 7.35999010425487 6.392562759573211 2.6584347971175584 -0.09371465334634183 -2.7168268607096757 0.5193006178832476
P 8.595164016795698 1.5123324529718603 3.2645513088977887 -0.05901581641257578 1.1981572130876785 -0.026029591294542267
P 2.2462847904803223 3.249063758274233 1.4579181818435185 -2.0257724378874724 1.0904727278248059 -0.13590311378893372
P 4.659734200853193 1.195901390536535 7.962404452474769 1.6018173240857703 -1.3808706023619315 -0.1755317839241493
P 8.613352631100435 1.8069535153202165 12.225836520661536 -0.22183272387321798 0.782615263050336 0.6334925652473348
P 6.384312534821213 7.7132975838160185 1.388948481193965 -0.878527695378945 2.7994302346342046 0.14414427075180336
P 1.6072236518521186 3.285758652303203 6.0195591163879545 -1.5273358079374277 -0.43117297170638 -1.2615230789388339
P 6.874515657874561 4.102721502002851 5.817471267891727 1.3870875298059209 1.0591605479750856 1.5008670722229376
P 2.6889742429322205 8.730398723951685 10.101838394838628 -0.8859257876152291 -0.40713084315551173 -0.8571127200382787
