# total energy = -340891.95115052356 ev
CRYSTAL
PRIMVEC
9.05248699525941 0.00000000000000 0.00000000000000

0.00000000000000 9.05248699525941 0.00000000000000

0.00000000000000 0.00000000000000 13.24922975697431

PRIMCOORD
 96 1
Ni 6.559640188028304 1.9953401018253778 11.687158849377973 -0.598602438238369 -0.6317298169199571 -0.8148229581311323
Ni 4.555953693315367 0.13985186954436896 5.848898665969603 1.0616835715072555 0.0925622849094535 -0.33069657415617243
Ni 2.864731887647868 1.6295200552102251 4.890701078773743 -0.28177130921037924 0.9162797173167381 -0.4232935689583032
Ni 3.3825522411773514 4.53446308950293 4.978132712641331 -0.8344785275785306 -1.2839968345613177 -0.12714593642159394
Ni 5.040795837203441 4.60102602540556 2.751652748000416 -0.2911275536142986 1.350014021992391 -0.8443302235616298
Ni 7.3808636912535 6.162172647340583 2.6654929885370597 0.42775571849471494 -0.8731654026257673 -0.39904292394105473
Ni 4.965660196241678 4.463373910168868 11.39393974740298 0.6333907495621479 0.08709663380919194 0.09515652799919096
Ni 5.6890987363742305 7.779064483377114 12.383776681433233 -0.04062394416894939 0.8763314590585747 0.43216310353379117
Ni 1.6921180018669222 6.640614683016612 0.26139236866253884 0.14277258721525732 -0.7114944358441101 0.7075773601778911
Ni 2.7019500688798677 1.363965353088142 0.2853461541503604 -0.15021233132275422 1.5810327832402513 0.7109933278379755
Ni 0.5193764760212098 9.197145602931451 4.872496527692525 0.27469383353830756 -0.10445800790577495 0.1831954711169942
Ni 8.671123696304212 2.475429690110449 1.5237544196992803 -0.04236972321546251 0.08108205218399585 0.1076808857184468
Ni 6.903770476120037 0.8123185718981984 4.724291023271106 -1.483770007531335 -0.2556586712837275 0.47852163619367266
Ni 0.9854356149175296 7.500981139436828 2.9870391324033223 -1.3534554435737722 0.1297769462865378 -1.3796930371140625
Ni 7.8849061597777075 3.776733729133854 3.8290534822064566 -0.8135080959744505 -0.5104164280197403 -0.6931498718986514
Ni 7.655425617804132 3.9698504313793084 12.732814322653324 -0.23497183235833727 -0.5186922948752873 0.5567795886653121
Ni 7.910841534639809 8.646537141984677 7.028570775757523 0.1178395714190035 1.0588119063864152 0.09331278992223284
Ni 6.8942019975059905 0.794448962830907 0.6984120349514807 -0.5827150775841513 -1.1138515117600625 -2.1011191302495877
Ni 1.8787078610842523 6.638786080670314 9.440659310039834 0.6064206487312073 0.4434114227541009 -1.774240130067293
Ni 0.5059697429773099 4.863095520085442 1.2877108247501299 -1.6861474508934187 -0.10210570562351447 0.14003513367943624
Ni 6.095238559476575 1.9377119704563925 6.939430032370226 1.1287276575409462 0.7478153817623315 -0.6547118796374273
Ni 3.523689563856247 4.651421219771119 0.7888871149023641 -0.29011068231401005 0.19066889667590387 -0.7260152551681045
Ni 6.123862522936947 5.488359840190245 4.73654627998605 -0.2383245508806541 1.1900579810193117 0.5417720595128863
Ni 4.852277798284321 2.602119243756215 9.3820707098147 2.6399267078175113 1.4349578711246385 0.1513132776964168
P 0.18444079883608647 5.585583549097393 12.271502307867891 -0.1693166562523729 0.03553084591675816 -0.13768694516223384
P 4.050417564458788 6.271345638906709 12.680108933640362 -0.8418496232316212 -0.3384278813621591 -0.49451261230529026
P 2.2446636950023477 8.441778941633581 1.4406553060442575 1.0442916012830532 0.4100660145244357 0.8944083711649434
P 6.41398567440484 7.83948078069986 5.665741509770672 -0.17599072583843883 -0.8905455457754277 0.18478672686351402
P 4.762775860671195 1.1521100030365614 12.7203200802852 0.5506595918105032 -1.4661993456374232 0.08195982680325885
P 4.1360450376946085 6.04393811642473 8.287711046719773 -1.5054032695303945 1.4397583778370753 -0.39503894498798414
P 4.60772486568408 1.1231782550228517 3.60491662322803 1.2308120230082222 -0.25389078075002725 0.4844871097484882
P 0.20362482899586554 5.479289248353657 3.633733404658581 0.6827111930638307 0.42951152484355704 0.3080073600887728
Ni 1.4832861824275378 1.1249706474216985 2.6610283020162955 -0.5121907463113436 0.4391259080048695 -1.0707330833040332
Ni 1.862485804626002 6.693906673178287 4.962644812867659 0.5705979826056431 -0.6126013236206224 0.44713823678638476
Ni 5.933724088869374 5.4345156483299375 9.086493435011931 1.2882908339509813 -0.6408248372426899 1.1837076133212519
Ni 8.561154085894154 2.293601438982985 10.160131955677766 0.15995141298738905 0.16276291429425518 -0.15122714574051374
Ni 2.305994293498244 5.241036846609967 7.096048918081991 -0.7065602317672863 0.680446308289054 0.3834252720084558
Ni 0.7231714917700971 0.06682002652953621 9.114502734614316 -0.6543488398710537 -0.757263928769741 0.5750195087121065
Ni 1.3361289559848386 1.3378670334625082 11.279771593585926 0.2649655505069501 -1.465072945342464 1.1599228521968281
Ni 3.851163276120313 7.011015287984374 1.7327473734048233 0.6609568321058746 -1.0095703957517839 0.014788471163084209
Ni 5.738498157184873 7.730144844370203 7.782014688845721 -0.7969139390611953 0.4959380318979072 0.8757817572026917
Ni 5.181109383577816 3.1415750408879415 4.458855813975613 0.7393595376854945 -1.689962967984767 1.5931822741185917
Ni 0.9229010356688727 7.597218127275924 7.052206818956459 0.3067426344437363 -0.7375687643336588 0.16819411261215547
Ni 4.830388885049919 4.503521689405664 6.844723820059642 0.9613131034072928 -1.0910661384344307 0.5111571628405068
Ni 8.32677614852777 6.9889362725258515 9.349490809595256 -0.33527108090073227 0.9567612223705523 -0.02412491807266168
Ni 4.720328749771231 0.40530065757015665 10.40027451667842 -0.16527256808998633 -1.3616518633416357 0.9478261246644515
Ni 8.409733138139046 7.216714946969208 5.024677884344113 -0.7450586449528007 -1.3476560632831758 -0.5237972202020205
Ni 7.1304175897055355 5.820640422978491 7.0738567465376825 0.5091627581182974 0.5598628555763261 -1.032902385609505
Ni 2.2197965135900635 5.393788509933917 2.7842987313739584 0.7241653464435592 -0.7493202484426321 0.18466099991892715
Ni 2.3757437047766023 5.34791955899979 11.275081500142276 0.1090155453694703 -0.690569769876301 1.5772504333796837
Ni 1.2438750623654027 3.1367229079294465 3.9445079944067234 -0.3299283285315802 1.0820063422250075 -0.47240935264834766
Ni 3.580883175855815 2.757559495678434 2.5466075838157676 -0.15923716052918382 -0.18848294476817862 0.07558657628706338
Ni 1.2266572323522373 3.243469833016326 8.19590706169742 -0.7787565514258781 0.01656021835152632 0.2741040224731086
Ni 3.5361005233452323 2.2981638923618677 7.073061032942436 0.4964687075903966 1.3396902714688796 0.03373647302049674
Ni 4.067689709393131 6.742491370171272 6.255862265376468 0.12416577074734746 0.6397362321642015 -1.3796724682887724
Ni 0.8162654561704066 7.619170407918367 11.38027954472692 -0.27957250178684756 -0.4532962859679806 0.2419364366016285
P 9.191623585945106 5.685740263748109 7.952889430869122 0.841123543698874 -0.8380976123883566 -0.6651490158103512
P 8.556609737488998 1.544797830660691 8.039168683159067 -0.31610916326030075 0.6112898038980505 -0.5647577217747822
P 1.9429714653237158 3.2260890582396295 10.415881909278681 -1.566106500947722 0.5617171351762454 0.1491368388703883
P 3.9380037825957563 6.233479086359353 3.9609762785076437 0.694842429109726 1.330397019092412 -1.1955226036783089
P 6.909871852265606 3.66987817420462 10.323666941352757 -1.034077893974845 1.767092463278918 -0.24138056409815845
P 6.4095590083289 7.803723457591552 9.9368822404119 -0.758489830757042 -0.9118353083921393 1.4080898430892008
P 2.4474846631647913 8.701476684755391 5.737737748288393 -0.07663918592129382 -1.237267805935895 1.2394784404339687
P 6.827430854405515 4.091407224973831 1.6708998779090576 1.55041402991313 -0.5980231686961313 0.1373195345204861
Ni 5.320182739251979 3.0608449630449295 0.3613716545707419 -0.3939711658451021 0.09794977447361196 -0.4114574955553237
Ni 1.3773358761845904 1.0788663318291376 7.009001109657387 0.42365018096677365 0.08833127754724142 0.02677958208668936
Ni 6.833568440498535 0.7446394643653765 9.066501017775298 -0.6905481726097463 0.05182881174583332 -0.045756894520140555
Ni 2.793289661326154 1.5380265704872698 9.24184135156815 -0.8910250565150075 -0.7547619882834936 0.22404053015781417
Ni 6.220452557763695 2.0718245633297063 2.3618074012512253 0.05998897895912249 0.5430666099545938 2.2597793352293793
Ni 4.370305292731774 6.733927717599003 10.538888006019949 -0.07559351826559885 1.0530606057249348 -0.8492202046640795
Ni 8.028885963331541 7.197360730056407 0.046531592972487885 0.5030674438538368 0.28829934013688413 0.21027638649418626
Ni 7.67030790620668 3.714416409569906 8.140260519702716 0.1639098834145048 -0.6259049827080639 -0.020219155260352277
Ni 2.9052598713329054 8.30549375191318 12.51220159681061 2.1243331064722057 0.13992483335381709 -1.1902469571016663
Ni 0.23891594903073654 4.794052202782387 9.978816075306739 -0.26596493830574197 -0.5391891292770585 0.9786734490626113
Ni 8.770375162268643 2.3636043198935033 5.860889590068152 -1.1181185145665324 0.2917093942596976 0.12818286232654055
Ni 3.67379790101624 2.5014646423280427 11.495309495293318 -0.2818129610815921 0.48810028102104325 0.2126939947967434
Ni 0.9735678046403164 3.456040329530073 12.54329779443323 0.45132219296074527 -0.485008529469597 -0.46220850085594595
Ni 3.0859656140893743 8.462337139299143 7.929836367824155 0.48644397636454295 -0.6473940058197754 0.4578643649546372
Ni 5.7726260326578664 7.808729482826716 3.541863336482131 -1.3732220846777383 0.3669113335138326 0.33129229875864236
Ni 2.964707552561326 8.677677696792925 3.6220348758857033 1.9313077937489835 -1.569710930469529 -0.3204221888133579
Ni 3.293720187592078 4.3049644425556295 9.155230778259023 0.32607090245870296 -0.043721095037034384 -0.00981364365631213
Ni 7.1470922705069295 5.881654184434187 11.378650097091603 0.04598109471580468 0.34222334384884934 -0.8862726294316865
Ni 0.660642344013558 9.13576974200124 0.2999622994391388 -1.2410072183736691 -1.2022216129650392 -0.05778631488084887
Ni 4.547435303177413 0.22595278784311687 1.4872792343827466 0.2691171107814785 0.12404004380276056 0.4035595808644856
Ni 5.880214839022991 5.544711570911567 0.4216159546430945 0.34370224238722097 1.4483510046020929 -0.243395023425026
Ni 7.923125759312714 8.89564347547694 11.065730067956963 0.08216140129110366 0.4617300185576306 0.9720253476184745
Ni 9.180307977366525 4.846674308916209 5.832324467772388 -0.3578014007927644 -0.03334900777409095 0.05371934390032684
Ni 7.976082807460462 8.769922537925499 2.512080493672122 0.9983778694700741 -0.25037608272854944 0.5825980923903128
P 8.540577783254868 1.4693634576324546 3.627533356406206 0.5012995533201366 2.4384182973239423 -1.1657345737825988
P 1.9563781983676158 3.2497341539254267 1.2886359889075145 -1.146976062228173 -0.731764498947056 0.5273227168567757
P 4.733454855722382 0.8486018444932393 8.149800030358803 0.2476591980180186 -0.7504875292778559 -0.05058311226419031
P 8.475019673394014 1.4999518107420684 12.692721763586391 0.19055885346060086 1.890579462791686 -1.8166689886554648
P 6.430741827587999 7.753418788094624 1.4214305396935956 -1.2698159150752453 -0.27208956314624105 -0.7663543211067834
P 1.8424888611459376 3.3104944457489633 6.087292286508354 -0.16889062445854783 -0.21817070164059846 -0.6418172830629463
P 6.845083203788097 3.761072926861101 5.85922031149064 0.20057921381108035 0.42506788724990663 0.8686718856307877
P 2.5204748647400543 8.609657310505373 10.299354677385166 0.2112768027342426 -0.11883124590831146 -0.015939296938075775
