# total energy = -340857.71975575277 ev
CRYSTAL
PRIMVEC
9.41819330827368 0.00000000000000 0.00000000000000
0.00000000000000 9.41819330827368 0.00000000000000
0.00000000000000 0.00000000000000 13.78447791222797
PRIMCOORD
 96 1
Ni 3.5588903727383783 4.59329996040048 1.7136308516314307 -1.2274531338383181 0.9614619702803312 -0.31293642195927396
Ni 1.210906529989748 0.7909200946156292 2.9916175215376373 3.3690902788066106 -1.57359201069149 -0.5119284937888926
Ni 5.913561132725676 1.7598647625111754 9.044534009517145 0.9244990199027369 -1.6138467444464786 2.420279935852019
Ni 4.8747344124087375 1.9227053245626704 11.997264752763606 0.14519636616540157 1.0602897764835224 0.2723597860884922
Ni 8.733471805044942 9.223151928974577 9.410015476660817 -0.646757657787357 1.616135283370339 1.3550312727013243
Ni 9.3595556224501 4.035724081015136 8.98771404937506 -0.41206813255612906 -0.26846225080629893 -0.12558244858921597
Ni 3.6619913347266793 8.50421414388488 1.1624725291565485 0.43270046409449997 2.450695314919083 1.11065923007501
Ni 2.3315585136440724 3.5199649798546986 8.768058236278124 0.6826507721395404 1.365869500967409 1.0427358267601587
Ni 4.939333800211583 1.359252492561934 0.6599883714438605 -1.046182904768495 0.022666845469896446 0.0369035578945687
Ni 4.574049173307753 9.329144276304104 5.871911998341401 0.5043797349073572 0.47810408904027984 2.1145539155982553
Ni 0.41100807170704595 1.6972526134933423 4.667989058679078 -0.22559501912912763 1.9875139086269062 2.4722208476956844
Ni 2.1636792181803424 2.611005726867317 1.8142030287203195 3.2556282676300126 -0.012647513560681445 -0.15893351324583596
Ni 1.3701305058163862 5.248307049411197 7.472799541690239 0.09305567960610425 -0.591616236728523 1.2775569924732448
Ni 2.0221614457462325 7.496533388790861 4.132530864425124 -1.038440798929231 -0.36814546303124984 -1.1146734934407254
Ni 2.2272143501409776 6.329167166398804 11.84890277926282 1.7472137220771198 1.9856570579238255 0.005255591971984497
Ni 4.073971363981655 9.033733225447703 3.757483338352839 0.24043414102448912 -1.28774036076415 -1.492065671881224
Ni 6.06282066004737 5.207422672322387 10.683397591865637 0.06586214991044786 0.22613160835888796 -1.4916010735399794
Ni 0.09213818499420325 2.1046083098410144 1.5469627358252958 -2.600314749852844 0.46110626893070267 -0.6749852851744826
Ni 7.609598799284106 2.6683813604137434 0.3419981439846678 -1.495329173123844 -0.9382418234101261 -0.32201498722177446
Ni 2.0178855859908027 2.073189217012571 11.438663232128558 1.1157237890821108 0.7656706647761974 0.5286229237254381
Ni 7.6656653039626805 2.510447677068369 4.699528704381684 0.1981495213236652 1.7945513308208192 0.43112154964315424
Ni 0.797754877489011 8.850087874409986 7.795522411279615 2.369269763352739 -0.954021454841886 -0.9264602573941658
Ni 6.8953889472279455 0.47107636671619746 4.701885136343817 -0.46847813591474163 -3.3868020942640773 0.4287761893394293
Ni 5.843640465711778 9.09075096764896 13.11852232624673 0.1619779564991146 -0.9876157458575636 1.2382862198980802
P 5.640819673127687 7.35532641673545 5.962861607341914 0.8319645029074252 -0.20765668948315205 -0.02882026666580198
P 3.5496511251170646 1.6035886811855276 3.35439785084462 -0.36706277149003236 1.5415828047747453 0.04266514296869427
P 5.9380201807099295 8.921581379703966 2.4217264126011924 -1.372041948326708 -1.0138595100454408 -0.5097309719169415
P 3.8644448177723083 3.1330750175346664 13.648480295617047 0.0375483905674192 -0.3020719684409443 0.6499900486817257
P 7.414114779275961 5.342413636803825 8.775129415803184 -0.49367494689534336 -1.3386541168948816 -0.42331208090106454
P 1.9242028172964 0.663974150845838 0.616613824048143 -0.7754251730598001 -0.8435259824927795 0.6362868401630204
P 4.380938538009669 7.7697457580535465 12.340126545073325 -0.8390116395621937 -1.9569458060320617 0.3233861565376882
P 5.45209791590456 4.084180685512241 5.9419786473513545 0.0657230532294223 -0.07864104684267102 -0.4543278125562885
Ni 3.6887295854880553 7.483592791205045 10.125388475588773 -0.6736454833171367 -1.5545061977046326 1.1346517363348652
Ni 8.445406944957782 5.660136387573472 10.663782320692437 1.026228058913123 -0.30574736041000244 1.2370076102959726
Ni 3.981286923776406 4.078388496636493 4.228498486812627 0.5366635346417273 0.06570865505171909 -0.6376364122123793
Ni 5.775754128449362 3.805656455231798 8.099001086511569 0.21604362799526663 1.4219815134696283 -0.4414640692197429
Ni 6.8583001020365755 6.59441174413485 12.75076636542258 -2.4724026246891873 -0.6689943576983703 -0.2503269746581689
Ni 8.486602122425293 7.814501012586149 12.019720551034247 1.4305414872244977 1.8760203340305885 -1.564014394305384
Ni 9.222012327586016 0.55059040541926 13.590598905090738 -0.051927027886594444 -0.1931602956391899 -1.291553049642021
Ni 8.773273089904956 6.94005001982761 8.61649784433473 -0.6919519949358083 0.23153092499758834 -1.4912609165917414
Ni 8.845990960327141 0.5199530226342101 6.39182075546713 -1.172928777538193 0.8765407468559033 -0.09984544883442804
Ni 8.005925791284625 2.267495962858979 10.095406599056979 0.844878382755616 0.4903145150635426 -0.32281640007714724
Ni 6.495643151061743 7.277805267733376 3.815585114602225 0.5363274914585473 0.22976534845673333 0.5051945174991687
Ni 8.147038581407097 3.7842677382613554 2.715583461564101 -0.6522387355065864 0.3202866916767581 -0.370761046277226
Ni 2.9381560891241554 7.146572162376202 7.868676344051308 -0.8987165116219942 0.2966178873049085 1.104167194592763
Ni 1.6918654069292325 8.914932135238475 11.052090662922529 0.5891402643842047 1.5275240126888339 0.23960753135813573
Ni 6.596992329097378 1.4759062347001535 2.2823098390909506 1.1057715629654052 -0.18675670610569126 0.43373610444786587
Ni 5.370687053072108 4.258662134474993 12.562470310536337 -0.46762221567234946 0.9320014989273689 1.740523197430822
Ni 4.882918822381135 9.358689148667061 10.806121359581775 3.678393217778355 -4.162352994268463 1.9808172133330209
Ni 7.016214948995362 5.060875584669335 4.836476769429594 0.23287715461283764 0.022240042345122987 -0.23716112670017223
Ni 5.406118296243751 6.8768445246322605 1.3044612112553535 -0.06026948631401878 -0.6225124120867472 -1.3397550632685442
Ni 3.246055664288266 0.1723378681690615 12.73309406752591 0.06134832120049434 0.2866702891738934 0.49003709303243986
Ni 8.87783387185381 8.177939673604374 4.39205200609647 0.09835755143499189 1.4581001135690568 0.020480893562171178
Ni 3.93753941592625 2.1356318385511144 7.97625000603488 0.36967886895664076 -0.30164105155111276 -2.3145358621449685
Ni 2.0666906636397817 1.3448332386289763 9.10390347458389 -2.2685622236283316 -2.4006606189591944 -0.4558972139259374
Ni 3.4729964498980297 4.409174281504775 6.632373655844565 0.19167496934291506 0.18974844174416353 0.6103094422626522
P 2.7124773414157732 0.3204530850055469 7.040518596790265 -0.18302089321234286 0.38749147165802944 -0.06877186735807511
P 0.19776039732728012 1.11162935447877 11.28110627651494 -1.9791164285918301 -0.5123349851986918 0.4729474845400049
P 4.404945512715815 4.8425053549570185 9.252651594009725 -2.520581755497575 1.1971017752399706 0.9554396753456514
P 0.12867794951653896 1.8509010188899928 8.05438051214307 -0.7472476821843195 0.3896553120785677 0.2851803348919282
P 6.901755645894621 3.0299552191597785 11.925338010578109 1.5006621553009833 -0.6484083060169026 -0.2419660042879833
P 8.407404535016905 0.9418570021629664 3.152826852510629 1.3600546940578448 -1.0208752792416418 0.5002379448248417
P 6.792900167803749 8.465156896295085 9.875957986212512 -0.8133988240900959 -0.37392067495213016 -0.5731703713185098
P 6.205251997230989 1.3865181621477685 7.037168545435626 0.3528743958047923 -0.6907350918095717 -2.142698496353271
Ni 3.337252029953079 4.124952044281525 11.306235899861719 1.327205508738308 0.22337949953504757 -2.4172779158009012
Ni 6.957219386202386 8.527966827372092 7.33109528902891 0.01380039621820204 0.7211697541503451 0.08464174451079616
Ni 1.239707365082488 7.898888024499474 13.123125939128787 -0.8207382951743026 0.5694864947090192 1.8305385475487055
Ni 7.186919702447262 0.58641344543193 11.517662095658444 1.0415366642457355 0.4125669265694185 -0.16779919116658198
Ni 7.7751518010042435 3.1066946581184585 7.24521831893649 0.6216472358729745 -1.0333024492614011 -0.2758315466871766
Ni 9.04549654887178 6.0251667232583666 3.6066669836796637 0.5230989085834151 -0.7613967199911919 -0.303922905606754
Ni 3.53973376757859 6.899363424797971 5.76202240262686 1.5515872242856246 -0.5110435200807779 -1.672699552918629
Ni 8.574615138756768 5.3809623019557495 6.716293525370513 -0.07411307706533042 0.10091425641857459 -0.36956034110090547
Ni 1.688333584444021 4.35764734599386 3.8192930573020325 -0.6604559812100561 0.07744059877666663 -0.032072455054512505
Ni 2.1854258264959525 4.3951317553035745 13.200705480929281 0.17588093973345192 -0.903072988818477 4.602816904358466
Ni 0.3680394484422956 8.550947219009203 1.7872406249585486 -0.07779155435818216 -1.7370437235226535 -0.4222926384976146
Ni 3.0461545116252826 6.587847263409004 0.428112452548094 -0.7680417361115353 -1.4367373316225645 -0.4969299634975313
Ni 1.3699233055639204 3.1566487553492926 6.663099569646577 -2.9122751810520944 0.1147784159951765 0.09869976526575903
Ni 5.357171945695363 3.301688932075321 2.0132367657809347 -0.3646999276848106 -0.7950375479740889 -0.30645158556587865
Ni 0.8126610520152632 4.479801313015717 1.4978760541968292 -0.8543783518262511 0.6719981775217008 -0.4991436833193984
Ni 6.752712737018687 4.906944633473868 0.5607281486808117 0.7138485378985835 -0.020926208629705893 1.7180854372525958
Ni 5.495233241190613 6.924594764632323 8.483684366142842 0.26877721094355644 -0.6506785901083181 0.30392779070276044
Ni 5.355109361364 2.2111751669614694 4.826580131916367 -1.1622756686997209 -0.4263513819480205 0.3699789166955628
Ni 4.224700129457197 9.109577936043463 8.549588173716893 0.42068647035275936 0.4441950949976608 -1.389637035700652
Ni 1.8635402342904035 5.648297718603041 9.645922382286372 -0.02788901310078423 0.6323479101199303 0.8773586147715083
Ni 7.438658590999859 7.754535375883901 1.1962348684765138 1.082249311473749 0.5979666044265831 0.06517643669733292
Ni 4.333960589859707 6.435150095535036 3.1838974721871978 -1.88416507462491 -0.055906324249316616 1.300548825382728
Ni 2.6303506958929836 2.0276145796633993 5.416472657951063 2.8044346298273313 -1.6617847057783381 -1.2660785595200004
Ni 8.846631397471127 4.2052892330784735 13.011885774495898 0.33771928533090867 1.3353103972336293 -0.4251637893978226
P 1.3899087117335718 6.6879438217365506 6.1761902781840075 -0.7126429476262565 2.9669790003528775 -2.2361208152701746
P 1.4746253604121833 6.371859836600043 2.2416731604857696 0.8443867878311782 0.558880951279031 0.5167387706933424
P 8.805342038070679 6.577364814272895 0.0035101606406357506 0.5887869948098441 -0.5074663442524809 -0.04413941352137559
P 6.060466111723896 5.0200759713201695 2.849913268876308 0.4521215489335891 1.9287660011637362 -0.21214069339643465
P 3.873043628249637 1.3420454534139827 10.091808849218712 -2.1263372813864283 4.443791859840089 -1.0644526496119604
P 1.1242308971060055 4.622778905410381 11.560200307489662 -2.8621093588309803 -1.3125453356229717 -3.2148845100537473
P 0.8291023920484207 7.621814195986292 9.837747434199839 0.87081952810141 -1.8255542069602366 -0.36046197834406307
P 9.213196898662927 4.056218069622657 5.021023441565536 -0.04179071078354093 0.28883207271190253 -0.29747509309888126
