# total energy = -340871.0327333327 ev
CRYSTAL
PRIMVEC
9.29480885523074 0.00000000000000 0.00000000000000

0.00000000000000 9.29480885523074 0.00000000000000

0.00000000000000 0.00000000000000 13.60389229330419

PRIMCOORD
 96 1
Ni 5.015813413787507 9.265492921673909 1.9052796406486732 -1.3815581153472594 0.6823255275896378 -1.1636725490472475
Ni 3.1406229280193703 3.442313830377098 13.255890951079211 0.22615989049366214 0.2373768422554041 -1.4981188200538393
Ni 8.785025667848174 2.6068499460211805 8.099091089752338 -0.2929648639333535 2.0028590236244086 0.1887534248207459
Ni 8.961831519861505 8.33614217414973 8.15596881292683 -0.018277972373581423 -0.48794061551472745 -0.48155656636525457
Ni 6.978031193867537 3.5735658247141946 3.917798137232779 -1.6117847197111277 -0.7281592980943008 0.32967456064956124
Ni 5.156081372610616 0.34050230576782503 9.10739751967124 0.24261752182905313 -0.0452987239367994 0.59430149687017
Ni 3.6145466364861836 3.4765187265714554 7.688851692906518 1.6800223118322872 0.09059616232201816 1.2041869642215262
Ni 6.363235364008964 3.5272497927205855 0.40216778492865163 0.2836528425038083 0.5648459106132143 -0.5651739833765944
Ni 6.982604239771782 1.3165445955590507 7.643768152552956 -1.077664520316544 -0.7658552699831778 -0.15623179804395673
Ni 8.023715767687523 6.226824750816468 2.1653177165618978 -0.2373529309960041 0.07439332730991059 -0.6153192367724177
Ni 3.8041700297636503 2.220046479953744 5.546007894417538 0.2706363756394823 -1.0920205319279 1.8546524098777737
Ni 2.3301620791968274 6.812267574647383 2.1677390142408735 0.8164880045383809 -0.48857284978208754 -0.5191998306393252
Ni 6.95880023456696 8.614521696166303 6.160753532308869 2.8735623378629285 -0.49548963150657893 -1.4292212257511772
Ni 3.9600346776666857 4.960193278236683 5.888771627153864 0.19917410593343762 1.4202853567141283 -1.4782647614423896
Ni 0.23601657218368774 1.1837682525872057 3.0379255156384377 0.0921028287745317 -0.5680333072022604 -0.12426912909443112
Ni 0.7039023728874974 1.0525162582501093 7.23310770087083 1.0597002225286394 -2.288435822623807 -0.895685180994838
Ni 5.890743056089414 3.7057101206911436 5.865943576867631 0.2582680838821165 -1.7305807415061292 1.5028897590799215
Ni 1.7119457597188188 9.154382777894739 1.4726890172054155 1.9958543101718014 1.2035336469082434 0.03824490241381155
Ni 6.338957323557969 4.972555373872143 9.719926345676063 2.0102527449853183 -0.8421069906580658 -0.8820061408458487
Ni 0.20214814806602524 3.742675575083795 10.139021836297422 0.45876167995792605 0.2959244607823097 -0.13130109624054806
Ni 1.6022949009131586 6.127444655677864 9.484007368984233 -0.5896418866109716 -0.2521180051203206 -0.1715617435328078
Ni 1.211959407521305 7.502100395532327 4.1192854243967885 0.24594890019513127 0.2663439189117155 0.4029332601343964
Ni 1.6989330274709655 3.1774303706632976 6.608036459940827 -1.3880462941747644 -0.5015348092593943 -0.8871478329477882
Ni 1.0214994814564762 2.6430532260964577 1.050463034997573 1.945265027260024 -0.7562714829494847 1.2073018557014241
P 2.6249004646107026 5.346299633647985 7.565641567098595 -0.8776134110947917 -0.429245415666364 1.0939630003662513
P 2.117218010769458 8.626149501910636 11.58336075733914 -0.6573092080509583 -0.4388042629993926 0.7904267886749549
P 2.6445682799224577 5.6156353067523 0.15606355681025313 -0.0938681482050706 0.7906702721443287 -0.17703330817034027
P 8.459809604548077 5.025563668164648 3.8980866363199063 0.8613470698346005 0.09453766346826944 0.3142672249555555
P 4.88710819704749 5.924315905288876 10.824630166606187 -1.594676599275931 0.3732413894969185 0.15184703871269978
P 3.1791127310467697 1.671373919531762 1.1938112934399239 -0.5051649498128138 0.8772871381036246 0.37371524380954346
P 5.39154676263552 6.850329816472355 5.807433685276909 1.1645125284500397 -0.05083662303589309 0.14454896238938975
P 1.538634755794911 2.082362477962709 9.037051618620222 0.6006084129248044 -0.1739721527465133 -0.13420772836438175
Ni 9.34397828674596 1.2790028630239942 10.57954279056487 0.4601179368755044 -0.39700429624447114 0.0727611910231263
Ni 2.94356368774313 4.034411737271916 10.449502839288575 -1.0197643055656502 0.05979100401570348 0.36715378854194186
Ni 1.9889124708056256 1.2376967329458088 12.945490812924168 -2.234959705082538 -0.9356324108117371 0.47516840345072353
Ni 1.2680349887008036 4.481575691351894 3.4269969150404997 -0.15696816198934901 -0.5322664340152963 0.46525628654333423
Ni 5.250284259276325 2.2924902193392924 2.0790284300646333 -0.07709735650463496 -0.09082781871685003 -0.8014087416077552
Ni 2.1030155430018014 0.39178734251836417 5.287901279762243 -0.6164068134096417 0.02952294915978141 0.12660394787519486
Ni 6.5697102455474 7.817993765657713 8.274730443267737 -0.8013753172666586 -0.7956276161496039 -0.11664735088311524
Ni 0.6225588541252922 5.06362590998962 1.120412047715033 0.5417270652075639 -0.22229552244224943 -0.3669905234912002
Ni 7.433142209427454 4.196726982446387 11.702788825467312 1.1209765528406177 1.3652226114120294 0.14523159027871116
Ni 1.5609515915999792 5.4120325211171405 5.717879132466308 -0.8181648780201715 0.8696147091600314 -0.5053654958593942
Ni 3.380243097554838 7.696073759304076 5.498924111221306 -0.6539526328738995 -1.945740424234546 -0.713887618666635
Ni 6.021372298240363 5.793853969695398 3.8409904851398258 -0.026752071282863606 0.08360019062015925 0.510443938823566
Ni 3.0615519899961647 3.989201787519374 1.8917166557229106 0.22473729911452262 0.09126927712964282 0.0905830496958956
Ni 0.6500157191682625 5.355306303325249 11.940108529837534 -0.5001615830609515 -0.7007536523878383 -0.4355065660847274
Ni 8.86900426489057 7.828283118942265 11.283870865693048 1.5093439993456974 0.17896574930636275 -1.1683293310929685
Ni 3.3691915699529114 1.1180074806918048 7.6626096593669715 -1.6737537052147562 0.42132153283359697 1.0143883859657175
Ni 5.519378267353181 8.232254096768118 3.867232518679371 0.31231447210455887 -0.11429659126275155 1.4503142989760507
Ni 7.6494974726655105 7.305924162087192 13.214385912093809 -0.41914586533851683 -0.2300949638820102 0.08889126381576948
Ni 4.388934332555928 3.426354643755981 3.874089299093115 0.7693098041906815 1.9416976216237396 -0.28187646732967586
Ni 4.287435021022673 1.1003380492609698 13.094862107435526 2.1225078803380093 -0.7052332854257467 -0.09771786096846398
Ni 5.229779911177208 3.9536491440564894 11.787201490078258 -1.5162741508066273 -0.12690142451095565 0.22830110520638103
Ni 7.1000906223524 1.2465732753005945 3.349019976006989 -0.5074989972626291 -0.8540435941946517 0.22574157200932088
Ni 8.116273473204753 8.035557354033068 4.0368869448416325 -0.28039808301193647 1.9544510646346662 -1.6391553984145966
Ni 8.43591265125577 6.4922194250114345 5.4809674702001425 -0.19834595360518745 -2.2205579278349115 2.077622332679228
P 1.2854069862516877 3.165505131039015 11.956025889819283 0.055707320864633085 -0.6475534142157751 0.36794388854340504
P 5.493743184824909 1.796361212772392 11.4509943154331 0.3717588914141211 -0.09008888366829645 -0.8185551714800547
P 7.626334809264331 9.022164123447801 9.674448705431566 0.06321674186780081 1.504646593870028 1.174668643047435
P 1.2369903274809253 2.328619140944582 4.521280325882718 0.03333666647891678 0.8995703749818572 0.7342137318184969
P 7.568930070433802 1.6680277883823142 1.1507967775137702 -0.15551008938658378 -0.8999501269187791 -0.23802347470046747
P 3.4901635058142038 5.382363491592035 3.5820956707026625 -0.8946765372246657 0.5688072092538075 0.7569325135722512
P 3.243135373706208 8.641179207656906 3.509613822601245 0.03902728910579085 -0.9213231932779166 -0.394826571866862
P 3.6470877619145647 8.254756828748157 8.13126414075428 0.734848022968386 0.6976708996974565 0.845976243805485
Ni 8.620052107371642 3.1476219190069656 13.301368591323707 0.7289630249425187 -0.92763679420077 -0.825523632378088
Ni 4.504041244096937 8.548593617713431 11.236161541868045 -0.3668406281768973 0.10447060631126524 0.6785696600916313
Ni 4.870730744032692 9.05169373084168 6.47315391330658 -0.815090609970222 0.9787395264138563 0.7753302993531486
Ni 6.6926991549071095 5.519164486751966 7.20652547733109 0.16553867726717944 0.38594058223114175 -0.07513149102751576
Ni 6.55837057887427 7.301444064270431 10.706889106265862 0.4212544270410874 -0.20425666266266757 0.18935352029859
Ni 0.9500224021807683 7.1732965360553225 13.317026626141374 0.5626141930692182 0.9955738243623757 0.7031185530755891
Ni 4.719216066623939 2.7182761132977977 9.660709119139582 0.8985679018592718 -0.2290341267176636 -0.716716860585314
Ni 7.346049851454322 0.4428827651704346 11.865641310587444 -1.1058777495259664 -0.2943488887650737 -0.28901256415382487
Ni 3.2878155193600866 8.005470058114284 0.05276941770766927 0.958164273365666 -0.2273505683676536 -0.6756691986153847
Ni 1.8782205934201373 7.357659067581157 7.407944912391236 -1.0266067824087806 0.1646878992311099 -0.774765170878298
Ni 1.644121540281258 8.82978946678079 9.370333716952237 0.8936912904932609 0.39486051042859094 0.2979798006494417
Ni 0.10490399997781828 4.908179528480264 7.875443119570234 0.15094303884119165 1.3823718694978064 0.5403165580132824
Ni 7.295337374922688 8.48779627368971 1.8091136903752882 -0.38638255486456685 0.957598630670183 -0.4341474809536716
Ni 7.314345258813302 2.5894407692353023 9.994996915778183 -1.0888434197514991 -1.1699851215288366 0.3960648151493373
Ni 5.001629535637347 6.274033084449931 12.965964488154416 -0.11453338986390599 -1.0277501519846042 0.139586733288108
Ni 8.626084438249396 3.9711233845036067 5.909204405225618 -0.15271735713279505 1.1282291206379729 -0.5179543882679983
Ni 8.31989484845741 1.822637637104307 5.573773347110957 -0.3452091659500506 -1.6238380513312356 -0.6827127357257274
Ni 9.032351233836122 9.304661245739947 0.06888754555838515 -0.33206671503082164 1.1275480354105485 0.20130477912319525
Ni 5.174940539561255 6.920329021157056 1.7784231613687265 0.13454197177534893 -0.9386951088974609 -0.07158439710620576
Ni 8.457327890612238 3.2568359218014478 2.3313257892521353 0.9856509088217088 0.6624375304164591 -1.039208787443507
Ni 2.8864656776013 6.54037582913724 11.342788799387828 0.15272815576607243 -0.05173728047329155 1.4224378842807568
Ni 3.1314489517846336 1.4649733964633134 3.3526793422112604 -0.7025431401880934 0.27641647265636915 -0.875430287400544
Ni 2.8832496737743303 1.2359957829448394 10.899221006812631 1.0580804275370295 0.9790177197759073 -2.221075233790962
Ni 4.727256076191362 6.272202007126483 8.6240925607346 -1.6210206364870985 0.5773828667379605 -0.40423398122369086
P 8.004057247184516 5.23776415189214 0.025651813184018046 0.1455159542883494 -0.43664967855023507 0.04232781423393355
P 5.740789906550403 8.281804722206195 13.139958660521337 -0.9120366257696678 1.191404210634561 1.0730671307538486
P 0.2632782462429402 8.2514664664512 5.9979558865603515 0.13020477785257575 1.340392439742227 0.0035913168956841373
P 6.416922179340107 3.443364143765675 8.155601667981264 -0.0952323755424489 -0.45912266284177056 -0.7738778831773382
P 8.683981801943593 5.915086160201648 9.900246564877188 -0.08380407910084922 -0.44121698620594335 0.45793095652651455
P 0.1548477958259537 8.01851067478838 2.0494672203210103 -1.6515542862995813 -1.1160919710548067 0.7845137656246296
P 5.370847223552685 4.573650066814204 2.0191717206862583 0.002961653731485222 0.5053647245284457 0.21131639772292637
P 5.92495724709252 1.2736955272286197 5.274596690519688 0.6442027525759874 0.9203729135495052 -0.06140797079383617
