# total energy = -340864.6241965093 ev
CRYSTAL
PRIMVEC
9.27967552773766 0.00000000000000 0.00000000000000

0.00000000000000 9.27967552773766 0.00000000000000

0.00000000000000 0.00000000000000 13.58174313882252

PRIMCOORD
 96 1
Ni 6.931676206421766 6.756123308364957 10.399201354609218 -1.7364554551193514 1.7121438749571805 2.8016059021292845
Ni 8.834130286626895 1.3449683045596657 8.367113921793116 3.0944985180638063 1.5713723773323518 -0.6886954356717235
Ni 2.0273213915621655 1.9015725110479553 8.124978425213873 0.7224841020863945 0.14086791399337675 0.44211764364334183
Ni 5.774983234808216 4.481034585260515 0.6137438073861018 -0.8112270132497577 -0.28808979522923933 0.01782880065130478
Ni 5.539205243803489 1.5115291972133111 4.15419328422243 0.7470023989427329 0.9616892557997889 0.8206138537812965
Ni 7.918532559987123 1.4720627379979812 6.097903873015716 -1.0764717855600234 -0.48499258862999695 -0.09959168095240913
Ni 1.2143568741679969 8.962746586820751 2.53476095013869 1.1790747425349306 0.5909194677718146 -0.8417100123299632
Ni 1.670833383752123 6.971207623364466 8.950721983516914 -0.16432665923694925 -0.9911065326196413 0.9788408278784111
Ni 6.412506210249639 1.7046578003615462 10.666802136252818 -1.557094784367415 0.08138287125386628 -0.060875495329133875
Ni 9.167901649207893 7.191599912657691 12.472630669026595 -1.0171793184472933 0.04104637641834866 0.38416266439511254
Ni 7.904446012823034 5.4003163430097345 4.0833513147195495 0.24065191346225004 0.895992942043244 -0.23906579992205276
Ni 3.8147167772432224 2.452274844020857 6.4839374391365245 -0.2533469924314153 -0.3942889541958371 -0.31875431419263167
Ni 3.8396791039042237 8.305801250895508 6.163000795516431 2.232170572373175 1.946763209072105 -0.7184567260945561
Ni 0.05337669254798427 5.734180502344119 7.623228235587482 0.9108197226434314 -0.8749926856424931 -0.72845754606101
Ni 7.675238031958082 6.090315882491292 1.6219591896784575 -0.2645307769623767 0.537634640305745 0.12779616841108316
Ni 0.5718544249398473 2.934966436436703 6.273977360859024 0.804155451114957 0.19504362870483183 1.320189482431791
Ni 0.376909789327836 8.685423489324835 4.672621834334997 1.525669218868282 -0.2854143052796052 1.1087293600421486
Ni 7.447032256029703 1.5059428326594366 1.7556440485422913 0.5645404635576535 0.9854133388896062 0.3291976210131427
Ni 3.816498474908246 3.562114734849502 4.216262248660139 1.7758007896861934 -0.36469812791259765 0.36881549251508094
Ni 3.7677337810035767 5.726014388046096 12.959020212064898 -1.3842220353326675 -1.043127662881939 1.5864650099994162
Ni 1.336913546365707 4.249451007508863 9.002807873225288 -0.1627333466079004 -0.2734645891168968 0.15955366332833812
Ni 1.1339299280078126 4.9357293971796175 13.397452392952996 -0.4611350652861091 0.8545953529330637 -0.17116785052849876
Ni 6.158076071814202 9.243540282893328 0.6773448462222239 0.6619225384532537 -4.43199358165358 0.706861307947473
Ni 5.664749971460249 2.9831929091717297 7.81820813396578 1.5696782774593805 -1.333706028860987 0.5085418367048468
P 8.316797666171823 4.051617608963927 1.5801134217062949 3.731033983902523 -0.23044566235320957 -2.122127871290771
P 2.074916846374163 4.4147962626931445 6.848933053297052 1.3699634685311246 -0.08182561521823972 1.5889872622006376
P 6.369244363820797 7.178645485884919 3.0378149341501626 0.0071204130948651564 0.4916705148708049 0.7724743179615922
P 8.943287107635577 6.683546967541281 5.73460551147463 -1.049420437869186 -0.03249694418644081 -2.190768869497937
P 1.1094315851137446 9.25976115538531 7.6106514916009935 2.520534447199408 0.5638022998400484 1.2623244917942067
P 5.142805352361862 1.4440845168519152 1.923867859016625 0.0005458452011409953 2.33578911509679 -0.44435038962860246
P 5.654904235925929 0.8741806796682546 6.467707286969205 0.19560001542893407 -0.07126686586578694 -0.5668698830217785
P 2.955233247376341 8.036319479060761 3.7692871986552685 -0.8317855541273999 -0.8099766857824244 1.1127369385396448
Ni 1.8140094945523402 7.431516638863461 6.170606417423998 -1.5931118258919723 -0.49181166843435936 0.47747134055228735
Ni 1.0516099280785411 0.1780296434046981 10.18854808458392 -0.21558031520560292 0.3159903782942493 -0.9161642747847962
Ni 2.978525232476383 4.673272339576238 10.859377670750868 -0.7873136969672699 1.5308564194961765 0.16362629073581497
Ni 6.605356423137715 5.197861666146144 8.648432847489861 0.482779125918446 -2.657972252465313 -0.5006192394236604
Ni 8.668441683455082 8.384882644131586 7.178481235631425 -2.4371330028536153 -1.3779236039184657 -0.7750994142892651
Ni 8.718134344893619 2.9001119758646885 4.334205994247 -0.3899041948645801 -0.06465321720401124 -1.9754436077259332
Ni 1.7647344185040446 0.9345839423826737 5.802364772830006 -0.522102606108417 -0.07976384759320457 1.4160795461628966
Ni 4.487251967737418 6.324052344921512 9.73472741808172 1.353922870128494 -0.14925536672612358 1.1117835734874402
Ni 5.998177986053716 7.271637112453652 8.139103947014384 0.8111365104184803 2.8308457728310086 -1.124782042629637
Ni 5.314572142880497 4.665607327746503 6.291918685158793 1.9545909326466402 -1.0411394288073166 -0.917365237071433
Ni 2.9819958310530423 7.316337308559986 1.6476824497172289 -0.36972154926911804 -0.5537788541657753 2.659636784651929
Ni 3.0390287156844593 2.4792508602303474 1.948273405157306 2.131140873422659 -0.281508799577612 0.27866233126775236
Ni 5.13699627559986 6.920874664327563 1.067183079231884 1.664443483557424 -0.12999831826872452 0.01184430093309573
Ni 8.117525917949393 8.786961696880475 9.668177298422968 1.4569870830105358 -0.964070611547772 -0.03975054042506057
Ni 1.1061744190698743 5.093697310469662 5.078254074771061 -0.17424366124034507 -0.03727662496327129 -0.49386340875706564
Ni 0.8736127635375285 2.114095635653994 2.1447473312651293 -2.446554553277832 0.0947214973443014 0.7151580007386265
Ni 5.443225561775708 5.197870945821483 3.7330101638538373 -0.1640878037532658 1.8693331518183998 -0.03209688053454472
Ni 4.033939827443776 4.742090411887756 8.120320028193865 -2.1024699878505277 -0.4653866414736114 -0.13830838079631663
Ni 5.601119237663043 5.21779440877359 11.597680704272763 0.22834558529107127 3.0475141788944673 1.128326822558102
Ni 8.397530841618183 5.065301503933356 10.72161810644583 0.7382076834692384 -0.13480910939380655 -0.3110461469150966
Ni 6.131100055604712 6.937587359612494 5.669834305578302 -0.09047223514964418 -0.2630379944669341 -0.4041339653107169
Ni 0.5982105588367153 6.72808012949152 3.2391644016809185 0.3990251833292418 0.08953815337114902 -0.46960427909938474
Ni 6.9321865885653935 8.948400208747179 11.481054672583994 -0.43278839582261597 0.19444044790319415 1.9013390153010352
Ni 6.781735212299664 3.6016183127661865 2.661587200959718 -2.684216530873822 -1.3164863225485908 1.3974663019370834
P 4.630493036265006 0.7903982029056102 11.84144663980901 -0.4408518895570408 0.1286140363266882 -0.26781099037554523
P 1.943024820785759 2.8077884859203395 4.271838224263386 -2.963589257945038 -0.14341047790957237 -0.3475997776694143
P 3.987467213347756 6.955821921652966 7.849717271578208 -2.022599182365813 -0.18521995774619068 -2.4555796395945775
P 6.39626677840698 3.537690629358144 4.824887387129435 0.11271639125982523 -0.7166559254403915 -0.30440035946380484
P 2.9910620738589153 6.842331492261128 11.018623395335048 -3.1115125361232994 0.48569064313828614 0.9982418581128422
P 6.539925432324808 3.4931389080572273 11.949271827406594 1.5305615139635769 -0.9342542995172878 0.6250413491561881
P 6.654566541458639 7.481357775107414 12.908686325060462 1.222545926344688 -2.5234701327889635 1.30718329998011
P 0.7551075975926783 3.7068312717559375 11.273471119160725 1.909521808222144 0.5094005851607162 1.3014173440306105
Ni 7.7799498884795435 4.3970256844196065 6.209042832676737 0.35613918259899313 -0.38378394089945517 1.6516039085905942
Ni 2.2232988550393697 2.860942466260196 13.175879728956692 -1.0622150185306931 0.42229649515235657 0.4165932741199922
Ni 4.687275369662279 7.668881454351097 11.97231975704523 0.8243512093365416 0.8347050417670397 -0.6086405392006615
Ni 7.800662123835438 5.059613062950757 13.096059673563657 0.42645576873636876 0.041083657414187305 -1.0911116469603854
Ni 9.169618389145546 0.2890980775331445 0.3202415959372283 0.40281473227866116 -0.3522053947622257 -1.1128099578694255
Ni 3.1114473020273787 0.9692156907465607 4.095384269731193 0.9082897571327261 -0.0701180969733244 -1.3316213784178161
Ni 3.0426013906898444 5.551324499795783 3.3116228906277936 0.23334869493261748 0.9589677431035678 -0.15929706723284182
Ni 5.150331169061516 3.7627134766453603 10.044445862184903 -0.6476647429826587 -1.6329906643647811 -1.304821998836785
Ni 8.175783719725514 8.374415170349575 2.2003103153229024 -1.0097516585246544 -1.2340073900170685 -0.4895557825206472
Ni 2.995571996073505 8.720741933663783 8.592448566171711 -0.05158789937962083 1.796436463658674 -0.47081835401214395
Ni 8.625606702091819 2.613295770497321 13.429179602935882 0.3255034599910072 0.7616484309906818 -0.5785810008111197
Ni 2.0789349457958037 0.7855532844112947 12.118147071089703 0.6163564197876804 -0.7098820970516677 1.0068964484640466
Ni 6.174352622358216 1.8246347228151083 13.330223001059457 -0.8640984073274924 2.732210542254598 -1.6834053693719075
Ni 1.0784281898072745 4.563781450255364 2.5189919978357014 -0.6818051363097936 -1.3674098488713353 -0.7006595500121353
Ni 2.3354901298837945 7.705684646744231 13.240406879391614 -2.0750998233676907 -0.9819585475717864 -4.366573661486874
Ni 4.923814294044775 9.024586343277596 9.73786487631372 1.1789855252552341 0.3862843387238057 1.1794141281522204
Ni 4.276900287160626 3.3481903792673253 12.363311453699486 0.8542649661768384 -1.0111153716414005 0.1708901713870799
Ni 6.858227576116256 0.7482025911731798 8.393259407059798 -4.565124532014016 0.10260012876142975 -1.6848169050074533
Ni 3.9018529286732595 9.086017794019538 0.0994085220654175 0.9925167827036069 2.2400764574838132 1.2510268073932003
Ni 3.757312705598259 5.946870661106254 5.668068383361355 -2.0637975109809945 0.641938639132159 -0.3300566265793283
Ni 4.707579299303272 8.9582459442815 2.8331786056144526 0.7049458360923149 -2.927751422310822 -0.16925109312176012
Ni 8.328165268461683 2.7725813976854554 10.196628825868828 0.8945477249562852 -0.9114481002560496 2.5280868056253687
Ni 2.6574299064079976 2.5520127945607967 10.424422584212168 0.012380890162856097 -1.753536064750722 -0.00472105962475316
Ni 7.4971146638324635 8.73886513960019 4.732979626640257 -2.855610381370198 -0.3670159774124969 -0.11737780129123655
P 0.7396485864460011 7.167936740544103 0.9621566417164403 -1.442511000881548 -0.3210320544832148 0.5184164155060814
P 8.050489543302898 6.847908577139664 8.753283899141403 1.3692204197175128 0.5584796020755542 -0.21745053564512226
P 8.364764307997367 3.680235722235332 8.432700811151712 -0.08180170395883976 1.1146881487287446 -3.442587576664813
P 8.575208785327545 0.7605250720553892 3.371518555101188 0.9851744834059227 1.865208588127065 1.1947217050435681
P 2.0193223114202388 0.8330039762880094 0.7764332194884577 0.17461827097094443 0.22825739645263915 -0.7684672536847282
P 3.655449709405765 4.4363900672062115 1.4144025473136708 0.19941064742427592 1.4726525574619347 -0.5452206801831191
P 8.734206742580183 0.9780035432922737 11.711401269613 0.6819468040939803 -0.8485782002047063 -0.3802561302518548
P 4.293919211731732 1.730863603517928 8.920760695750975 -0.8712129068850866 0.2159958054764667 0.4138918160284291
