# total energy = -340890.31890586705 ev
CRYSTAL
PRIMVEC
9.12482388413097 0.00000000000000 0.00000000000000
0.00000000000000 9.12482388413097 0.00000000000000
0.00000000000000 0.00000000000000 13.35510210575781
PRIMCOORD
 96 1
Ni 6.4692537037540685 2.1143311722791456 11.481728375401545 -0.6831598505654751 -1.0279041610639652 1.1791837573089692
Ni 4.71293499325667 0.29707232603536293 6.276323904227213 0.45437614929572073 -0.05893971175900172 0.31234866777660397
Ni 3.0528831738462467 1.4331904501019543 5.016577192427827 -0.6430822658182989 0.43533815882766314 -1.0894082911160334
Ni 3.321682233338198 4.244156295370204 4.765875395977847 0.1911337521274644 -0.22056028491869756 0.08677267481086992
Ni 4.993824444283242 4.472468511662829 2.722264345593618 0.28754754957252415 1.1220551306167772 0.36354293126223197
Ni 7.666914201937827 6.39985029393345 2.786635415088695 -1.1107106521382355 0.0015748006862876104 -0.29298311876579863
Ni 5.126061390788686 4.398283694171161 11.929832047522622 0.7296453957215241 -0.08260903035148354 -0.6795579921468297
Ni 5.455139036301543 7.91782860678234 12.655735505331686 1.0404773697432854 0.6402869624613489 -1.298427922384983
Ni 1.9229471179039612 6.554370060157793 0.19257940629294715 -0.12263802124891138 -1.3380679053741085 0.5184459831924361
Ni 2.795161650447147 1.435809274532472 0.535374399423913 0.18330114345692303 0.6866071856841272 -1.4564767190330208
Ni 0.78332049908638 0.30598819137006267 4.811189270967222 0.058806271504930986 -0.47558209394937445 -0.7122256575831798
Ni 8.473566875480072 2.4754460741527957 1.513760819288662 0.49386803674275587 0.07395881087565327 -0.6455844634148624
Ni 6.516100549141797 0.8044253040527366 4.86342067487916 2.0876306088448495 0.11405130802116487 0.32359210190090726
Ni 0.7142629200877704 7.336914949221198 2.2350827030678904 0.9594164006052122 -0.3091121631171773 0.6061846214610013
Ni 7.838871506443422 3.8427552964208207 3.6078540448624237 -0.8847430801610376 0.6820308791673545 0.6537112062870548
Ni 7.618461387561349 3.837389900026589 12.894418083872685 0.014061106078756429 0.7940664423100712 -0.10149069774733488
Ni 8.258951019710818 0.13550545839050102 6.722610823929766 -0.49207623494965586 -1.0651648451876365 -0.23391973694473905
Ni 6.899178901901356 0.6463140071808261 0.34764027456861357 0.1123834334004387 0.7563817832751039 -0.5940019633518802
Ni 1.7869963681120342 6.405489435041673 9.459605372583262 0.3308444125879464 0.18770390051030897 -1.5618940055282715
Ni 0.11385316399616155 4.858950423699682 1.4872906179280738 -1.109085972050619 0.10157245882786378 -0.8711326884664546
Ni 6.4871109839301075 1.9999241314783418 7.076948719167369 -0.050367396708958415 0.15678175701015581 -0.3302196345197539
Ni 3.45748698594933 4.219136028511391 0.4718975626612081 -0.24781269287674743 -0.10357303419766034 0.06808949657906983
Ni 6.10333001973797 5.7768438241842315 5.127905517678608 0.5166531529580715 -0.07976513314478521 -1.5922366223758708
Ni 5.332948520799583 2.942472805869717 9.472987839167919 0.02783219172091981 0.8307036339171308 -0.26509333433406607
P 9.248100169247328 5.661688547831851 12.628611054104658 -0.7117307202246322 -1.0327074959898797 0.14912809711963995
P 3.960465523437121 6.034099981569546 12.670719378493194 0.27998953471960814 1.059762957445775 0.2718800182385963
P 2.4424780857644324 8.569815516919448 1.446117587979008 -0.18462500447466915 -0.018984768632618918 0.23752159536338452
P 6.576370010338902 7.962713615053128 5.880331188343918 -0.3296087404086323 -0.5919767053917353 0.09703986106483288
P 4.713473357860853 1.15270249132257 12.62758268646243 0.7135351204232226 -0.5420736499137051 1.2844799448453232
P 4.037670657606495 6.182150247719893 8.227651049113042 -0.15273458352397568 1.7521864927013628 -0.0012148462437075853
P 4.691263536732352 0.9879811720901474 3.5760823208742023 -1.5515879956165728 -1.378110266007975 1.1535948530962714
P 0.3318725790427091 5.488298645989701 3.7755409318297537 -0.2200038981945953 1.098868408087669 -0.5330717035254109
Ni 1.7601328868456785 1.398360997658449 2.715158845300782 -1.5625761191969607 -1.6791774473334888 -0.477668544164758
Ni 1.9479126358199763 6.559151467828844 4.813659360769805 0.15880547230840392 -0.22942416306723068 0.2947247840472537
Ni 5.9719325570221 5.599448124694008 9.357679265775705 0.06050114270885065 0.09210000056105429 1.0630920218190079
Ni 8.523406663074105 2.218326789124477 10.274079845086622 0.7219009758894148 0.9187083813628887 0.3139666629960012
Ni 2.355016649644181 5.277478716921127 7.156184126632178 0.5854327336256304 0.46353441875622103 -0.7104760218819248
Ni 0.10622663626436127 9.022543649742218 9.468981129037466 1.2608327377400286 0.7811481915865063 -0.5362372457375861
Ni 1.39323284668301 1.0342349039308936 11.429243301387976 0.8420403990861886 0.6837522327338353 -0.7711473716200525
Ni 3.7619914809695594 6.682801955138757 1.7731704350907085 1.740483602442138 1.0363756888700861 -0.3403821768750525
Ni 5.590934664088874 7.809544322751143 8.242154956542686 0.12441722463652122 0.15157912976329377 -0.497245437855421
Ni 5.248708147480631 2.836579225674045 4.711346361433141 0.16231014302755273 0.8280309721809741 0.6891644048883421
Ni 0.8008301234756496 7.68778267396777 7.599253633462952 0.20147575748342075 -0.21633339132154356 -1.2516837242509087
Ni 5.387578840888467 4.839368551825498 7.2077348186886585 -0.5782411009731977 -1.0078541843916256 -0.27994505463491787
Ni 8.159490440293943 6.93819664846893 9.596655663643054 -0.1154903544605366 0.2849355658709738 -1.4701971539429068
Ni 4.546689828449696 0.2734864814778642 10.603483246809128 -0.1126449145919415 0.4459802119225416 -0.9840817645623762
Ni 8.637594708103718 7.301501508054511 4.947904680993566 -0.6200963464460869 -0.08225164701206479 0.2664825013721088
Ni 7.440217079457752 6.309076546773904 7.1658537024127344 -0.16733382149438925 0.6742131828951485 -0.24907201920514527
Ni 2.1946113720690223 5.246089323050113 2.4849039540211986 0.3236358106546491 -0.9478790893895739 1.0503727744801266
Ni 2.3856851824350174 5.0793240432865545 11.393825297809387 0.21288811308542047 0.14894863411898218 0.8149949649326222
Ni 1.1755601749408517 3.391432386463206 3.8034391681149966 -0.3806435954982606 0.0996166206530736 0.4308947783443288
Ni 3.666262954486768 2.635787477961356 2.63565608049864 0.04898105788439307 0.34889921320712813 -0.44869709663307245
Ni 1.1399916117695696 3.558690406711949 8.331647578440753 -0.9003836149117719 -0.35635386971296046 -1.2821307278868563
Ni 3.7109289669863643 2.9042397941489186 6.967677129201044 1.540736911834682 -0.09402292861538 1.135459062727509
Ni 4.173703530812619 6.986950582030798 5.989549854332206 0.05481643361924753 0.18170217440091935 0.6550803187204395
Ni 0.8326730210895088 7.244270613182709 11.413096925674381 -0.5208653912672062 0.691917542153447 -0.3149565377130963
P 0.191821133435191 5.579245764801442 7.8483531108537035 0.5074018095631326 0.6664096276903297 2.194016687011273
P 8.542532293758304 1.664568607191282 8.177956346217423 0.5689033685120396 0.4815141431630932 -0.32034325594630636
P 1.5987877524191496 3.1945643129843937 10.326752890470466 1.4581281385935145 -0.9387971816929639 1.1915083403125932
P 4.065994110680805 6.047714218678719 4.009188432598069 0.2685674089255955 1.4289764567302228 -1.279334910309274
P 7.0355676432356695 4.0203882413298375 10.59356091340932 -0.30057018708443717 0.7552790371292283 -0.14867429741167298
P 6.250194058794354 8.022280464817657 10.379237964484037 0.5949494148668141 -1.1668679160560935 0.24179219771428034
P 2.5110328869716776 8.500758850403217 5.803967362928879 -0.7225334672670911 0.4973459679890273 1.1171371244898696
P 6.861986120093726 4.523284655403431 1.7366437654204567 1.348856254238864 -1.0691659959272297 -0.3393725046636155
Ni 5.646586964443326 3.008052914518256 0.7235638529868181 -0.6291533144420326 -0.5995110660955675 -0.6686616569493
Ni 1.467153044284487 1.267620522256158 7.134202426098669 -0.6850015317599041 -0.4893634640041829 -0.8090271773849614
Ni 6.775355042939249 0.724745517668881 9.117220996523283 -0.4551343676179839 -0.23388425572111332 1.0735682387599834
Ni 2.67162978584663 1.5731104982467565 9.057684258677293 0.24934275636802866 0.13683591001584822 1.8530660392272604
Ni 6.322015546921897 1.7334792765267162 2.650426432783236 1.3460653217572882 0.9083671473378807 -1.3352291503737328
Ni 4.018335155974902 6.985253364804051 10.55125184289719 0.7058390373305458 -0.747412747007274 -0.5597854653711715
Ni 8.147263176402328 7.49878019860431 0.17044075879008297 -0.34380688628588535 -0.7266410616775615 0.46227689220003615
Ni 7.567125128864162 4.000468750975063 8.212146148512568 0.7104559672772668 -0.4797886758315544 0.20529333145729803
Ni 3.196398402568136 8.254279109925365 12.515960541885299 -0.862403793233889 1.0815363445671247 -0.016070423199301354
Ni 0.04066660222818183 4.850062845318761 10.272397227577954 -0.47918729480212946 -0.5109589307867717 0.3137337210495887
Ni 8.742785676866811 2.276743911090241 5.576716363644162 -0.31735614829352443 1.0104707960788661 1.2409964197403915
Ni 3.7121608181993255 2.4950370708507803 11.35301178591803 -1.1826053813960085 0.9623184047433556 -0.3196868533092301
Ni 0.8584387860527589 3.518541181993211 12.363431812214053 0.050635819878996666 -0.9564285216214818 1.3842060944930676
Ni 3.231528974197032 8.554394564697933 7.939647885452214 -0.6757486457030686 -0.7539621180900177 0.9853639737089095
Ni 5.642754538447446 8.079073368147071 3.6401997202676473 -0.045682846749095514 -1.3151583477657867 -0.31138347564985724
Ni 3.0656123030468465 8.349086029204384 3.582425898379763 0.47267674737712145 0.3828580866510761 -0.0664830713238984
Ni 3.4333792014704874 4.53892460339614 9.308532964790448 0.2041407059100936 -1.6628272881102395 0.4480772036608864
Ni 7.225637722983695 6.187150651162136 11.606518553204042 -0.11672037021289576 -0.5172465635676963 -0.22452235489023914
Ni 0.8871162822904977 8.751299137471943 -0.08159782434655535 0.30433402500224366 0.8476528601769595 1.1546724024311663
Ni 4.7272427169746205 0.10021611482749017 1.3467957058838897 -0.9850428429240647 0.3417602881695017 0.7628380804234087
Ni 6.153580424402991 6.00118674212398 0.38146599639415035 -0.8233628772813433 -1.315709078062934 0.6400589056109428
Ni 7.995654228970093 8.902132474881203 11.490329434315154 -0.39150007859679026 0.14876942822864056 -0.023214233332934212
Ni 0.36043510250057137 4.772921584915985 5.889359289011355 -0.9640896377111654 -0.6210047171929692 -0.789037621636912
Ni 8.497601661368517 0.07185251252846164 2.1651153791364495 -0.6979362375437013 0.09302071260311078 0.31978301256746217
P 8.324585877302155 1.7051284489810072 3.6084818327398445 0.5048749293762208 -1.270613471275876 -0.33895778572370006
P 1.6369751400209493 3.267124911839713 1.3631556024743954 0.6126943975550609 -0.5436103982732058 0.4960349624870877
P 4.694064857638864 1.3248879164231582 8.27638399558017 0.04582914251897268 -1.4667408199631902 -0.361211712025894
P 8.840311793638145 1.4199412059447707 12.796418388746144 -1.1486097411768543 0.7509151037335777 0.16929480187550197
P 6.386528051185868 7.8602327189585495 1.4501370728627818 0.7255979651250278 0.1879252724924957 0.9706948017325089
P 1.9216331432768023 3.152343753263121 6.012680370182099 -2.1350147545557685 -0.021469739838001736 -0.22413411831288496
P 6.908011731339478 3.8054530167275935 5.973496551821371 0.5200554937714011 0.4673028846597178 -0.9221909405948505
P 2.344915469697898 8.448473610030861 10.230729632178946 -0.30640556281929165 0.8709591390030678 -0.3139792614014915
