# total energy = -340865.7766560321 ev
CRYSTAL
PRIMVEC
9.28513218280549 0.00000000000000 0.00000000000000
0.00000000000000 9.28513218280549 0.00000000000000
0.00000000000000 0.00000000000000 13.58972950508056
PRIMCOORD
 96 1
Ni 0.19573337261151397 7.112903387957862 9.011159531847984 -1.0856853337384915 2.0585516892010225 0.5740160071482565
Ni 5.512193019919364 4.972717553151738 2.5180814307851187 1.0370590880903559 -3.089814739434891 -1.882995222686525
Ni 8.757727419145239 2.252266665761735 10.698351621328001 -0.5677432867656674 -0.36203137971371196 0.9938581272228496
Ni 8.465645015088352 4.572240515628211 11.082437614954094 0.7827420184361874 0.18746504502662553 -0.16835017857404552
Ni 5.323203438834903 3.1342985153017398 9.126971128927195 1.9374221341768374 -0.2683596637901637 -1.2997386707766068
Ni 1.4743954293987709 0.9599805344768251 9.834520487953947 1.0776912597894213 1.1212249214059982 -0.6802411342567832
Ni 3.360437910374553 6.205188862713838 5.860924015614076 -0.6684865648240165 0.751969513140021 0.005068929882475141
Ni 1.577618244222194 5.572648515764943 10.43207445672036 -0.47594101995069 -0.02297820606272817 -0.041663184066741146
Ni 5.345701314189508 8.099430115434611 11.023308964501899 0.786192181768317 -0.6672442077764831 0.8704965975443524
Ni 6.01837200256746 7.013376055755624 13.163270099108441 0.41914329423535557 0.44285555025063084 -0.08497804480429236
Ni 6.477484650022617 7.872975025866522 8.992079513661364 1.7284822071058876 0.6259844297957478 0.6743743910633612
Ni 0.9849575401325783 2.8158649060214223 1.0964645499173629 5.050781750811205 2.7039538614017498 1.8416140886365766
Ni 9.002613496158187 5.938909841079753 2.3570029571360456 0.2685990334944794 -1.5907451254320086 0.7260911027113625
Ni 6.4510963042703295 5.387345132169454 9.703338283007623 -0.2050786443433307 0.05030440468150692 0.4927832883190094
Ni 1.0827299823463628 6.683336031207764 4.188843478812401 1.6408775233120256 -0.056067018196896995 -0.7004705739297807
Ni 5.740839400689966 6.6184422421638756 5.360727443651481 -0.4906914387869872 -0.6886069897229753 -0.15923921741171285
Ni 3.78731257878258 7.456295432629504 0.997536108742931 0.06854663872114647 1.023697064961153 0.4181809303220862
Ni 9.168297395385421 0.8385820733444296 12.770268521530435 -0.7401560654448608 -1.07712484576299 -0.051141812981137735
Ni 4.382452413173343 4.401078388394697 4.958770356053036 0.05518178737846625 0.0276918094883136 -0.6635914415152443
Ni 0.17899692179571658 2.9075091609739445 5.341606570883119 -0.8356152122861352 -1.435461036013302 -0.4435546332001845
Ni 1.6899033480865147 0.6236637605522773 5.698173289653255 -0.9621489690450269 1.5423852460713823 -0.8234574938776785
Ni 8.572117626186685 8.032967139046551 0.6686446550499466 -0.5288638360916504 1.1989766236651802 -1.579748774321505
Ni 7.382172222164866 3.449454472910503 12.929363690938589 1.6071122539361224 -0.08612424259359361 0.8102391954151917
Ni 3.2788308833454027 2.865763206539645 8.512456937658628 -1.2515117174494188 -0.8739220782861336 1.136413199110662
P 3.7385934900555404 5.062086950711822 8.215263068317915 -1.4509537323322625 -1.1841125620691544 0.3516744619594201
P 4.904239703073233 9.215753706131352 13.23124562353417 -0.8913420735347939 -1.9656749583749438 -0.42433049486324986
P 7.152680894362787 8.789157591689746 12.100322090944081 1.5477452248317152 0.12229323631498291 -0.476812881032682
P 1.5574230816566685 4.201875161874798 4.726480489401648 3.4112720543809827 2.5004770143279003 -1.7036288955076337
P 2.2955632372757786 7.763001919923496 9.670927600501315 0.36402012800896666 0.722701360303523 -0.04125309311251605
P 8.401466181224944 5.958315767407084 0.09437779787633348 -0.5011977376349497 -0.6310898693431132 -0.4590419302025062
P 2.9771476525792036 2.383688427119181 11.152357446065437 0.32526486161763984 -2.3625278166432153 -2.3223952102883874
P 5.581682949409198 3.7809151226871105 0.4536594893058532 -0.015741836215289018 0.03962789880426723 0.2524543054138168
Ni 1.9837499272640682 4.007983030981327 6.974262436304004 0.554351953060426 0.7547123659924809 -0.8501745981575486
Ni 7.01260538978186 8.650911258154984 5.78416939867998 1.8166916143632839 0.35967933454176765 0.4801123777195602
Ni 5.042708879781131 0.27364213147981425 5.307931253369259 -1.4446473304982603 -0.5350419398779044 -0.9360612708190396
Ni 1.390086428895337 7.201910665361597 1.6347626619202487 1.3676962697635024 0.17790362659043554 -0.5371181056806427
Ni 8.454539996960365 1.96757522694722 1.3612560933707591 -3.719270929829324 -2.181675648947417 0.7717793487770965
Ni 4.407178720259317 6.98273511944931 9.236178211462564 -1.608494221885314 -1.3150596174043934 -1.2275999438288276
Ni 5.531506094924556 5.012820039184154 7.2722037587879464 1.3542226607571 0.37269657273704193 -0.3994540433365443
Ni 6.904294322505145 1.5207189540145898 4.66046227084664 0.6650734253774094 -0.07890998423334152 -2.1625075606593986
Ni 8.064657295293053 6.834841533544167 4.630903980956482 -0.4946787055695094 -1.6652376973239449 0.776257182042792
Ni 0.326957360652801 5.296406547265199 5.986806267092629 -1.831771391514542 1.4172038895753272 1.3673676827794903
Ni 7.594811034998472 4.228839185824355 1.608534948955265 -0.6454543655949013 0.49138229420642476 -1.0425208825358756
Ni 3.633690066301378 3.566530704997265 1.4318815945303707 -0.3347658591295396 0.24677730963369757 -0.4735522080035393
Ni 5.908816727574067 2.5111454370212347 2.4538570997738622 -0.17932673219020728 -0.7011819981745085 -0.45631450396901413
Ni 3.345832397401877 6.801832888523274 11.503420866972316 -1.6091629658175641 1.650253050989655 -2.0066174622255764
Ni 1.0442152539225473 8.548319832322115 11.304508265090718 -0.53793648781688 -1.2391308272865627 0.16464830424242613
Ni 7.958388957103425 6.897469750327831 11.163949005121438 0.08955615109327802 1.1000871109861183 0.21638918426014347
Ni 5.797701550368714 0.9517817627318326 7.839792748873226 1.2137671517107935 -0.6422134900601004 -0.5035657236464941
Ni 0.29662190519632853 0.036359649236938164 7.794960416490982 -0.6055418456706797 1.365469437315513 0.5558745603525395
Ni 7.554977817800264 3.772177813273704 8.083701101464037 0.6740229212612134 0.28421977075087185 -0.3863614718186443
Ni 8.078779981390598 1.6641742467214247 6.616064319803862 -0.3762328680250746 -0.7731224930685524 2.0866438194515484
Ni 3.7205246227670297 1.4200959762110965 6.571354551166842 -1.3871371520969338 1.2282643168857041 1.2659489759206715
Ni 2.5041537324640664 8.555515809787993 7.424327650929803 1.6913847880329582 1.2726716393564856 0.1696724969298949
Ni 2.3148948825453988 1.638556566942903 13.050448314602152 -1.4006310728183102 -1.280576496025859 1.093014263299737
Ni 6.06483480416649 3.183147595879776 11.21673219621856 0.2680056228848546 2.257048309451461 0.134536058238078
P 9.17128720795834 5.109552546589966 8.858777513030576 -1.238333528196248 0.22287504909480324 -0.009773534446996072
P 2.688844297333429 8.161872629573994 5.0568742774868625 0.2642929499199577 -0.5723036524428401 0.7694594423946683
P 7.267862959477886 4.9785950418432225 5.709765777222478 0.5001952645123644 0.7158146604860187 2.2656126540817048
P 2.790757908514673 1.670692409535677 1.8872059080422003 0.1504226475613474 -1.8855354726098752 0.48371577880010236
P 5.196637801625397 5.769753302404469 11.552914335726005 2.1392421623735545 -0.23368730921895883 -1.897547923689719
P 8.838173804647633 0.18014177859770705 5.075274623995415 0.6839203828805834 0.5038860831003902 -0.4842731939654692
P 1.379194968808274 2.0069441875347267 7.4500251828453665 0.056416431116515744 -0.7649651540687405 0.7690717200379464
P 2.07005523119352 5.1235266705720885 0.742233970412278 -0.14230130400579366 0.5083088947584343 0.7413932802860715
Ni 5.816940344316194 1.0711607076076757 10.858900842440873 0.4859737215963437 -0.767423385801246 -0.8531079697542598
Ni 1.2215984197394645 6.576854134977215 12.72118267008094 -0.6296798763694639 -0.6185446856882508 0.8484786985123646
Ni 4.863227274083842 0.29542783719360366 1.7520830929842401 -0.022913671373379893 0.3755502401357532 0.49375593664492384
Ni 0.5731554268475931 7.8372458371069165 6.129375758186245 -0.4409794162738405 -1.3434528238351056 -0.05130559225251164
Ni 7.171520427625062 3.8797646402377235 4.019080621003542 -0.022315375667748667 -0.6261584934797668 -0.8240935847997807
Ni 0.6387001036596849 1.1850799947416664 3.4811585568553243 -0.10042857503140769 0.9287043162333362 -0.12813786802121804
Ni 6.957674547603631 6.761637551168718 1.7202016630141308 -1.2560232321665272 -0.30478628204831376 0.8709282857651324
Ni 3.9202571018231285 5.626808691969408 13.188669578279933 0.762998260150357 -2.405258779852838 2.93819164380754
Ni 2.444264629683543 3.885317149301716 12.477043117697999 -2.0193444228739414 1.6797780570319651 1.3537488064444752
Ni 2.7850382670708274 8.775044190724413 3.011823907345738 0.02638466064111585 0.6502792977873704 -0.2580138017794653
Ni 7.68808018808845 6.730708775763768 7.218049153662811 0.2592476741865664 -1.0994962714796548 0.045270956022657516
Ni 3.754749620107961 4.262107814547241 10.660775619771025 0.9337673325785403 1.2871801173853057 -1.6787136203231925
Ni 6.197519343505045 8.125957738170108 3.593328525080191 -0.5267593881541379 0.5194471707634409 -1.473570955511146
Ni 0.9615032961599269 3.439835075936763 9.301966158738663 0.9011678013759641 -1.255446790837767 -0.26269140976079275
Ni 1.0164527086025836 0.2842476094946846 1.3354452828421857 -0.3314432225142098 1.0436480541617834 1.433210035195596
Ni 8.758349523003579 8.227583510252718 3.0665634758003573 0.09340534963603915 1.9162326445834164 -0.7395618835042875
Ni 5.838797545548031 2.738157634522167 6.384346417296857 -0.14172743378019464 1.050743527555984 -0.08731672023979802
Ni 6.691191253060837 1.1158779043504663 -0.08024211259368717 0.7813011722246027 -0.1227022988279435 0.6234212970542619
Ni 4.583104120318631 2.0232117391737154 12.976655654844333 0.05454081136035768 1.238605293800396 -0.4915525012357018
Ni 2.783840485015217 5.534421626439762 2.8984450149066037 -0.5384273114103695 -0.7507639228676942 0.09982488000913776
Ni 4.132905199788949 0.17809812099739802 9.095483388562961 -1.0022242397993577 -0.18393492038618 0.7617469042417591
Ni 3.398302679543386 0.031043911044403343 11.506302043498332 -0.14721751036048839 0.9316248323142406 0.3849651056917499
Ni 8.344901155777045 9.28122317337251 9.799186845826659 -0.3213840385059949 -0.333834862674838 0.9674711525888885
Ni 2.125654602891159 6.459638625907242 7.847810460540045 -0.6240167645464156 -2.3209685051441897 0.6689143963900545
P 7.126394685064854 0.47201526717977826 2.255704950220592 -0.4538724701864248 -0.46724349217669203 0.1442334880315
P 0.360225989375687 2.8991711122457415 12.764520096176724 -1.405667092580321 1.0840575683270812 -2.813832011881831
P 4.627765606268138 6.4174191297300265 3.34993642584048 -0.7771442126334358 4.112606004752324 2.267820974586933
P 1.9612056262483921 8.782871557180844 13.36036188656287 0.6227412402681017 -2.6420226711145918 -2.104612488114827
P 9.108835408686744 3.491135431419304 2.8989204136759623 0.2092813695707686 0.0009286824618564652 1.1513291969905461
P 5.61388378792747 7.8838107751603 7.118449397429305 -1.4743957654052866 0.06912282293959064 0.910405003703516
P 4.850525213215042 2.454840395275329 4.4037655056574385 0.40886016714179263 -1.4615978423096698 0.3210274264975245
P 7.377780354627626 1.8130056309801854 9.098663546346268 -0.6742574058695227 -0.0037584386011677213 -0.3969204782814132
