# total energy = -340858.00338653754 ev
CRYSTAL
PRIMVEC
9.36291088638332 0.00000000000000 0.00000000000000
0.00000000000000 9.36291088638332 0.00000000000000
0.00000000000000 0.00000000000000 13.70356649975246
PRIMCOORD
 96 1
Ni 6.737953130572461 6.694677757408954 3.7782921226157637 -0.35409181315166116 1.265650470843646 0.4707880149948408
Ni 0.19788511722430285 4.7390934182060205 8.535102040410704 0.7704362044856409 -0.3573159765159137 -0.08343152625277889
Ni 5.816764437487651 8.602735961999606 5.927587593461804 2.0457164851095673 0.16339412012035087 0.3747470275081675
Ni 6.248918942839196 1.5782684017048418 13.630471063234452 1.1348075451864392 -0.301109604527675 -0.7978037978653163
Ni 9.068390961764615 1.902534087289383 13.488639819669885 -2.2917918835802333 -1.853973381532878 2.98680297705734
Ni 5.478089232366407 4.872224645166624 2.5666640676515433 -1.5158162373336022 0.5300470577664743 1.0387621868243917
Ni 5.57634361704357 8.224539910897583 10.25673533044952 0.5531152524398474 1.573868147171012 1.063250401773743
Ni 3.8733144305261495 7.629639292104219 11.982877798271879 -1.0321359397571255 -1.2608191108932738 1.8512212727090376
Ni 1.4393134443012043 9.132845238886551 9.690833518614616 0.517446081173012 -0.12300980276603331 2.231296397298338
Ni 5.8615472392706565 2.803395901287657 1.7889320194253704 -0.1623762203787978 0.3744071276702455 0.3008715203749399
Ni 7.7460389976794515 0.11255154928570354 4.187070248872258 0.8913718983314649 0.3628675024617622 0.19308239121340295
Ni 0.7699552146152664 2.387991643142843 4.142944723418996 0.12972706688520885 0.5316054033925296 -0.2569251967009769
Ni 5.563179364627323 1.3374356131908358 9.509603146908109 0.16247315096797824 -0.18241179887343423 -0.8953198272356194
Ni 0.2019233406006379 7.656248684257116 4.388252046947031 0.5306942044321699 -0.22039316321321398 1.0104399428409307
Ni 4.84907016705469 1.4693683875843844 6.058798487441916 -0.9230062374072942 -0.060776507857424354 -0.8987213967180006
Ni 1.9014386267398093 5.081354618117749 11.024230908429118 0.3994578999912862 0.5397707128121414 0.31440786429847783
Ni 7.026180972949226 5.78832927775213 11.383894950421984 -1.6984812898684232 -1.3067464695530076 -0.033730045262593523
Ni 7.191941943630043 4.38336835273628 8.280694903992663 -0.16606832451840434 2.3531774857765666 -1.1429062630341735
Ni 3.298834319926123 3.453565781825761 8.988882060560119 0.8318894266951156 0.555841650232075 -0.681154390099672
Ni 7.1859403178840875 8.391536785788174 1.5428157404145735 -0.8506417676019544 1.0135244953035254 1.3821795509813422
Ni 3.911449565726272 5.393195721229773 0.4589183855306644 -0.2548390035959095 0.4063708250610356 0.862651904688953
Ni 7.7879567487943415 0.07248578190334079 8.438326995620999 -1.4415123844137046 -0.3803674590187385 0.0021383864992414784
Ni 7.399985818942275 4.0601700389692725 13.270341684580787 2.1858071546172875 -1.0478235256957116 1.170965740274551
Ni 9.08759429156954 1.995891669680844 8.633918199728672 -0.23804944284239649 0.823044060489344 0.8753261577225119
P 3.5910601251633 3.520800843419691 11.165747558194836 1.6079321787342564 0.29240102101008353 -2.3933468589066003
P 5.003670548204806 0.13805143652300608 7.721521279772493 0.514054796103276 0.2773407842428514 0.9735273860852974
P 2.2997742987147674 6.493936952427215 13.144241067249883 0.5596815928034554 -0.1455655765793622 -0.3687938952485261
P 2.340446782709202 7.137346811454273 5.539981817126261 -1.033894317209129 -0.6794055257293654 -0.6811998986256269
P 0.1303157997190922 5.087758849022949 12.172398091094562 -1.6001777315998185 1.5286874368693155 -0.031788605265506545
P 5.803506555964602 8.898341777992306 3.963454916807921 -2.5259052245930174 -0.11387930121967485 -4.0459984920354195
P -0.047026155181962785 1.0898615289871445 10.862309667418218 3.7951117882190375 0.6001484425692503 -0.19822973974229732
P 8.497524934687116 4.898075641554431 6.5238158729896085 -0.05281791513198 1.4726705551840638 0.5630309688916625
Ni 6.050453325152725 1.8687620684661959 3.98942294957923 -0.38506435027377556 -0.19662717114186784 -0.006425186800053451
Ni 8.228903027274518 7.323500201596388 10.342904070020785 0.7632666833203952 1.4205589220904888 -1.1095942791456053
Ni 8.987907381558319 4.036509963680613 1.3988600524166845 -0.4886810932251778 -3.3938217201150196 -1.4674036503581696
Ni 2.0971609115970047 0.9805308209754017 2.1643959731909352 4.142017882255538 2.0252888133828346 -1.228460234946594
Ni 8.8583153348348 5.287497822561916 4.383469472171625 -2.972979440910686 -0.13529067701591538 0.16116703056204504
Ni 7.435452524598563 0.7813470680397665 11.082032837512829 -3.857201101350615 -0.5857250680550686 0.6864673176721533
Ni 3.1687928534899585 0.9302126663983092 8.357695481425955 0.2477815825284959 0.18873414154703624 1.0559052742625816
Ni 8.605123504223037 1.3625375767242331 6.298474020195859 -0.22521321030967664 1.3447165210388776 -0.35466156961220213
Ni 8.105649671081439 6.255903674206564 13.30020187932182 2.209573918019582 1.9737567069418138 0.02944427340304607
Ni 3.1417246787137363 3.571585270948653 6.312767439640127 -2.5781307575566372 -0.054492217510609384 -0.15172722530538385
Ni 7.465535556613783 5.620639547471209 1.837606983178102 0.08302272085013444 0.4734105402193524 -0.1747951628684409
Ni 3.4973467521659938 7.906687819128924 7.202073549276999 -1.2122427446464672 1.124130010867935 2.249639675692216
Ni 0.7703484568638314 5.4923489453322265 2.365304374273848 -0.16221321243837225 4.162856930488076 0.426580210129375
Ni 6.732747352234315 5.835986493113933 6.186365336585324 -1.8972123947271715 0.5279968601056649 -0.7774393752763514
Ni 4.393573925377609 7.266583067571947 2.284494028484814 3.512671992186725 -1.6373052325797348 -0.656073021651012
Ni 6.844072360220923 3.3504707723269767 5.699724308821898 1.7028120560332933 -0.2670517436120175 0.20261244219102525
Ni 8.385919039380104 6.9022909388299 7.643958927698392 0.3976203325619152 0.5614607961910653 -0.1403218116819196
Ni 2.12049328501186 0.8618212853353843 6.286072845000041 0.8786230833062288 0.6731428326491052 -0.13637336855713286
Ni 8.093608967946807 3.1610403634468205 3.532464221253915 -0.9794015854778875 0.09548768608636458 -0.27531809738586777
Ni 5.722255217082535 3.7499861710476297 9.902704015521813 -0.7437818351229061 0.004403528384334351 0.7342193882454516
Ni 4.760880911358655 5.715027050037484 7.924237658907737 -0.6608071939018878 -1.732399282772107 -0.21035197692712804
Ni 3.8119218251966127 0.1630532169121263 13.31358990530332 -3.006123788873139 2.3512797545332216 2.4851812645110942
Ni 8.355386587652237 4.24893568119114 10.237550726465956 -0.28751592500364026 -1.1485089539329316 3.083305220451148
Ni 4.724028494921709 0.7492322844069603 2.2134548162815517 -0.32238188364288994 -1.2236586997928927 -0.18949621652404142
P 2.0641098368961868 0.8193782749313394 4.2785271603956545 0.8548444928293923 -1.6087472184363845 -1.3307083796852437
P 2.8746851032060787 5.722311394546616 2.8536166815936763 0.935734226496924 0.2673214523336364 -0.6357695342069695
P 8.242179634618926 8.664830785630151 6.118012343456188 0.2815820760177086 -1.3874348858430106 1.1075528232355443
P 6.124242424222739 5.974417127519485 -0.030553050131362433 -2.3436934575455313 -0.46877021323386364 0.794329980384103
P 7.04463526989974 2.3935438491761536 7.862941491558206 -0.16653600818344222 -2.4074814985357698 -0.16334938292534448
P 5.478959983059657 0.15764894486756195 12.252070843235964 1.7178272984952028 -0.42095849306722344 -3.1309937847763627
P 6.665053508017059 2.947172757691556 11.665914246726762 1.2859259332632305 -2.104888881704665 -1.472666698529322
P 4.8938904204804174 4.033495106441615 5.232199535794068 0.22055797092585241 0.6092627461656926 -1.0214437501506022
Ni 5.09258074802321 3.3296570218850734 7.335683220973357 1.205538593153414 0.3213012489842015 2.11190439379055
Ni 1.5838018819167918 5.018538850364834 4.563451767884474 3.207180713651586 0.3166652928740869 -0.07989600229569466
Ni 8.237507542189547 8.959331778162596 13.284963742189927 0.364888646656849 0.037207976508864954 -0.8114422145843573
Ni 3.624935136003968 8.269968753517517 4.0769343305420245 -1.1230336924799627 2.212045519488526 1.1227375013957823
Ni 0.5599132941638977 7.311543764657875 0.44734301905683393 0.44984689396679944 0.7544539701247717 1.7936750988634529
Ni 4.517417144943536 6.773934796316156 5.65749009132602 0.4576465925168763 -3.1101606500810957 -1.4007408589232972
Ni 1.7557610994678468 0.8375179780830009 12.284287682595183 -0.9171613485907429 -0.21337096625910995 -0.206133053749774
Ni 5.280653534854749 4.074748090898217 12.708083917582588 -3.1116261788830286 0.05654575760552842 -0.40100210454995455
Ni 1.4529364793407769 5.613832711406763 6.939143355266846 0.8074369500797062 1.493531200683157 -1.9220801045031282
Ni 0.5240692632072004 3.1103495650246598 12.078240916131021 -3.3583132427957647 0.02440491120692571 -4.290900439023274
Ni 0.6493159830840766 9.144127546256094 7.60105338950675 -0.8832068460221691 -1.1669280798700676 -0.9574639048645318
Ni 0.5269399316217247 3.5515954566466004 6.118203346834062 1.2252964925066319 -2.2211605944159167 0.21757831947223819
Ni 0.8034557090287301 7.723596100779208 11.943918726931905 0.5535510544256854 0.0788253949393352 -1.388023668466945
Ni 2.0168084121402288 3.695231869390297 2.2850014982436764 0.9565100255916945 -1.1682036041483816 -0.39714699246992247
Ni 5.449775790469729 8.085528776029864 0.1012973306482012 0.7151387174649168 -1.7101271016374675 0.5703717255274501
Ni 0.27197851089142 0.13813944788339919 2.8330894362185846 -2.4210525523519855 -0.6900717471939599 -0.32910326152712355
Ni 5.996054814101238 7.590792575692407 7.940613389687264 0.8466308466703483 1.3571508901474885 -1.139806026842295
Ni 3.6813373099410014 0.21235268680722183 10.779115524570024 -0.6448216171069088 1.2829452533683516 -0.44640367261320535
Ni 2.362861590877405 3.3869393094260376 12.686268335697912 4.356667458116754 -0.04277981416968762 5.091567674479315
Ni 2.425827165201202 7.951358265983768 1.9535937843923408 -2.6168451434076996 0.41685321264959824 -0.609727087396621
Ni 3.504462564282884 2.4875849240472627 3.8522094935620945 0.5062095890272443 0.20157577339639476 0.31001256344425965
Ni 2.529062618360187 5.710392409250824 8.940658389102168 0.05656375532765742 1.2992745866559947 -0.48645117545339445
Ni 1.7349567119366236 2.152196100574741 10.049455468648786 -0.283200328347422 0.09708716936300053 0.826607609470886
Ni 4.605915376692015 5.689662925005043 10.890717674712766 -1.3644101428130633 -0.5457202455273569 -0.0521406865592973
P 6.097913919390246 6.369213619257357 9.527815880763075 1.9423149434927645 -2.854796112999019 0.49317126778604736
P 0.8955539799337149 0.2779632833981517 0.5824985073064795 -0.19319269153902213 -1.36072112399725 -1.1040738635480083
P 3.4062362683377616 7.388160462753285 9.944500048797861 -0.166187623705088 0.9722158663627256 -0.7125776416059599
P 7.935881374629532 1.8393250772879037 1.8244923541884601 -0.04202390984026956 0.20186502250203944 -0.4266066924919363
P 0.7317198962708666 7.296441389730845 8.938890671565762 -0.4143602710244154 -1.4914015559346638 0.0013595993516879812
P 8.762148879239303 7.382982773147179 2.3708537714339544 0.9418966465538939 -1.0122448572601535 1.1471696662962179
P 1.6083701595414224 2.3803702338492267 7.766140230618597 0.6090606574572155 1.0054368331993844 0.0783152880721361
P 3.5383563009449133 2.531309716923416 1.2003120411162294 0.9042577531551974 -0.20356555013291394 -0.14192412317203298
