# total energy = -340864.38365563116 ev
CRYSTAL
PRIMVEC
9.29515647754752 0.00000000000000 0.00000000000000
0.00000000000000 9.29515647754752 0.00000000000000
0.00000000000000 0.00000000000000 13.60440107370969
PRIMCOORD
 96 1
Ni 6.035847000584139 3.3644562267075186 3.848345338541448 0.6360886081092851 0.41645392032865053 -0.7319041098487137
Ni 7.849508625686899 5.741487987142321 1.7515393062150582 0.4540218512800955 1.1836474495072775 -0.14152611640266594
Ni 8.881689270111766 2.364046426919007 4.734603181393106 -0.6012331909929968 1.158573280147469 0.14777569685680356
Ni 1.6037026319354037 4.615574985399426 4.805305859170163 0.6197888425079972 0.16112409313925152 -0.5660867249988508
Ni 7.282178753720832 8.92688232061556 12.462338751396121 0.44838290782676327 1.832723471015166 0.1758526575986778
Ni 3.9511850901177263 5.54906895413553 9.741309053701029 -0.13806284044441386 0.005484934373971199 -0.7380310486820579
Ni 8.276091239173237 6.921563865332277 10.45688644586042 -0.5003677855344867 -0.6218318410799548 0.6594704773683352
Ni 6.5013391388357755 8.65070463312714 5.595354185518425 -0.22439611372502 1.3885340324444602 -0.558990994494334
Ni 8.88573266315355 3.6981058663277686 10.465974320290194 -0.12317975268499431 -1.0812226699814473 -0.16184940134105028
Ni 1.055427830626017 1.636365811587878 10.068997709510484 -1.8695203281285415 -0.7561578401897557 -0.7291270613242088
Ni 7.739388907604126 1.974904703483939 0.3601306107391836 -0.9028408182030129 3.246944109592453 -1.1438398305920365
Ni 5.221024293835269 0.29501711051620516 3.255546737990356 4.095040485064735 -2.377883216053363 0.2633647816787335
Ni 1.7822254060974463 7.2182280775657315 6.85369342171575 0.26815731797137043 1.2389359376669373 0.1070504512232995
Ni 3.535524285422411 8.196255140699959 2.312067912230152 -1.8879420251688388 -0.5631983477074624 1.140365756000507
Ni 9.098294300117916 8.931901705081222 4.948315558722006 -2.20887072130497 -0.2959146905902968 -0.4400954710069904
Ni 7.172319300017762 2.975212256551854 8.525864175825351 -0.3733285498940861 -1.0119072714150765 1.7709149223488017
Ni 0.023893199572192565 3.7481695787945375 2.4208760837423595 0.2818034479998953 1.456163558667976 -0.47647246697412776
Ni 5.207490546090817 2.6970175201207507 1.554085086976694 1.7602970376236393 1.8011706359095494 1.2017744981252916
Ni 3.8094711353705377 5.915186575123477 3.5890718225146063 -1.551063747681987 -0.7205745437685075 0.17557266446441375
Ni 6.389351094313008 0.7611524735919598 7.742359639595285 0.5776482045842052 0.43045871924817475 -1.2913890132603307
Ni 8.852911465841972 4.444925208723338 6.21357875693502 1.1487460096444024 0.0448130425496325 0.47399418063696436
Ni 1.898526403198117 1.1917784801200815 12.299248725434705 1.182836266459892 -0.5334573689996038 -0.6620827181802017
Ni 6.60695070605587 3.3229440581452105 6.193389677195357 0.20338505869099166 -1.0003041399585093 -1.6774715203859756
Ni 3.143965821318692 2.3647993345888563 0.08390830649995701 0.6544126032294536 0.7358546098560295 1.9475299120348006
P 7.217568121460062 1.082244356891637 4.230438544864827 -0.39748766363879284 -0.7844214630211394 -0.290858359113312
P 1.5527465844525175 2.3241237301041586 1.897569002087074 1.4281773578676953 -0.33012784613689594 -1.2199270006646024
P 3.2664573925936784 0.11809496228932369 4.140458642192703 -0.8091151091130775 -0.1817577102292031 1.43890400025658
P -0.24768896258322215 4.006946733468663 8.392868148282503 1.4013036734053028 1.146758289790412 -0.5746389854442362
P 1.1876235452012835 2.900534969890506 6.182546877233885 1.891775025761684 -0.23799416412442884 -0.025574248924678532
P 3.0398879549075497 1.8045058960311346 10.517806901023286 2.0103550748911374 0.887902965946258 -0.4499502523138832
P 0.011359610658306374 6.216991008856028 4.463195768178347 2.435699098620567 0.5251061688214311 -1.5605122946893963
P 5.2984622419527305 7.183296879747292 2.600943712901056 1.186517314855905 -0.9639631394356304 1.8334459510034877
Ni 1.9148022220858465 1.8637346327259452 4.008414438667049 -0.5829310502496993 0.6788774211400374 -0.17098324532151843
Ni 3.1620263102386565 3.9174715577900305 2.2299377691529383 -0.9841465563620406 -0.2929268116065665 0.49454886485986443
Ni 8.190352716374596 0.7776625304214203 9.491287006856917 -0.5945256970658341 -0.6011318895284422 -0.4797233698112577
Ni 4.040762512516956 7.6507224105338505 5.418034204596858 0.033998468432631775 -0.029399279097723562 -0.40615022440979726
Ni 6.2228469573993 7.680169466065733 0.782126994048934 -0.7044938361565609 -0.9704726584193739 -1.2262076914669915
Ni 8.023597610237607 6.7819970917176216 5.9161049365775655 -0.26316989205910807 -0.10325524584692539 0.1365983400837454
Ni 6.013808184717316 5.962972974267863 4.433307192716614 -1.155605969989029 -0.14953793096354892 1.0846270676773062
Ni 2.1206992318985822 3.6431436064287706 9.416259292798612 -0.7561349573716203 1.6481971969018905 2.2004840399031713
Ni 9.000035201624375 1.5231043306358583 2.690624311536524 -0.7610771318682441 -0.6533306830191845 1.3233946196326498
Ni 1.370989095857048 6.018929815903576 2.293116947325353 -0.7284891706298937 -0.3527856927457279 1.8753143091024993
Ni 4.97165383745605 0.35460092218617945 11.970213201460297 -0.6726334971128544 0.489389432146112 0.12543023928206787
Ni 4.047036743099033 0.9792540237813885 6.295858552030562 0.6490490249246951 -0.11484629311863447 -0.4026890053340742
Ni 7.8857039647781715 4.6999378250482176 4.1108823839866115 0.7145671612321629 -0.3092417467165061 -0.8175804662716113
Ni 5.796905709705796 7.454334345736618 11.505868085510627 -0.6708054427651802 -1.4874016907466514 -0.04761117412005993
Ni 2.466655658616122 0.28034563562620374 8.194188827428261 -0.08424579462395813 -1.9343807762473526 -0.5656331824012001
Ni 3.277602285138731 8.945686422048956 10.21410253731892 0.3202869487870742 -0.9392561236072534 1.6789748444043795
Ni 5.371484990771694 2.7769744556274616 12.771648094420476 -0.4933748991564213 1.9955984854072533 -1.2039280541331847
Ni 7.2267610311573565 0.37798567670231326 1.6880887094752406 -1.4342024810158527 -1.0068923346989884 2.2893562775555476
Ni 1.8803357820883013 7.675428936292608 4.273455599251192 -0.17287583435854098 -1.151898439230455 0.7325049766575062
Ni 1.2508027233736987 7.748935033245302 0.509770545363909 -0.3150850928711606 -0.18693179823097486 0.5856875299489139
Ni 3.7297372836178564 1.0976557262325026 1.8130453562322524 -2.1124409830203104 -0.3377365117220893 -0.0875208658308041
Ni 9.118353247667727 6.329620419171631 8.17835359895474 0.2129721881587945 -0.9480079016579542 -0.5521703720280748
Ni 0.574458327422948 8.626379208781515 2.591053666472418 0.3400456194712402 -0.478152425779712 1.3845238828438025
Ni 8.767507568674375 1.7579185720646577 6.923007403123975 -1.3306878108599534 0.563223801628759 0.9823863791378241
P 8.317863672115246 7.930395076835398 1.3839893016231124 0.6132836943996276 -0.7342564121309741 -0.721645665345499
P 5.106935543962057 2.98903415414526 7.61845055696657 -0.6708355246721672 -1.275347643526752 1.301314242793843
P 7.1625129099968845 3.819063736793803 1.737526857915085 -0.6617081084496024 -1.2516245888781992 0.1932150601365253
P 0.9661757387014137 5.599188437540806 0.22897688319836282 -0.7698247961538871 -1.5805437594189748 -0.5174152279350767
P 3.1078541386351795 3.6553481468054634 12.14708422632688 0.7142629997281827 0.5711304580703455 -1.9313931543739384
P 5.694575332701218 1.0915395133095294 0.2960395777221733 -0.0877959738690617 -2.351688045715234 -0.2257225458459274
P 6.300731073024821 8.859864242842555 9.828880581345278 0.22912771487273442 -0.47613950911474134 -0.1233748994149359
P 4.195099289679643 4.033902687080551 5.1306140254209955 0.04028173033818224 0.5853021215850371 -1.8385886715466915
Ni 1.518038470388107 6.017637789161489 9.706603728183543 -0.550798945601845 -0.7523520932904204 0.3584189797721053
Ni 5.2103162736418565 3.4765000421687944 10.22494533728039 0.010124232918195468 0.7746636123034272 -0.00571813343069983
Ni 7.467449811442265 7.861713166063591 7.850255956262897 -0.059335147425207485 1.7412461916397752 0.9669183654092122
Ni 2.9425583720557977 2.335668314375181 7.928236741515164 1.0945895782066568 1.8039988493869639 -1.6565028885541084
Ni 4.609672561074063 8.348816542986828 7.589623488367759 0.04726947450992504 -0.4605216000718263 1.7063943740679128
Ni 0.7096944876625071 8.39754175292942 9.817779376035388 0.8788588534661186 0.5622809780995155 -0.9524641376570951
Ni 8.307415916301535 6.813275293063829 13.086522447592227 0.8305858773923437 -0.729975268257117 -0.2842362258111041
Ni 1.907496229141383 5.015062217927608 7.437444117009665 -0.29268075703403146 -1.2534076489205512 -0.19651507104403573
Ni 4.297271649025116 2.0493031354527504 4.0311745586719 -1.879024668074551 2.2968142764954895 1.4046975295782003
Ni 5.074486152907194 5.1801813765350495 1.6371131421638763 1.4706722938071124 0.2736479087722965 -1.0148614689473943
Ni 7.387901862817941 7.580107107227121 3.477802293582941 0.5150760382789387 1.0277558084115592 -0.765007834381218
Ni 4.437647101248128 5.030454996955638 7.044032198716219 0.021736620346143213 0.25227972750916555 0.43713484571676975
Ni 8.070194229360501 4.2201590313822805 12.84911206897591 -0.4563468998688463 0.5299128461814551 -0.13941806892072764
Ni 3.1919660090606885 6.7156389700502865 11.619763496130348 0.6806193435318085 0.07751156122391813 1.0768651643437002
Ni 4.9483601754728115 1.2307716612931405 9.389389784141411 -1.1569701973264073 0.513321003261045 0.5784372761444038
Ni 9.799604556691483 8.823464410310088 12.334675355090218 -2.1067493319521713 0.3981960025597271 -1.588434217910645
Ni 3.1381656437139265 6.515161036429182 0.8933193731823308 1.528510030751187 -1.9605985722933006 -1.9069427346410577
Ni 7.06920812987408 5.070489235647501 7.551055095842999 -0.6151431162058697 1.5344701049893636 -0.0858355077085812
Ni 1.6139365991515036 0.40988014691902763 5.8777540507129835 1.340434348723756 0.7998419113412676 1.1829486236680402
Ni 7.054094205538587 2.2167925589467545 11.233371279963693 0.2064220457451026 -0.28438560690477477 -0.3588699512665948
Ni 6.185703512353402 6.433419430890236 9.206697202810302 -0.8004219522144537 0.25381519031708544 0.565233118749304
Ni 0.772473044593311 2.9134831227806304 -0.14909430894299502 -0.25570932201600477 1.352168863551865 -0.038241559979701883
Ni 0.2900981137398565 0.6864863411183132 0.7634242098204926 1.1719818402438913 -0.4657401681582883 -1.9339287763115982
Ni 1.2303254937850816 4.68462870242795 11.688792116236543 0.8406496893862491 0.8902593819935765 1.667632937028999
P 1.0231085717610051 7.04292142752428 11.56202663204061 -0.48275650021062666 -1.732715785571261 -0.40901263355925693
P 7.122673869589797 4.8857015260597985 10.483728069048366 -1.2923398072093744 -0.03444918281680519 0.4365943998322675
P 3.1136543162399444 8.758082280066633 0.22300288616858335 0.14445074624862864 1.0110140701768457 -1.042803960993933
P 0.40858068405180625 9.455869672357819 7.801457314584603 -0.5071842942356878 -1.6593136185300261 0.7428392687039788
P 5.870904449948638 6.8279895256733525 6.610908583658609 -0.4580170884824177 -0.8350660246508844 0.34148620857250866
P 8.845400979456313 1.4910732216198008 12.14947865862013 0.8116887833775247 0.20654802980000556 -0.9732409651931303
P 4.982891681565283 5.998052894588989 13.078400339914271 -0.4720673959278966 0.47672520641488225 0.2680896979582286
P 2.8954226338606652 7.2958984045936415 8.866518645322124 0.8340622659767184 0.37758783939107227 -1.3473675855084797
