# total energy = -340895.40273157036 ev
CRYSTAL
PRIMVEC
9.03556610817109 0.00000000000000 0.00000000000000

0.00000000000000 9.03556610817109 0.00000000000000

0.00000000000000 0.00000000000000 13.22446432833363

PRIMCOORD
 96 1
Ni 6.372070814238485 2.027219563629765 11.320299987569726 0.7003900984008324 -0.000800384414108299 1.0624549024556411
Ni 4.476833761599718 0.4172027981783857 6.239116979914051 0.3411038855324255 -0.5837787429619753 -1.330585223843818
Ni 2.680915649250743 1.5683212430840863 4.842388361580277 0.24780369401568295 -0.0379008888108315 0.044189035812388415
Ni 3.492454035446906 4.61777051839013 5.013619563694892 -0.13732724782996994 -0.6650531136624352 -0.4693242859651207
Ni 4.942282867417422 4.523150072364408 2.6780595068721404 0.2961813139881222 0.06640362423621467 0.012417656938062484
Ni 7.104728710193572 6.01362991528505 2.6111303596370057 1.0866147875312964 -0.39284013756445246 0.661609635198525
Ni 5.277755357872252 4.521785701914649 11.625811445081787 0.063249137767633 -0.40833206255246457 -0.4941613996134586
Ni 5.5521112806305615 7.737561674168886 12.360602638144082 0.3504539592887578 0.09011459469990933 0.17405288538577765
Ni 1.801646661124786 6.453264409348029 0.6168607941472329 0.5996913004271736 -0.2531191926913254 -1.2359868823409423
Ni 2.8172713741336852 1.6631314359935494 0.41441351898738676 -0.25548486471002446 -1.313767895176163 -0.9128791762756213
Ni 0.6704398927762745 0.18623385572243634 4.569859430245422 -0.26883531787500153 -0.8681409528279823 0.8669379336588167
Ni 8.645870971073172 2.186805728422192 1.014669653694067 -0.3764640101992742 0.21072118734108872 1.2021539929518974
Ni 6.749540614961418 0.6764042698218798 4.836583010494379 0.1130174674400118 1.3339903928706254 -1.1184586715147706
Ni 0.9652875754220676 7.286985109810153 2.6768957259851924 -0.460461179147536 1.345659344568121 -0.21030621129085716
Ni 7.536077590333175 3.922836110036017 3.822967807339961 0.028527932236363775 -0.539430041643271 0.06615628411209896
Ni 7.516940261772969 3.877721529535021 12.51998369559075 0.49914136932655323 -0.09569543122179648 0.08484023367484743
Ni 8.091195652067539 8.728609647950325 6.772221692464643 0.1341197966362658 1.3227880963969023 0.3182673472538841
Ni 6.840845008304611 0.5505252835912323 0.1892119782405874 0.17342270800094647 0.07522507918258657 -0.17242691974658048
Ni 2.02243974927266 6.378811346394253 9.150998860950976 -0.5590203050703727 1.239727323219981 0.8139570105864111
Ni 0.00828109614042913 4.70828881750068 1.3360674431582307 -0.17520345405045312 -0.19298648906548696 0.7923078077477516
Ni 6.268812367219583 1.962515876273941 6.885171687459786 1.1953652521648381 0.6093673900643569 1.419443320428807
Ni 3.391445444335223 3.995870589144679 0.38034491778990936 -0.4901327380700398 1.6244083220124086 0.25024135692289806
Ni 5.742843041054258 5.798655731571913 4.867025639099217 1.1247118515133339 -0.2890845550423408 -0.2882913697170842
Ni 5.23948070075184 2.8922123576456533 9.387054827004373 -1.0378394178998063 0.5321833873831867 -0.8234407817071303
P 0.19572119990950734 5.521444569991591 12.42410640234939 0.5411097433385391 -0.3257808820221099 0.17214821216389706
P 4.052379018236052 5.937695019524913 12.729340467988552 -0.46461608185617403 0.4906060781620325 0.4622342118875587
P 2.3411603005628914 8.528264045417062 1.356711000552708 0.443447675308675 -0.3664423642972141 -0.9784559337351665
P 6.47865434950581 7.852728997034036 5.70299709902515 -1.407746600817169 -1.6850832712949624 0.17008978697297158
P 4.792554505013656 0.9601101961656946 12.45863491385079 0.016082507384159398 0.518049776195282 1.4000790569695822
P 4.165901868108777 6.232480356766048 8.183655694288376 -0.31959660758826897 -0.05726618071132073 0.6725319385379837
P 4.737817046837202 1.1716599004055934 3.5652228689183296 -0.11062479883811915 -0.47547770716102633 0.2990874318913236
P 0.27514382410413046 5.516267190735218 3.6300096834803646 -1.0536362757227467 -0.8137045282559728 0.21138453195670046
Ni 1.4283603274100576 1.0810783523337963 2.5003886569459777 -0.4637375359059627 0.6031093249697872 -0.41174108823401345
Ni 1.7946892753876007 6.5505864895755925 4.9474177795141 0.3115446838180699 -0.07331500664406727 -0.40097510796676106
Ni 6.0991876887206455 5.674606447434487 9.372825617836947 -0.30276102408816885 0.8837004978291362 -0.5885959618449605
Ni 8.656659436748757 2.213794963742936 10.09203768818748 0.493102362221325 0.9709639962334955 0.5690329521113684
Ni 2.352590291416839 5.127168616708705 7.082890650988113 -0.3591311753477815 0.11917191707718185 -0.22234411629199774
Ni 0.6782086723306018 0.01488067346827358 9.141344358794894 0.3397705114329826 0.8977595470253634 0.02411849031475846
Ni 1.599015060420734 1.0734613702864622 11.36954743590993 -1.08624994799271 0.36040772806735993 1.3891989197219687
Ni 4.1510112555180205 6.952325820285641 1.5141349544270721 -0.4305692766841101 -0.15438368909162445 0.07826746555333616
Ni 5.985719052243277 8.005710163159083 7.983330873556667 -1.4729358930303085 -0.21613901592255033 -0.48185558566291203
Ni 4.950035382953142 2.659636891574027 5.0745707805355815 0.36964750149807307 0.9842815392780081 -0.6668819393410579
Ni 0.999315516573029 7.662421908207284 7.22833344448909 0.590152507698803 -1.9178185010132969 -0.5322093555251157
Ni 4.993523561593498 4.448597618185815 7.22180073034885 0.08079948794657052 0.2550395496424898 -0.10244072036543
Ni 8.146999307019302 7.437481495314777 9.04136762930813 -0.5510599125727155 -1.187413087197297 0.004943974268836646
Ni 4.5258336354344655 0.29065879429805386 10.534343095528264 -0.27087497401284966 -0.6946097442736295 -1.8911553898998144
Ni 8.276858460025572 7.3233622980931505 4.435365935492913 -0.6571513423168553 -0.2904469826075063 0.8642827554241567
Ni 7.219317756841605 6.119264716133666 6.9897240275144865 -0.5392773181154906 1.356065884613426 -0.7400761041365448
Ni 2.289756966200751 5.110335357451072 2.71765335661285 0.3154627879255535 0.04789296702653687 -0.45340401519043844
Ni 2.4040930170037957 5.283113448446475 11.456472290465053 -1.3828842903578507 -0.9918956041798401 0.37374583993716276
Ni 0.9618811670806143 3.278031021253208 3.7962803599200248 -0.49080328177450305 0.09281013925420145 -0.6952075257586285
Ni 3.295406414464387 2.8034288871864534 2.864392753819393 0.6778307250430777 -0.092867217744382 -0.1245583782000758
Ni 1.1926133777101815 3.173010638885278 8.195583544822997 -0.9867734524619263 0.1110282049241249 -0.7008415841159542
Ni 3.509205974611505 2.557083218694735 7.113862763754248 -0.503077728266482 0.5557902281688493 0.13502971004504488
Ni 4.030413557551509 6.93350473653167 6.10037947986186 0.1544993887338823 0.20676168847270845 -0.1258470151045123
Ni 0.9028256119641597 7.395999212302545 11.5747650155724 0.09551648244177098 -0.06777376511086391 -0.6851190311743749
P 0.1167060797366337 5.73779215972038 8.112639760600088 1.0051696955809268 -0.09374782057712241 -1.0405958975990206
P 8.413575607544212 1.5933587961720614 8.039601667265067 -0.12786018887979916 -0.2099334013324707 -1.5631638733796305
P 1.7658748557565822 3.2789526489742378 10.297163105077848 -0.11667049081156682 0.014382236863601036 1.3428190469058487
P 3.933642646843385 6.366125411881255 3.7162595812633215 -0.20822875993653817 -0.42370340280221225 -0.12582233251416394
P 6.969502431047187 3.8815797161710965 10.146496850934446 0.5631592669394108 -0.10328327087138342 1.4077825962614272
P 6.278597885081106 7.906698432109631 10.204948830249284 -0.006466581560950153 -1.3345706908541275 0.5822489365810102
P 2.4503731855049176 8.467138442154647 5.691201167752558 0.2534899457671828 0.796679711563202 0.7633939529268788
P 6.84146846235119 3.8565873409125837 1.5938259349287007 0.3427617328508226 0.05557850859625267 -0.017526696029853687
Ni 5.317014891674941 2.742366532885286 0.37004166200275024 0.5486132508044359 0.09510896259070717 0.3919520785325443
Ni 1.4047865359966594 0.9420480999466898 6.921472976989286 -0.064582768977392 1.1158955387732845 0.3158368834355206
Ni 6.658832568967126 0.9029358458680475 9.303000571733282 0.32747292501255215 -0.3613652068846228 -1.0836461918212756
Ni 2.6765424353587983 1.5379165638559968 9.38634101729887 1.075778873258057 -0.07206750739021137 -1.687807869314977
Ni 6.494023847088864 1.7138480673478633 2.4521459635330163 0.07533897905263154 1.2406063833908247 -0.12448947263535336
Ni 4.148671043951876 6.570880370570031 10.611257446631145 0.4601500756650205 1.2492979976275518 -1.0643773162893346
Ni 8.273994185637667 7.025866291084281 0.5728548775812404 0.4596805922277696 -0.353723631178965 -0.08590775570741334
Ni 7.6005644241075805 4.116531536072437 7.995630085849467 0.7443729317396859 -1.8905912898662276 0.9088160619498413
Ni 3.2543849453126703 8.26806685441222 12.395012783732295 -1.4762544158805802 0.10113177174601938 0.8239776280472068
Ni 9.075412738034286 4.853842748462134 10.131817670585573 -0.15354113858567106 -0.2516125262388118 0.5354088362990198
Ni 8.683928774612166 2.4762329750891054 5.868514209269379 -0.4697482608764168 -0.4486909259854853 0.0021476424706221076
Ni 3.6719816941639665 2.6713831272342103 11.455400672350208 -0.23193330264232956 0.14652176984504442 -0.07828572038578131
Ni 0.9989450583714385 3.3840995292646623 12.508028738358451 0.10917418243452166 -0.09970789481529924 -0.7139657802027382
Ni 3.3331027953676826 8.374054042330641 8.076590563358984 -0.5044357849562732 -0.6843469288950407 0.9202114482709765
Ni 5.710748711004281 7.83521807033447 3.4180877139256967 -0.6655501079035119 0.88517194016834 0.3231221042430242
Ni 3.1861122094293286 8.626146330729958 3.4170558523007792 0.10234944620320437 -0.9809858992458717 0.6870720411356877
Ni 3.3159081134743524 4.372418762146581 9.280928491371208 0.966908080996567 -0.29964253306384525 -0.19509916453311563
Ni 7.306917568168894 6.220761227803541 11.669677310376448 0.23848704460044734 0.15674781844842683 -1.5839023914785624
Ni 0.5024895046372079 8.917389726141254 0.18371383639503244 0.5173334668545477 0.7035407282146722 0.3591931389339685
Ni 4.572104768369695 0.37955069154796317 1.3685728914563144 0.46223678299072 -0.6275373761051645 0.6483797667718124
Ni 6.07266830282631 5.680100071497096 0.5235694798642904 -0.8166075608353808 -1.2836883021819634 -0.9146887186805344
Ni 8.070359637119552 8.814429452796801 11.010860769564218 0.029910928626819454 -0.12391225997564463 0.7748171071621559
Ni 0.011870022912909709 4.943132210611311 5.89200125925021 0.25526015029372817 -0.1347224632172712 -0.3031040092498844
Ni 7.926350787925707 8.843379405916206 2.3472231652767244 0.968467712174203 -0.9257593746723992 0.12797588852205705
P 8.46865641722458 1.550710925159704 3.4840383093746787 -0.561628175006865 1.2883895643123746 0.5980380810944669
P 1.6487377795268787 3.083775390131456 1.4524825776731276 -0.33832040925001733 1.112945197895709 0.563109644648398
P 4.649738350517612 1.0775454460698488 8.312369137539484 0.6218164144609872 0.15867511737812673 -0.2890814697185473
P 8.508277373662965 1.4815255971212251 12.218452404854313 0.0097647926962477 0.7539533763392692 0.19463919417756154
P 6.358201220593577 7.665331360424652 1.2890427440275714 -0.39188548696066705 0.8772855954417278 0.3851913627699431
P 1.7576976686239163 3.319341628513483 5.821686485475176 0.46857583783487045 0.08500015629147942 1.196836694504042
P 6.750624882868512 4.112140251048707 5.948733770375717 0.16704688638158974 -0.8212607433366759 -0.6483178031856254
P 2.417366263299803 8.44858842537745 10.263876983886654 0.5919077998270129 -1.164739299748865 -0.07082335057046513
