# total energy = -340871.6214612827 ev
CRYSTAL
PRIMVEC
9.23059368533364 0.00000000000000 0.00000000000000
0.00000000000000 9.23059368533364 0.00000000000000
0.00000000000000 0.00000000000000 13.50990690119525
PRIMCOORD
 96 1
Ni 1.7294994048438528 5.660080012157956 3.264398511859612 -0.17208830546023912 -0.10883685369976094 -0.2792076622482611
Ni 2.3584074401876514 6.342497798736662 7.194754815748666 -1.4329405835842934 -0.09059487677043752 -1.076132914163366
Ni 0.49676654926850955 2.0030295856863636 10.727703603190959 -0.6381418910938881 -0.6418391374398172 -0.30546119662815135
Ni 7.322279158893526 7.012048137804336 11.463182534154477 -0.96288327610789 -0.935828328872627 0.4458706829278708
Ni 2.675524484119905 3.9182300730459803 8.327979102885562 -0.6314912185465898 1.6517849142531487 0.1649072143307676
Ni 7.367499837054611 8.50829967237824 6.013030220536287 -0.9524906200196563 3.1424058832680464 1.879998087731414
Ni 4.250688363580341 1.817116199517261 11.810738383619286 2.4870499422887167 -1.871168919475558 0.9748175656516309
Ni 4.695538362073342 1.0554999196496957 5.229698046110286 0.5225913728193774 0.811547372703654 -1.6963076792558724
Ni 0.4817012974157419 9.10878670995556 5.721566842402215 -0.8379374326614085 0.9835372049128157 0.08488857041427961
Ni 6.588650038892139 4.184292703647152 2.7589118207950665 0.8231682447720339 -0.1439547804488166 0.4189124091714721
Ni 5.749164471217486 8.221892813431072 1.3429775274571791 0.5374538917535067 0.047221394880808995 -0.5971682768950037
Ni 5.6958208706677995 8.33587218349294 10.381566495966066 -1.734930790944709 0.9857085015325218 0.17463935401686698
Ni 3.903119591284458 2.445461168650032 6.877353469532811 -3.0597171487185624 -0.7407294214498276 0.4521295193533891
Ni 8.445725478205143 7.15565771339735 4.698583534909705 1.4586634422716942 0.3482335545986712 -1.984930721280762
Ni 6.716539913544486 6.288766513254792 5.883186229213864 -1.2650897132441696 -0.43785012661623945 1.7113422049914913
Ni 8.249898434484498 5.318123440785106 9.95685580664062 -2.794116278620459 0.6722570876100422 -1.2690319857213692
Ni 4.680714028714146 1.2481977921320044 1.0157622141009153 0.13916610081092165 0.2911100701128019 -0.20297573906771496
Ni 5.952532909928458 2.9189629297500987 7.052320294723912 2.7445274119487375 -0.20206942520336166 1.4601351417212143
Ni 1.1169941343688536 4.970831586297925 10.317543098594093 3.2789083212038754 -0.9555700302759285 0.7074830006918719
Ni 7.58333880775081 1.207740100280598 2.016421330915207 0.542337445098053 0.17552021395992354 -0.6872026531762809
Ni 5.113813481524548 3.5695351683280414 5.074631457711896 0.6121122997993458 0.025539281921685048 -1.2583655071464586
Ni 0.5051931581873206 8.658952190905914 0.819203184305934 -2.012165388626999 -0.27951490907603477 -2.867351581066526
Ni -0.00786815800459475 3.6276879081555244 3.2801375970468882 -0.2801502286671885 0.7985023665942377 -0.6115278880507856
Ni 2.683425872261544 0.7271557046932887 13.219849422150748 -1.2550359285525934 0.8877857236421032 -2.063107684002821
P 6.653818029873415 2.8002021121913048 0.8390923443862957 0.3821687738935354 -0.9072086082534053 0.18557656975466102
P 3.7582454243650365 7.974457520761941 8.835749442812538 0.1747260001934023 1.158178872922528 0.32884872231415624
P 3.0003398431340824 5.734561672105252 11.44341798708803 -0.9085581803027644 0.0813972694315695 -0.09989661378733763
P 8.390304994090188 5.400368029969689 2.199210161142785 0.6670238642355609 -0.5148454103253713 -0.06373019116910959
P 5.490070938801988 5.675624331819778 1.6276056510131158 0.47750733599654543 1.0513469654679377 -0.17069733864998343
P 4.5333568321100275 -0.051970088218523426 3.108264866838355 0.07143038802684472 0.7661139229612031 -0.514096705084805
P 2.1445622777141105 2.1937521111332625 9.435872795001094 0.5706036390325979 -1.234762265905222 0.056542672281734874
P 7.69605358648627 1.7129027975089615 7.345039033590768 1.8066542847319402 0.5036274301223649 -0.860494749136634
Ni 2.2068964764529984 0.20231153574109037 8.174871246454058 0.6438188868740073 1.243617916523639 -0.8300821982830479
Ni 1.5381491990305618 7.386847161289279 9.328550529060431 -0.43308947200280246 -0.7414213053105295 0.1734101095954562
Ni 8.065683477542104 7.532635156977418 2.251533781097085 0.8088646836651683 0.43821753725798723 -1.5640177367394936
Ni 9.129758618667946 9.351145176131814 8.36780634519249 -1.150464792107722 -0.3263760924039476 0.19660685942689365
Ni 5.1856090387274305 4.1972616876880435 13.536116328410287 -0.8871743153103496 0.4552408112888612 0.4469160934732496
Ni 0.6195491364690234 2.480500502044497 7.863239021252835 0.6813644492279491 -0.9820670481251926 0.012633629603610499
Ni 7.997506313039596 0.29839001558907885 11.21822104057642 0.6606683543311783 -1.3819530367928328 -0.7278731343124496
Ni 1.4745042559971493 3.687216006432896 1.2587825138399689 0.20658093992047002 -1.375708855655334 1.1652792314127352
Ni 0.9028988228081178 1.284409410916642 2.097075488818477 0.4134375020998299 1.8511040304048827 1.7701831863890998
Ni 6.674817630366672 8.96827861382001 3.537380395440892 -0.2824318256125136 -0.06732665027111631 0.8389026247881551
Ni 4.231110274505088 1.3843121257028093 9.41044712486541 0.43261690324175817 -0.3017996886161641 -0.7658146465532295
Ni 2.874342240174534 5.13945607061038 13.565027470698169 -0.33279767965957524 -1.322901224935999 -1.6295723827118516
Ni 6.4499326779195325 6.588945417888088 3.4611439996457856 -1.3425727352229975 -1.3622265048981828 -0.07101104110123899
Ni 9.007268641285295 1.9348985741519737 0.26991732649830813 -0.6397843117933175 0.478634250512137 -1.7366176917288283
Ni 0.33497547341546474 2.679475178190724 5.292695001471335 0.1753176110308142 -0.8925762030522112 0.981564140346845
Ni 3.813287454141431 6.808735082655106 1.0532070401936404 1.1969230835702613 1.492725931173042 1.0064053677602411
Ni 0.42060584434111536 5.615736240391094 0.3519911497008589 1.1039085416147374 0.47293668590672744 -0.3446772047059806
Ni 3.9520048151140377 5.896410900698124 9.441465611677518 0.2225274359473974 -0.3817306579148522 0.40947851745208197
Ni 1.3030552100359303 3.3324381405171297 12.407079961600333 2.426297602801008 -0.330095964457696 0.9657629116485301
Ni 5.889026425799395 5.0804356549822955 8.00336312469365 0.44777715592196426 -0.24504798564741667 0.12422079235499899
Ni 4.75564798774899 0.15144173428247745 7.283906658141647 -0.40615948038117794 -1.2626242824228127 0.6330341375536775
Ni 5.003535579505667 6.675011472832764 12.245568572734078 -0.027093513782682373 -2.3917448045268035 0.009482228458822378
Ni 2.7875285071463622 8.713181928443449 5.966825561094945 1.9652188446741314 -1.0475137077647767 0.315783661600082
Ni 4.254675980025654 5.617120829434605 4.538140125725679 0.5379174616534865 1.6134381961541504 2.342535432681688
P 5.88673723858079 5.2156176985971365 10.677690400820598 0.9465521430480344 0.8462580367119619 0.24211178583722823
P 4.519529402862159 8.622325195408225 12.484640024521035 -0.7392677493026366 2.921316465318756 0.7354710012643656
P 1.7345762313367281 6.9800456697119735 1.3939248659022285 -0.16892739123375422 -0.5592794722690303 0.9530416074271199
P 2.0252937775060285 1.5253555962685155 6.05116826421013 0.33541969066345456 0.5856988428028236 0.5219241715490237
P 0.8216815986938196 5.370331678319113 8.241542901136587 -1.3589010400693757 -0.9636093556406373 -0.04125926376010313
P 8.585818197627637 0.5818163158552476 3.9150630563737883 0.9960553919844847 0.6577727779509381 -0.1744730036423318
P 0.8578359877979922 -0.05549709804202841 11.712048568835236 0.3634693977118192 -0.05602202389157449 1.5088243793968015
P 3.402802955708385 2.90229247766622 0.05478911151111286 -1.0203528310792684 -0.4609877410749673 -0.13329858628655106
Ni 2.5938798835208425 3.91939312784253 5.069944162269929 -0.7536307028925279 -0.5982411982442085 0.08905581441809178
Ni 2.590769173469753 9.281546500211302 10.539281341675013 0.7118394778883548 0.1953894420800248 0.8928238002866429
Ni 4.114509415854172 4.347258834068457 2.808709950334002 -0.39602599149160184 -1.1609677485215748 -1.7034527749410857
Ni 7.14309487547589 1.9636795650697665 4.987952491350626 0.39316846743814865 0.2608535852211056 0.8966722274984559
Ni 6.539155595883415 0.5188895130057365 8.579493394876877 0.852142777627513 0.46229154748805545 1.4349139052605804
Ni -0.2940664055358736 7.009980484832693 7.193687759125799 0.32801517066926733 -0.2767486591848073 0.32607475911344486
Ni 5.634418961884876 2.086427999073874 3.1000505615728824 -0.8971771921593322 -0.6927824612569036 0.16492572627352886
Ni 4.48545005120453 6.849109699163901 7.046024106813383 2.0205798379429396 0.8281728970754769 -0.454540699898043
Ni 0.9468650632957825 8.347115046526252 3.124747014812316 -1.0316114347122234 -1.270790620283689 1.6649219658557393
Ni 7.800303910869063 3.008795066893126 9.339398322686662 -0.7533319407051865 -0.9079012634450557 0.12319080842858784
Ni 6.891173514305781 3.4537189101351147 12.142123156115243 0.12287096319532387 -1.2821806072881854 -1.694230227901553
Ni 2.6475465548473487 8.972035465424739 1.6262681379970836 2.333235495437001 -0.5052922194192975 1.620571721875138
Ni 0.40952082445876214 5.317948059506262 5.3127032362094395 0.4584644604324814 -1.1835461480427232 0.4930527399303122
Ni 7.478866949121054 5.287440947580891 0.04893783821323321 -1.9053468509088476 0.3978167648434375 0.21168329414404186
Ni 2.571274159737111 0.6345202362668322 3.9093483958615347 0.2181547608009985 1.9438550342863747 0.08362693009303664
Ni 0.40068345412370937 6.94923394819703 11.610332965461431 -0.35917925497689757 0.1845149612593661 -0.7605086609592838
Ni 8.42162439825442 4.110771025436691 7.13217692933812 -1.1172924191208113 1.2056576352297816 0.17646483726137996
Ni 6.646507399723673 0.912868786980763 13.019902764495978 -0.5373435914278875 -0.25324620518749286 0.4893701488724023
Ni 2.255892467406059 7.563908408173531 12.77291423255822 1.212030628635661 -0.00197229323502241 -0.4361020335768812
Ni 5.292785461288846 8.021025865592044 5.102192164152674 -1.8756071577525697 -0.2884466643480258 0.2644109635550607
Ni 5.274001203265206 3.4545588941548453 9.692114997046321 1.1845432218486696 -0.3756921650302562 -0.14404759727293903
Ni 6.628147749006711 7.2745846816413655 8.354094298364913 -0.25177579128955346 0.14553163801763325 -0.8645799749496014
Ni 3.2738792545702164 7.474990099799222 3.688650440681974 -0.4391662743245018 0.41332823021547527 -0.22373945397762754
Ni 3.274950003430532 3.4587495836598734 10.840038081469134 -1.749875070959367 2.3360881343944477 -0.2752149961491003
P 4.005320723882854 4.738506775390317 6.79542918194696 0.7319437048373975 -0.25115769808958033 -0.8179486482443074
P 7.435012398816233 4.535276795583697 5.166877395087444 0.6252298110179103 -2.2019981625548533 -1.311740323223173
P 8.158423251676505 7.833072518232169 9.660312832835587 1.0234978044661536 0.20466546806531205 -0.29726554819123646
P 2.4769467234994837 2.872043822362305 3.0913774958043265 -1.1576515396641482 -0.23760181378201656 0.20380183451343611
P 1.485553276564371 7.2765323368959045 5.175915069304125 -0.18902339065268092 -1.9321562577922076 -0.6876857634602866
P 7.56103769355665 7.903908093698218 13.399639232510081 0.1674441218200084 0.6960554755812205 1.1169044396537733
P 8.865422109074352 4.290998365933772 11.864021985310423 -1.3616390078258291 1.3899111152976449 0.12702200924921997
P 6.43438835825771 1.6142923658300716 10.735999137680318 -1.741559094894504 0.8355972145640059 -0.481709547003351
