# total energy = -381161.8245478375 ev
CRYSTAL
PRIMVEC
9.32897416067616 0.00000000000000 0.00000000000000

0.00000000000000 9.32897416067616 0.00000000000000

0.00000000000000 0.00000000000000 13.65389667131341

PRIMCOORD
 96 1
Ni 8.638480675759093 4.108545459715324 7.468175811738875 0.827685158805781 0.013988343859292037 0.35208763823743877
Ni 8.191734768053612 1.7723651285379562 1.1541993232780117 -0.33870273229010056 0.6334730248633089 -1.161405607389942
Ni 0.6577253195772077 5.207069466062449 10.133485144913019 -0.9540451089909698 0.30120807777875225 -0.6064211629518395
Ni 0.2640108975663185 4.196032578042712 3.3774412292159854 1.0961116712781382 1.5895487911310624 -0.31992056658659096
Ni 7.745417993152894 2.974571352105235 3.3636100923390195 -1.21077284496916 -0.8234685496212721 -0.8086152866585236
Ni 3.275654659515999 9.272878895807867 12.742444676334879 0.043353941505602754 -1.1565637059166083 -0.8714828727170217
Ni 3.672882373141528 8.88633285743131 1.304810944288518 0.6364225944099362 -1.1386577721704647 -0.9180002995522706
Ni 3.1183494996486036 0.7295285667879399 5.692910305179168 1.0635242242604201 -0.7986247511047149 -1.189349127877745
Ni 8.281395537326862 4.294033450086775 1.1383326042706303 -1.498230405931039 0.755506322648686 1.0299003655583876
Ni 4.970430711158147 1.6287362445788525 9.881461046060592 0.38029649657148695 -0.951408185588755 -0.7444030136466728
Ni 6.716712028345775 2.155748644722897 8.103819449818863 0.7214204367085705 -0.1308400974437295 1.4626949320285907
Ni 3.3600912033399695 8.696740118492569 10.128009970062694 -1.1822965919063382 1.0098686437184932 0.36966009990356336
Ni 4.386297003110648 0.19121784621242835 7.898656653246467 0.007064620156265251 0.5118071377196799 0.4067724313748285
Ni 6.910110988683277 2.69913339426602 10.589143021496527 -0.6112445524824118 0.6563255039814503 -0.08524492531243384
Ni 9.116665225900412 6.461527273096532 1.9337190631285426 -0.16791309103662694 0.05883866740476318 0.5235473089747434
Ni 0.929027743234877 3.260942867491869 1.0968681134591838 0.9339457671379335 -0.46477960401723184 -0.21970770711041518
Ni 4.895080588026315 6.94499202253123 10.825287340777953 -0.3269900718388627 -1.7851277235140743 1.0288246159957057
Ni 0.906143769972232 1.7749679122885793 3.6644601753993693 0.11969590790145192 0.4501844798118763 -2.5327942384033673
Ni 6.533295070206003 8.709642089557484 6.917746753915839 0.3611122103335523 0.7748888409403558 0.6961976575860397
Ni 4.5591069177935815 5.218954578959559 1.3922878007444885 -0.3853320021128654 -0.00538440424036492 0.4247241307572428
Ni 9.117392885873704 2.4552180396287944 12.477490619495486 0.12800391354651505 1.3643414943586567 -0.7419910617710704
Ni 8.045633705980116 8.628815858677926 5.024456665482904 0.11507897795473084 0.1332466500026931 0.2642348429885127
Ni 1.6310125142388954 5.885024665794587 0.30382882446384046 1.2790124939728489 -0.8043534260583759 1.5438394620194058
Ni 6.386401045341098 4.563762075827849 7.11591935025762 -1.7804187480741789 -0.12154633084662937 -0.022154938830484427
P 4.924737396424989 6.39482510887806 6.551016389247878 0.2684699641157828 -0.39846905371545566 0.6808399441830468
Ni 8.913993265390438 3.158846575854532 9.787331698233404 1.6939921437488181 -0.2096914605249937 -0.24214135352358301
P 2.767878603794121 1.7316254990075974 9.167103256818397 0.7476559733663318 -0.46880029514085064 0.19943661556620493
Ni 2.350061844514023 6.280134702318355 11.434864892558243 0.5129165687337747 -0.30711133063706464 -1.708388007459174
P 1.7449379449292421 0.3663917229111605 2.0134995160208433 0.5466232169576005 2.066928600410808 0.30328090114738093
P 5.862317943038257 2.144068769254152 13.547900829746276 -0.554598007632961 0.2864867124081776 0.2373999821838556
P 0.29237844175590305 4.553294966981258 13.052401703830203 -1.0796589250387536 -1.2326066530147997 -0.8071052777719003
Ni 6.996842460115324 7.735380017111065 12.816940265446792 -0.824770042041515 -0.6382851015399718 -1.4741414833026354
Ni 3.0976391773318195 3.39013982864734 2.014386701449819 -0.0678275011669348 0.7895484998350596 1.0985303080219597
Ni 7.726424202055158 6.589203611487304 6.470171500420286 0.1257822233048479 -0.038339004789514616 -1.1949700736089486
Ni 0.09922483343503652 6.672474033559203 4.494275212865431 0.5028494143057597 -0.01790927618025303 0.02016567631459753
Ni 5.245961958737527 2.136670892859012 6.445540210324338 -1.2812354697660966 0.2655587040062588 -0.9657217739979497
Ni 1.6327103875099112 9.300576619663062 8.422788266214194 0.7899575623480201 0.1356992253082437 -0.18486951638530744
Ni 3.3915298457758083 1.763661195780497 0.5211566031538435 0.7708038722377047 0.2669260166674306 -0.5837052094115625
Ni 4.181180851408334 3.72555376043908 12.71061701568255 0.3167046307524546 -0.5789509825560287 1.8630681447452944
Ni 2.0103845715967106 4.047002218128014 8.030634581556276 -3.7091955478711927 -0.19781630635396252 -0.5232799142459698
Ni 0.7728317983780522 7.926586668554674 10.213455908875257 -0.5517777645753464 -0.5353602424492715 0.19032771128640125
Ni 4.114030896437067 7.124985247206922 8.628293436133 -1.2860691437093144 -1.1295714935984804 0.2642368998710417
Ni 5.307794398519349 4.27881789346575 10.935541820192778 -0.6132446136315761 0.7186793836283236 -1.1582480355975666
Ni 4.170293938730997 6.845545159514599 3.50663445878185 0.8222480469506097 -0.9759210831284547 -0.8681029005011953
Ni 4.291458653258202 3.632637179234047 8.747956185843535 0.7078740654827035 -0.7374340385280075 0.8876867361703937
Ni 6.180706497249758 7.455697376094311 1.2836724220643732 -0.03215370191440914 -0.5506747613191549 1.226430606111075
Ni 5.275087015617257 9.059674523633188 11.422795065975606 0.5226014001217064 0.8448115340734226 -0.44949568127496786
Ni 4.659421375393753 8.297133516492813 5.574312924301322 1.8058497865527738 -0.1899459024669503 -1.6030964479085101
Ni 5.873484724936091 1.5301663051197791 4.175880128372119 1.1113485428325505 -1.7185469502700466 1.508965532960356
Ni 3.856924372540411 4.408117473335404 6.710002630233059 1.687977305013306 1.7969162315085696 -0.784796586972371
Ni 7.272774853577417 1.0225208550341331 11.993282350831667 -2.0378165135361996 -0.656088962490612 4.308120659556303
Ni 7.419295719481657 1.652235930126591 5.792215367790745 1.9170659391179887 0.1622263250644948 0.36634980458340777
Ni 8.595259539140326 8.523053280252077 0.6335791361301208 0.47567336811160016 0.5224661600954228 1.427734871013638
Ni 2.9089606778467014 5.429024415864671 5.018162406713924 0.6139300697343749 2.4812253651871394 -2.169500961258096
Ni 7.574641794805572 4.585545230156539 4.999401839966604 0.7197857293186248 -0.2849993292293737 0.7041346530449293
Ni 3.73604885620772 9.17401975815428 3.4499031019922874 1.5855751511952951 2.0342395948182195 0.24160347874224194
P 5.91229325684502 8.311117648543652 3.24333256324079 -0.20848407048045384 1.4761369164661096 0.5175011027806636
Ni 2.93730210090904 7.920457532625788 6.905376534369869 -0.7409487365494852 0.2768396762367168 -0.9188958147833465
P 2.5859262945749495 5.465463388373391 2.459544817777679 -0.47919320833940054 0.006543457545472602 0.554446055436129
Ni 9.277757949218534 6.4124661987433935 11.991152546063683 -0.8579123331214386 -0.1572011039357615 0.24853774396823
P 8.756175011952132 8.627901619224302 12.13380841803286 1.276437277046505 0.5749074086142744 -1.0264373467104515
P 9.309392500108721 2.927152177179012 5.895411545464636 -0.8254894367060428 -0.36929114659991885 -0.7134281625317133
P 0.7367678506247978 8.109434559279435 6.315637045835812 -0.23980087831586444 -0.5606025619558281 -0.523694118965253
Ni 5.60668539703622 5.873633988520355 13.165455808347403 -0.6623184883400915 0.20298576637004395 -1.3614122365270038
Ni 5.499271590209438 2.113059259623075 2.0951634887670894 -0.02703746373376634 0.5482869778132686 -1.8211928446677472
Ni 3.3352294875858117 1.7851551519146733 11.44420412844623 -0.5675327134167581 0.516640297442265 -0.3344645258390369
Ni 2.4197959252878793 7.955413198265873 4.632971868261975 -2.729345562001977 -0.8145815315442874 1.1631660417244742
Ni 1.9637117145918135 7.6294868330489845 2.259460714659903 0.3980736180492499 -3.0968461923603767 -0.2542887875193943
Ni 1.061963757176189 5.323289824360871 6.326424138491172 -1.5356666964006263 0.717240594299268 -0.21641515240207243
Ni 1.7967137507212028 3.568239271597668 5.04805057366821 0.6202115318677125 -2.2295866136960822 -0.18056034748699226
Ni 0.8639544178796982 0.9649797432999325 5.693264806191797 -0.7250575192405254 -1.1689721068832901 1.4142985430030741
Ni 6.2527821505017736 6.727757533581394 8.424740820475861 1.145694367302272 -0.9855892023458379 -0.7855278087114407
Ni 7.579315610787874 0.5440722949281449 2.907542673796183 -1.043145660604068 -0.9216129566041935 0.2898504866740879
Ni 8.659638788828671 6.276897548334605 8.573595795679047 -0.5349236691324851 -2.774381776306009 1.3206085722470804
Ni 1.0920403694056091 1.092889306041117 13.788114447493728 0.2803877985992913 -0.762362683448887 0.4948034040728318
Ni 7.031910073443608 7.6724374294212705 10.286846014566208 1.6951766509752224 0.7024832334844353 1.161250055648684
Ni 7.306667016179613 5.375410802191445 11.417716372520983 0.29652584181173447 1.1087566137356581 -1.8833780599472405
Ni 5.526278969987407 0.07821505105232035 0.045231530519337225 0.5716261667598413 0.3522125938510773 0.45513513894893226
Ni 8.373192641649904 0.7391280810509899 10.264958375728533 2.3924883675610475 -0.48544613122764785 -2.7697216518261785
Ni 9.290212129530653 1.4978040942562996 8.00360014775366 -0.892112118931599 1.0337426221226134 -0.4537282312990767
Ni 0.22039514534665114 8.756063064263934 3.0919662282323435 -1.0399736906339896 -0.11574412234255549 0.7866395537183807
Ni 1.134104713246321 0.6186434487295932 11.53445635467213 0.5487957991288872 0.2135494008185032 -0.9755487873907006
Ni 8.729680725745077 8.275434322930273 8.092418510673212 -0.07802501052522692 3.3589058820744406 -0.5353720695238134
Ni 2.154731786555091 3.8668877167901075 11.42663207298862 -0.7651880687128241 -1.1733463246915858 1.6038850052480764
Ni 2.9201274597445352 2.455134078862645 6.9428426269178125 -0.33352067386852885 -2.549877676248215 0.6576506505507771
Ni 3.9018806983262597 2.2148383661438475 3.9329368528274196 -3.049490585894548 0.832835592658469 0.13793042863160762
Ni 6.9557483295723355 3.831167075280663 12.921214872516998 -0.12094597825846913 -1.0856750493258462 0.4501302295351732
Ni 1.6844861933018718 6.597403779647868 8.139674428554146 -0.48415903698510815 -0.3734051687682924 2.0593356185548988
P 2.694898040062498 4.8240591088381715 9.663231155583185 2.335467727201629 2.6382830015665015 2.122195234193597
Ni 1.4582865603221111 7.853550130978951 12.928150964698318 -0.3914969932729967 2.5399118232847546 0.5526797075643256
P 7.302580925560355 4.52079282150753 9.195148018507007 -0.9319611326077368 0.21615341410025354 0.6494475459146944
Ni 5.031022397395766 4.140898341604787 4.631947546914955 1.0310943858664885 0.36972951968891804 -0.36045272237268244
P 6.152495679823652 4.6762135286235775 2.733523724080702 1.080839575610416 -0.29927409398083293 0.7215009122375188
P 3.555542537961117 6.99307355461263 12.937722492039319 1.8266610668711702 0.3952538892122677 0.9699322125348715
P 6.789216814402553 0.05529003030400246 9.04278441617619 -1.3834535325977593 0.6525655227183857 -1.1648424009856326
Ni 7.040819243629433 6.610753541465578 3.9417573977600857 -0.31641769563965505 -0.38782931461342235 -0.7433054097071198
