# total energy = -340854.1888789647 ev
CRYSTAL
PRIMVEC
9.45163415591389 0.00000000000000 0.00000000000000

0.00000000000000 9.45163415591389 0.00000000000000

0.00000000000000 0.00000000000000 13.83342197300198

PRIMCOORD
 96 1
Ni 7.504758167791678 2.751975596450575 0.4005952249841404 1.0098866414406222 0.8018131761350256 -0.1531963536517426
Ni 0.4089684276496332 5.81778325216859 11.369399035928845 1.5075444842431134 0.23227757335562577 -0.7280834505510428
Ni 1.587194014235112 0.34563491774904104 7.184982920990587 -0.48706746888115476 0.4772401983780877 1.1434086565918888
Ni 0.38787805127782965 8.10993684875888 12.767999868782411 -0.8390538056540389 -1.4318344950043085 -0.0015457472205650797
Ni 0.10134703716139558 2.566222631121609 13.224571451669378 1.6541775828550416 1.714992657259885 0.3987642163583713
Ni 5.514546474747879 3.561479703789403 8.300081043299256 -0.8949393039677491 -0.021646374625182072 1.1072268073546931
Ni 7.948209937358892 6.456420717914935 1.5983686812532993 0.05309173761865695 -1.0319978715173646 -0.3133195163303056
Ni 4.372666202001306 3.2889040274487904 13.006086532224971 -0.4930141733828929 -1.2455521574318742 -0.0394386656115966
Ni 8.658556951161557 2.2758306244678073 8.266673297344349 2.269898168830936 1.7414143417865233 0.13748768466723418
Ni 3.4727005045152475 1.9696543888362734 10.714745776168865 -2.3178543849952407 2.8999061179637797 2.018713474158162
Ni 7.5760329406785525 3.4947606185475992 10.776691786180878 -0.6064515019691427 0.6578560816933638 -0.26198178528827787
Ni 5.5588273805925965 -0.1103553896396451 3.2123146006971384 1.3760384710806108 0.4683506091979418 -1.5758031594101958
Ni 7.2110108310258445 0.6184393236353191 4.709671777800246 -0.6809237621461046 -0.638787495097687 0.4000924482514916
Ni 0.3830047887263813 2.6725913214901116 1.9434157073601759 -1.2477280820372705 -0.04213498149683711 0.6918859175845632
Ni 1.7712551370568845 8.127885501949725 10.785738890359013 0.5065001236844697 0.24636439046599506 0.03380075059952888
Ni 8.060041672247833 1.0775997091073175 10.716640828809606 -0.312416802010378 0.9930608281325349 1.3292927302846398
Ni 8.525128232312069 9.651536180006817 6.780452035559543 0.6782104769799997 -0.5124625119154916 0.6325227451348977
Ni 5.606558132890529 6.8201290504251855 1.8958427973520202 0.5116022207977254 2.0905935481279156 -0.563247969998475
Ni 6.806395826051148 7.639831470977771 6.125383849061767 0.7066635901143701 -0.08928181438596881 -0.9422599434305836
Ni 3.16056973938912 4.3291130719837065 8.935021029778481 0.7576171983441016 -1.5765665199387817 -0.9906293358729067
Ni 6.1661137759682 2.5512512426780587 2.140666585594179 -1.585519101146379 -0.13494769185419983 1.7967871621298732
Ni 1.993708797667608 8.536734839009466 5.281973894649994 2.292727765130942 -0.7830495223742772 -0.4138463075024743
Ni 6.790384757854573 4.696318509117766 5.1253792205763 0.7063717699055642 0.31799146788467814 1.4781148661280867
Ni 2.6931486256976376 1.9445035904472041 1.6937914341492804 0.9518509295531284 1.3530337826553214 -1.0905974263281282
P 8.822854707041751 1.4332741526169257 3.7659412336923355 2.042857161283901 0.5635804136372293 -1.2594047470442504
P -0.0853388044550571 4.765258728377395 13.06479535755143 -0.7387147050126439 -1.9399384728407878 0.5004899129346477
P 9.003636112824438 8.575921314064365 10.578542057542213 -0.3367083275678911 -1.5496298434489377 0.2193850336636738
P 5.186555867571072 3.1879038652595395 5.110896481616671 0.9010657285804611 -0.991691458588834 -0.321652204565717
P 6.415060367012806 0.2989429000407204 6.8682662229902105 -1.745564102288839 -0.3052503661689259 -0.6695227193980147
P 5.3281886048353355 8.751097900814838 12.512883250985311 -0.17743517159444927 -0.8978963297135439 1.2867921379182676
P 4.688407491360663 1.74222916867927 0.8021753102434183 0.4961658316379971 -0.6090645141119575 -0.1514271775664618
P 2.4189756231910144 2.1583846189125366 12.725931590484812 0.2586198107945804 -0.6647710636456422 0.8093303104476772
Ni 4.835295337194759 6.7117849685259365 10.039191172719452 0.36712910595159354 0.16395179239603377 0.026230908672070955
Ni 0.8226295916390532 0.6852500897280716 11.89235795170006 -0.01717059824201559 1.3577928946068616 2.1928820591861977
Ni 9.399773001994927 7.976489226641152 5.122253565173344 -1.9238456810439837 1.3571133520413337 0.7323540529019387
Ni 3.7386033271682675 2.9348647166416657 6.731245883175728 1.3655586545952094 -1.1384813944936005 0.3248439720301374
Ni 4.0897976961057525 5.082115310562724 5.607930510164521 0.798618837567444 0.5972171278550683 2.418373462857925
Ni 6.859684139210701 8.665749644725663 0.3618917284326935 -0.13597201935365616 -0.6852820391148005 -0.780807777527952
Ni 6.96980512832421 2.3830405102728482 6.323160238152753 -1.0946957647672177 0.9239598595698152 0.7676077338979103
Ni 7.731247676170961 0.8853081032952402 1.693142106885346 1.4764446775145152 -0.9852220488144063 1.2565245972829782
Ni 8.297069752669131 6.160631828179526 9.645629853846227 0.2933171050664497 0.09915742162846794 -0.26662159805313435
Ni 4.2901628877817695 9.406247371366034 10.79784359817445 -0.13065703489864594 -1.4976693912212466 -0.6578789645114992
Ni 4.420576535347489 7.333626880443881 5.812458201506282 0.25522724017326365 1.3111973062355096 -0.2936577762353201
Ni 5.733559740539504 6.5628650213563855 13.078670356437245 -1.5244044932232457 2.1055334572671995 0.22085210512750353
Ni 7.960459255176342 6.356942268818748 12.944305925810035 0.7542739929034816 0.4747827379765307 -0.112110125134394
Ni 1.5862961089938639 5.803927156551012 5.211078132291268 1.8108922340726876 2.910970346197742 1.0491435300587157
Ni 6.488565725551623 4.488363655244672 13.252252452511945 -0.4339711032768075 -0.7368437132421761 -0.8164378680267358
Ni 1.8822645797775228 3.7321667643336354 6.020249542109127 0.4590087629717256 -0.39557656265900903 1.941137892465528
Ni 3.7479604449454857 5.33425655393935 0.0356043057240226 -0.6353406741996671 0.9248836569356652 0.3726407797984421
Ni 7.558282771804192 8.211504108995234 3.110928811835857 0.49952240681505583 -0.1636365751484601 0.11846460659751211
Ni 3.9848372992208922 1.5837630710501318 8.61815310563221 -0.3326688673911948 0.2919976149240778 -0.5543578665976969
Ni 0.7643829512209855 0.8042792439981746 9.818893429851135 1.0038661462781548 -0.08988370963602585 -4.2902679476455985
Ni 6.561135372312719 8.730748532557918 10.690551483152579 0.6493279896176947 -0.9708063876097086 -0.35063316517909937
Ni 3.7553232679237216 4.875152878272062 11.367821558194484 -0.15982028672616347 0.5751282663758288 -0.1564750244030144
Ni 4.111328518627474 1.366933132739858 4.095730486841874 0.8881893868384251 1.4372093861629762 -1.1145115139415644
Ni 0.5678740262652769 4.948903979297958 7.609364128397099 -0.441234212597124 1.2745536868705467 -1.7738122985012548
P 3.1254663702733723 6.313162299582308 7.168452012917501 -1.9576703429029125 -0.7187238637130138 1.1470133432240117
P 2.822541496778569 8.949516055862464 8.979316113074375 -0.15767984334439297 0.45911880618702866 -0.17075467425048013
P 8.257098791982408 0.9756732867744637 13.055735021085528 -0.9122798521287256 -1.3127222275204682 0.2916263476275881
P 2.8352066864972287 4.308432896532643 1.9189028942740987 -1.6526495762462894 -1.9268831823187267 -2.302348576050157
P 0.801502353894188 4.37228813663657 9.490833825745264 0.29397067949004857 -0.4543308978800821 2.128246582593999
P 9.235513052651207 8.355537561325571 1.363104275758493 -1.8150353097067837 -1.6271318915911588 0.8666168028739719
P 5.774267928687465 4.777073271025397 10.513649973175498 -0.24019759953365086 0.43626684128951965 -0.0638723731739287
P 6.002997474352808 6.641720004806219 4.2454216873554875 0.1673235370817441 0.9196193232129324 -0.9423597022332415
Ni 5.0720587718607435 9.042557942124018 8.433504091168274 -0.45686420582489706 -1.0815381443393373 1.0847669356892802
Ni 3.662546027417482 4.104466632257513 3.785335986903297 0.07243363248037848 -1.7336724930575755 -0.942246830804461
Ni 1.5101537445360125 2.4897305562013763 8.217993600980929 0.754874602601958 1.0829987880452638 0.2637399056299652
Ni 1.0427798890151223 7.553037114868479 8.244151943567019 0.7384406254156508 0.6061092881383754 -0.0743169655460204
Ni 2.040541644724293 8.029890959410128 1.2797314112000635 -0.8510685707267278 -1.8470375736449933 0.9257354634129992
Ni 9.25722345622118 2.2609726556336787 5.897824415700282 1.0567856199850059 0.5001194169691066 -1.054110644256004
Ni 2.2092344104695427 6.1572954013357295 9.616897831289696 0.0030025342717496678 0.3856942705482906 0.5150827231471581
Ni 6.709374801825745 7.532016680589152 8.54645395437342 0.8969810169881263 -0.999671391470517 -0.7169150926390493
Ni 6.121256320442261 1.6783455736729869 12.692496434790964 -0.12000546872207073 -1.2832530144167578 -0.8833312874151754
Ni 6.014670242489035 4.8604177806814715 2.9380385753786253 -0.030038712453935364 -0.9567180278374425 -0.2756752236149704
Ni 3.7022617939830096 8.331672185176604 3.57907959168128 -1.1546531191574567 -1.1805158458568312 0.6399216087021302
Ni 0.6344192014393023 6.298172007870521 0.51063965586129 0.9295442956361282 -0.6104513671571551 -0.015410163907483137
Ni 7.524370308587364 4.461483207811935 8.015706892088641 1.869822946970625 -0.05643545727990926 -0.16325733743217044
Ni 3.5854679511819083 6.1328440238714235 2.42559365740072 -1.3388078688639264 1.539469357976168 0.772813703578882
Ni 2.900508026621272 9.406927889022558 13.074119394609234 0.48498924619588735 -0.4995013237691333 -0.800266400473196
Ni 0.8728924367173064 0.3588019892393877 0.4842166675198837 -0.1727112837562187 3.3522693505945296 0.2825840349196617
Ni 8.719633410834675 6.225838651962386 4.092991403274361 -1.8010955596972402 -1.6755642760609337 -0.7588171321894738
Ni 3.9593273387353234 0.26043788780576 6.539072422790131 1.112181323146491 -0.18358936412130317 -0.803299530872565
Ni 1.7064358302728795 0.38626560249723013 2.960877504062333 -1.0467143517919328 -0.7160224056214507 1.1465909109746124
Ni 3.9977954895972223 8.86741916191002 1.3163224675260476 2.8774295341278187 1.7709689155151886 -0.3968207194787553
Ni 0.9127773875335538 4.987400485062212 3.04932873163258 0.6594961883999481 -1.1016367148614254 -1.641515928226973
Ni 6.898813904460888 1.2979929134802293 8.687250222018205 -3.093496816272169 -0.9020825998807497 0.9359810524004073
Ni 1.700604172021825 2.676570459453959 4.11569233809994 -1.035586103089255 -0.8076930319545702 -2.275332709582946
Ni 1.2132873685111052 3.153433755629726 11.282954390281935 -0.4878627110889404 1.0329982877574209 -1.5398606798773158
P 7.964655780724912 4.130817788179621 2.088016257737617 0.5080309585066993 0.47306961194016584 0.09683828657698806
P 5.549451359547141 1.936592572690101 10.417756528900421 1.6076573278063153 -0.14976161693858078 -0.4467245462877339
P 8.744727499419035 7.475117843196368 7.166473785896519 -0.5944202818362214 -0.5357345950695547 0.08022433216939087
P 9.537738505221249 4.3951988977395775 5.216029843405899 -2.818148122758682 -0.7070029757316599 -0.4619282506113658
P 2.531743069857676 6.926819096353715 12.582216658224265 -0.2544055156029167 -0.25612841183129437 0.352761781486328
P 5.9812209093440085 5.7321608986899815 7.370419256576587 -0.4028759245338997 0.29908383234689784 -0.1542826447373859
P 1.4253536832257043 7.10086148700998 3.455796256894484 0.5798084454603176 1.2902973228580488 -0.42676147290224564
P 2.517792457898914 1.1791291628071983 5.321648074025401 -2.2276009507246215 -0.05829950707184153 1.0180429519991692
