# total energy = -381165.11129021214 ev
CRYSTAL
PRIMVEC
9.27656344472397 0.00000000000000 0.00000000000000

0.00000000000000 9.27656344472397 0.00000000000000

0.00000000000000 0.00000000000000 13.57718829076488

PRIMCOORD
 96 1
Ni 0.8498203931655034 4.6517140873322536 3.588287838204522 0.013987058307711395 1.2726947792849372 3.0809349204467584
Ni 2.8620238462451173 5.8689290572896855 4.418966970765134 1.3577034202168488 -1.5270370457500861 1.3174211756580343
Ni 8.262607054858282 5.240710917605756 12.848256241710818 0.7769143560108168 0.0824737903251999 -0.11238883271707742
Ni 8.524707072853142 4.806883160773182 9.338403601076555 0.1821140651273573 0.5352044335976976 -1.847277200459625
Ni 2.7657423962993173 1.5381005692516958 5.577915846965021 0.6470312231637179 -0.27191472813127365 -0.1015482904581477
Ni 5.320906806880391 4.2546215209597795 4.946102111366359 0.547417944944754 0.7818156499671761 -0.29467207643244736
Ni 7.8273228775958525 2.7607144990191728 12.912788653942052 -0.15095023793004328 -0.6041524215223207 0.29789186892132563
Ni 8.774459985165576 8.580023219497981 9.669808823093485 0.39148670886035153 -3.5555255970171413 0.7382300520667415
Ni 1.548128534122243 5.780950131450398 13.186816476960544 -1.5303087745228225 0.21368824038921264 -0.08663872033616693
Ni 2.8012345272842514 7.697135588980442 1.3620091350623564 -0.2534012427081184 -0.5091936113562328 -0.24191792465886724
Ni 8.255241463639768 4.099953381934216 5.198624077808173 0.2865679592680742 1.1307858256215555 0.8421172750707111
Ni 2.065834975838709 2.5998681688707745 11.689510522246053 0.3845442161042474 -0.3358855745562796 -1.160504435731911
Ni 4.04918275128065 5.457689731964774 2.4417482206608163 -0.5286257519389154 -0.36525862840175805 0.12241999170083434
Ni 4.52097948148524 3.113539305574578 1.7291096447993393 -3.7402665582443837 0.3844138611739702 -0.6226885326532954
Ni 1.660616140061425 3.6514408254808512 5.824450719486899 -0.08608001961921949 0.6430889506865182 -0.06376412973083857
Ni 8.318544731240706 1.0453016998547666 10.769140010270663 0.9469460360523434 0.29398250656459046 2.5971322383598046
Ni 8.347617480458371 6.99675506379421 7.817460035551111 -0.8295180982494617 -0.4092494321604114 -0.5530957120558215
Ni 5.9647188493833685 5.892064806028951 12.226651363966031 1.2283095683013425 0.6785352073092701 0.9136772466968845
Ni 9.295672967789598 0.44617764548396965 3.5576575540176028 0.4192139995722909 -0.9882708629430593 -0.3380810395457016
Ni 4.684209888388246 0.25666395193182306 6.68434824330816 -0.6119935148332943 1.028377501155958 0.12057008297628911
Ni 4.409493744376788 7.515147971190991 12.350095518756834 -1.6855530118425295 0.33732590654723194 0.49437454406552916
Ni 6.460198645558825 6.058050352216463 9.539237484759626 1.0827488768179867 -0.2937683336712554 -0.07872846435015475
Ni 7.903641163433033 2.1394816114606097 4.042322732759124 -1.8956309091726646 0.6920445546496146 -0.19438182675111684
Ni 3.5236839964362847 8.924805245717804 8.513684660402461 -0.197913236943143 -0.25323232123042194 0.7329014407649764
P 0.9944754098217156 2.490367616297287 3.746991282242748 0.45730592134800596 -0.48609559188618867 1.1608651615054393
Ni 1.6038064667337364 7.342000918176407 3.4695960667654124 -1.3310027709972108 0.6686891677531257 -1.1224281976854797
P 4.646027554061536 8.041694977682324 2.358072692512044 0.9628133421019032 0.04299167307017757 0.9461345958946416
Ni 6.765128556067389 4.074971597108699 11.243147345497134 -0.8140811948691011 -0.4387947499176959 -0.3776058371132013
P 9.202285805577018 1.632721514376193 1.2141806061191749 -0.29855238532346 -0.6681924306223653 -0.38709783576403656
P 0.9166543207384401 5.035735976089001 7.222819344197831 -0.8713288636376606 0.9080357321403911 1.3699076755925246
P 7.951229932892707 7.1006989549824455 11.330394350496192 0.14770036353417787 -0.9983629570717387 0.3071473260813226
Ni 7.973373089364489 0.3482347630605426 13.463682928332771 -1.432463901058191 0.009125102229719769 -0.8970146984395391
Ni 1.1169631509417022 6.71347665190531 8.787671666542666 1.4552150787117777 -0.7045200614088061 -0.8999205592324243
Ni 4.070936292096037 0.4629339016779284 10.976939665296282 -0.14425482818773866 -0.6484594709698123 0.40118182466092844
Ni 0.7666355952125237 0.8017687231997795 12.640375880584948 0.07638233271548135 2.452727771968079 2.074312551579705
Ni 7.089752610350395 8.232912775903037 2.4246960420992627 -0.6195474159211524 0.9584573791260527 -0.45923116339517683
Ni 5.957538789429803 8.917207740418103 4.586903378203597 2.878357959479359 -0.10702191197820922 0.7762813504125083
Ni 6.365095319145457 0.7565927878407804 9.255962783496026 -0.5244194271670516 0.3843081888340414 1.967853196973185
Ni 3.0517573943462297 1.1948398994044627 0.1197762016827425 1.6829109462339917 -2.632909395959414 0.01620951988032692
Ni 3.764985959630248 5.306305496328825 13.157734451179632 1.074196873482918 -0.9233003716089453 0.22468613416161307
Ni 8.542870583691746 3.108613450490156 7.416539031526394 0.6550494654825041 1.7087690449476765 1.1193446736641495
Ni 2.008199688381993 2.31590329130156 1.7284844044364578 -0.5456194582834344 -0.20474645781489256 2.4477835405889263
Ni 3.8229737564903687 8.577138208328009 4.868657650750933 -1.4026092795906038 -1.2346789621627963 -1.1149084922696668
Ni 0.26921421434936543 6.445374697489321 5.526173032483116 1.1356202708957217 -0.8663224115620047 1.8817788337809207
Ni 8.638419185140993 8.633623201942035 5.935308433263494 -1.5323671997137482 0.21437241094043077 -0.3846190352062408
Ni 2.645406817852751 7.1733529983368625 6.470901016577465 0.05740656294392693 -0.3026887760893368 0.9652021540490537
Ni 2.4181031885992645 4.197672699183379 9.253220631400064 -1.017376522059764 0.0362767229438472 0.6095561090363953
Ni 1.0657286921257612 8.903283618983606 7.787359443125624 2.3111288933459484 -1.3271026646118564 -0.44616558846047033
Ni 0.44858955192831956 7.876368067485383 12.559469406565553 -0.21415952359867632 -0.865027089789349 -0.17361991161341714
Ni 5.837212487546484 6.552426237365467 3.573896177982351 -0.7854226505921441 0.8531791893118275 1.0575230123716626
Ni 0.4538150400056362 5.9659619088585325 10.860895425008007 -0.1242138503764635 0.36370671053360587 0.7501072631203017
Ni 7.659732485966522 2.7412615458891656 9.691763665331342 -0.7110054120228336 0.1042363788132721 -2.005519858286023
Ni 9.338159627463146 3.6512645707791482 11.235951515386047 -0.17788871419210012 -0.566366718133115 -0.11051038474744192
Ni 2.8504466953122374 7.614499963571713 10.4752482823703 0.8860278604107321 -0.8396436167192378 -0.5890232791903662
Ni 1.9508890806389394 4.71543480027933 1.6641690637852173 2.9630128166162777 -0.13258639071087489 -0.8017283297307032
Ni 6.593734773506583 8.866112430050874 7.482768127175593 1.0024610384005124 -2.5679838989306223 -1.807066175458378
P 6.006259299605672 3.291371023029148 2.9191767524129633 3.1503729606339226 -0.33350987523525144 2.823168973012041
Ni 5.287724540144084 1.987039847614446 5.223605862633691 0.34532820802641817 -0.3419124974766499 -0.8747096071844356
P 3.12648011130484 3.1737070947978614 13.553115491632942 -0.40374521451273043 3.6333189511475363 -0.6440027207500393
Ni 8.970919041621126 3.8458775911484455 1.9391347473480325 -1.7952157038776955 -1.2755587310962935 -0.6957351161273244
P 2.5047555658941594 5.650150589660652 11.171242848453112 -1.5833403483275053 -1.1231537629975945 1.2018634582946721
P 2.2878973468573576 1.423238163121154 7.66356185127509 0.8223544906214869 0.5339844451476674 0.2908835559242926
P 4.410254422563082 5.826117717902474 6.061698824541705 0.21535560078930652 0.5371836688112555 0.3655113678425125
Ni 4.294176786647118 5.539045191645347 10.393527326097775 2.563421476370921 -1.0963862650957634 0.3101130935778659
Ni 8.446255177469036 6.848404264340195 3.6571375629711405 0.15166577593982913 0.8949207920249878 -0.9241344374744666
Ni 7.65102179307712 7.354811852021205 0.24804045873694724 -0.4309073767498192 -0.9273663141482029 -0.793560192097614
Ni 3.8730486449003725 3.4637110150411985 7.3837092741934915 -0.5101418342021149 0.033342322905871614 -0.9584355247491816
Ni 5.662451312526835 6.361022907879805 1.1413475250940799 0.053268629516153417 1.2326177087583934 -1.0858254588607816
Ni 0.7594713054164796 3.3537651874318315 13.641679768613146 0.6242070261803508 0.14304126749561172 -2.7281787953873855
Ni 5.489842300180609 8.920491643807718 0.5016051108877806 -0.017354175007731402 -0.10725305415240884 0.2336032341455848
Ni 7.074817343521921 1.3434504426294085 1.7824406069092154 -0.35703984003639155 1.0615341904135847 0.9491445863655589
Ni 1.5453826714009828 8.786500964260831 5.314668318096446 -0.4657931328834107 0.5206679305444194 -0.05817198035504175
Ni 5.393356765843364 1.9755925685670312 13.655256946582188 1.0427728506456817 -0.284939936746348 0.8545390457738316
Ni 4.418566223232842 2.8244352119662484 11.813104029705142 -0.010451277240311033 1.2877393323228854 -1.1152003124784728
Ni 0.0886227193286641 8.429316172979101 1.4928392895108198 1.0235520547428565 -0.39770697873845057 0.31814419141245853
Ni 6.681416849321951 4.851113814337261 7.125810611693426 0.4794269216167614 3.1897540335347068 0.2015078962729368
Ni 0.9619981618922189 1.9839878583060186 9.315294754370708 0.06731430897594214 0.510569922878469 0.1875414067905157
Ni 6.144442985740429 1.2880229772255976 11.751219148624745 1.2005187713413195 1.6078892413114632 -1.260591825373816
Ni 3.8522320369729828 5.955980326804223 8.202590473615935 0.2675608220379521 0.42486451298984895 -0.827363513800304
Ni 6.411663666647906 8.454826721909726 11.758441880769249 0.0741632135769755 -1.3661698058166472 -0.7537790555449342
Ni 4.490190568066788 2.198267192760015 9.388407987605879 -0.8765767423001612 -0.018862384122141706 0.08376396989153317
Ni 6.212820533437749 2.8274037122054483 7.269565801714632 -0.3311115502064039 -4.218162902149232 -0.5276690444526009
Ni 2.4599312122822408 0.4073737814196782 3.127369733720275 -1.6410168771033675 -0.44779001143777075 0.1448163571181635
Ni 8.576256934819497 0.73563146552673 8.051272101579043 -2.437715357719647 2.6507155709028996 -0.5832149000387052
Ni 4.579765062784646 0.8362803214494529 3.1431194828018802 1.501555099428898 1.0905622022148187 -1.162443818846469
Ni 0.20397771096764822 1.7568883134439772 5.931642335468083 0.7537476880863664 -1.3301640771459995 -1.5607110409637637
Ni 6.9375242074589245 6.776585111678051 5.753591691120872 -0.11893588980697582 -0.06001186177725794 -0.3197863550015718
Ni 3.1904234617698557 3.298421211097248 3.9850807715841023 0.05537899099093688 0.08077429113558993 -1.0742943182927305
P 5.625836717388955 3.9313703980374033 8.921963834395095 -0.08412032478968738 1.7553754319523058 1.9594593164825354
Ni 7.396148217852064 4.934686372633986 3.148006376320663 -0.5702789087033275 -0.6611447797469646 0.3113266542699929
P 7.291007650004902 1.2554622402268736 6.109300581189926 0.03954408084120931 -0.3924986950646337 -0.48945525238704085
Ni 1.6101609125582739 0.07739158420491615 10.801508722410164 -0.33743389288000597 0.9709362283193537 -1.6258566244231611
P 5.578053140101083 7.957361741199304 9.423084708681358 -1.4838430268611154 1.308788696794017 -0.20423763649927407
P 0.45124821495505296 6.127615300009464 1.7472620237620469 -1.2193335900549775 1.800477209386951 0.2637208794665716
P 2.5909812212796695 8.596331417687088 12.990775793507456 -0.8100939280865791 -1.0384132881254051 -2.1326501109783336
Ni 6.7797391431822005 4.380059209192471 0.8878385323227317 -0.9010806409787965 -0.9990679535585631 -0.16049905796074293
