# total energy = -381168.84715974284 ev
CRYSTAL
PRIMVEC
9.23712385734988 0.00000000000000 0.00000000000000

0.00000000000000 9.23712385734988 0.00000000000000

0.00000000000000 0.00000000000000 13.51946446802818

PRIMCOORD
 96 1
Ni 7.330821509855321 7.432134282269648 3.245915096858594 -2.040257775987841 -1.8363996343151727 -1.5360976132904578
Ni 0.735889312868894 2.9731068100964215 6.8490824176472405 0.7231281634282966 0.6185937937586314 0.49747992246373035
Ni 8.186317718567295 0.32772575811838184 3.0456653402379046 2.6886866508300336 2.8661367348228186 2.1974863907274282
Ni 3.8851342156697832 0.6212593792592951 9.068964604882977 0.03618493456098929 -0.7062046482000806 -0.37232736232308133
Ni 2.6474335408575493 2.2366401769981423 10.655217056840337 0.4634745120525631 -0.698111843889617 1.149773165357336
Ni 6.631063206222262 2.436041965665911 12.294154367362829 -1.5490564874439707 -1.3621198041169897 0.7679967418062128
Ni 4.329033430763048 5.465439807408295 1.7394686222743243 -0.8586674661199083 0.057065891775056554 -1.3961131303432988
Ni 0.6848061715481687 2.425483933310917 9.350507515787653 -0.1566611722718915 0.44759255071498394 0.1724667718455804
Ni 8.857320856215143 2.387676386128948 4.65841540515549 0.02360504101344967 -0.34184590590477254 0.21155731008913886
Ni 2.88189021385358 1.6015786875508926 1.8279935206796807 -0.413521577173204 0.33916681641071267 -0.7362297338072611
Ni 4.491911632439 6.578707189259788 10.071838198040005 1.4538279685562638 -2.9305243570702695 -0.5795284523260535
Ni 1.3658380543647095 0.4019506653699618 8.455938273950895 2.4396920218300435 -0.2870670103916798 0.6247983799074465
Ni 0.6339835171149419 2.690386165923799 2.416887866023465 0.4256443285786669 0.5338075532501709 -0.10379106374573738
Ni 4.469419236302158 7.643904579531762 3.6368985252949733 -0.37265646352772597 0.719078161728639 -1.080897682541861
Ni 3.179427204393141 4.126204669213649 6.134322101461472 0.6326369021152589 -3.285957771851489 1.3351252778060168
Ni 6.828026394241108 3.476668606975257 3.0010232452523824 1.849734403750866 -0.9462670077074476 0.7934936005257366
Ni 6.771772311089826 8.891202625837295 4.728716382271985 -1.5407788208162112 -0.1832443220770586 -1.6530277855213145
Ni 8.2438649990324 5.279090074486464 10.303440599821958 -0.3291531409284525 0.3712660109381025 0.4015566915018439
Ni 2.762214039582972 2.7335974304528126 4.24438165831259 -0.7010472723688571 2.179757605989098 -1.6246098965002538
Ni 5.633019705032359 7.4727037294289955 1.1939434962743136 -0.36379927024741215 -0.21982083564951174 0.42198693433173773
Ni 1.3452023200855696 8.987647434077447 10.748757713398591 0.1315504932471928 0.16307941709340948 0.8902904923418279
Ni 4.7517888697753135 6.085823507343658 12.660153223696158 0.6234691195730617 0.9522587065145084 1.4737162228397587
Ni 0.14460162878217084 6.045660493625798 0.8045266840123935 -0.1642469550389494 -2.1572972201030525 -1.2430931543684203
Ni 6.390343763377861 4.283559070934845 8.943977084502025 0.38728501207417815 0.38788125089728037 0.7225740906970394
P 2.4433947161073597 6.305657813569824 11.318847122374661 0.45388095482685703 0.7625213205139384 -0.4157021297642905
Ni 2.058779360729189 5.2770024845370065 9.333783703382826 0.4922459277583006 -0.8214409776682821 -0.8977374355381764
P 2.7949134573753427 8.29661821231269 2.2103374673473586 0.40770497049142684 2.246864426939924 0.01914700524209606
Ni 4.883999820866331 2.1117635021012338 0.7916039479978381 1.7595537316997116 -0.8734356255680183 -1.0058746920677515
P 3.0465234690268623 8.498680292597465 7.3516142752368525 -1.1575461244345353 -0.34662867200539654 0.9395222327844465
P -0.2788890852742397 -0.11915704792034491 5.262059589575788 0.6861605850650118 0.6769218400755632 0.3351252993514874
P 8.304756118266102 4.0633922282565536 1.2898987369599475 0.398215800054069 -0.3613130134904487 0.7594221127633243
Ni 0.6460730645744489 0.25013207186429404 1.212251475388573 0.8956394153585671 2.6477068659835625 0.6598543430703152
Ni 7.741042172047177 2.001195131769405 1.2047001267882163 -0.41852417259411795 -0.3899741288705671 -1.014745255084504
Ni 8.474737668044407 0.6044164079591232 10.047138129345996 -0.6315580672287833 -0.7666276293728281 -0.2541394064257236
Ni 9.047808820541206 5.686244011619827 7.033298375001265 1.0364967878289826 -1.119823413072781 0.8535795100740396
Ni 7.824130099460277 4.909993086874164 5.082818747030513 -0.3202501820118678 -0.6102878449960973 -0.5499936760917302
Ni 3.7500505191173468 8.70016043409102 0.027844385591333797 0.28469053973970326 -0.8268009564286148 1.7973569185904144
Ni 6.080299707388902 4.280584717113053 0.14218981579189177 -0.32593720509431606 -0.24346470032069684 0.5618927415221613
Ni 2.713857697169678 7.542360879025681 9.412859024273608 -2.0645451877802965 1.5822769400599976 -2.130872964473253
Ni 1.6518009289455589 0.6032774706105922 3.45979330574224 -1.3076481554316706 -0.7793993272161996 0.20020666096301004
Ni 2.6925014672442655 6.186609763708787 6.433696355899029 -0.46599059360619743 2.4544678945876375 2.117403726342224
Ni 0.7192541768513007 7.9852624847625675 7.011775876849788 1.7517830866153572 -0.11224150850593571 -1.25026241842335
Ni 0.1239474202556905 7.589913591679671 2.2370521527138316 0.41618061206260576 0.4297709491525308 1.967692760135921
Ni 7.556484441117357 3.0735882413804347 6.720917326723755 -0.40492817907723816 0.4140661368227643 -0.34091825188418057
Ni 4.63521636905788 3.4144011563147005 2.84080441148107 -2.0309547534193606 -0.8018288598643094 -0.1062868335843976
Ni 7.872347885018518 3.018645829790316 10.61787598440371 0.9218862648702381 -0.3004172064463407 -0.8864760036917442
Ni 7.01099533989966 1.888927130682266 8.677846314441013 -1.0145999877558913 0.8836475331040136 1.2572097962754605
Ni 2.052174817305024 6.361126741209143 2.289858941311409 -0.336092291250447 0.724472593271333 -0.1791297856880528
Ni 8.957100266100223 5.152412160473873 3.045826989902132 1.9144598689537093 -0.2502680963957754 0.3888040198218659
Ni 3.1735616308625887 3.3926754414424813 0.1574329172723917 -0.7714865001270261 1.1606923833730012 0.2019367562802393
Ni 0.1590309396673296 7.067101629072218 9.243230332619504 0.10507301578195452 0.6955335416394796 -0.13435196725172993
Ni 2.1719248885649933 7.82722453588978 4.766597826443316 -0.14413141523599693 0.09005700198909651 -0.496187686014868
Ni 6.5607317465976545 0.47513085393444654 6.583830098047259 -1.3780752990049816 3.7934138316913253 -0.44726730616508137
Ni 2.1942510164757727 1.1906467668364331 5.632424834268 -1.292695133666264 -1.5533211762575958 2.4166641934763025
Ni 5.690945707567939 0.3319452762109114 10.649430922573348 2.0215020926468927 1.1570398742220782 -0.6431349734331053
Ni 6.363085011427216 -0.08776745426440327 13.132834392433278 -0.2750913260870424 0.47306292707194664 -0.2551593630498057
P 5.784453110480981 6.8523477408646425 5.240996176470719 0.7369745823930857 0.4227646930380268 1.106270356978695
Ni 6.100898493173362 4.765616843909545 11.270028000065492 0.38197722670801953 -0.05731554589201742 0.3519649966166455
P 2.2495444387653576 4.406597558221391 2.67045891903016 0.14468085998156374 -3.3814102338245444 0.09543343580966145
Ni 8.757208909877937 1.034751830655123 7.471842829502936 -0.3551377379176722 -0.8735886062061148 -1.44196695545262
P 0.04700864606981715 4.357890205108632 8.725907992609228 0.20560623471202655 -0.00635242458058906 -0.743793662197448
P 4.302033318275167 1.1362862940375347 12.22713903513581 0.6082469033066686 1.3428550423501064 0.024561491389448024
P 6.045678967873139 1.8784522324403032 4.471563172706002 0.9545919826333753 0.08803277247021614 -1.2414995846290555
Ni 5.099474204720179 2.7989685546665433 7.687126928609181 1.4074226418188471 0.7035188738378013 -0.027575852735739603
Ni 3.6912285155857605 4.446021602045639 11.515136000365587 0.31408004864541395 -0.6190385946055339 -0.638433454192378
Ni 5.525665853737745 4.045767796293886 5.1426420547679434 -0.2788623630937004 -1.5154025468349515 1.206857569075154
Ni 1.001498185442543 4.802657709826891 5.251581920196723 0.49500729255352166 -0.22778045681622064 -1.1237674853221935
Ni 1.409936082766059 4.243894861895172 11.40330306780331 -0.969165509572176 -0.7823257568343752 0.18603911121337638
Ni 5.568692375793356 5.577643148629742 3.5853886288606867 0.30258130397719496 0.4438873339492549 1.1813401415303397
Ni 5.000276733626319 2.8853726094772307 10.189173685172596 -0.059065952924220864 -1.2568835232842936 0.5032823880781203
Ni 8.778204891980213 0.42140220039458715 12.588175708633527 -0.32115109655958235 0.5353967521141618 -0.2709929876479526
Ni 4.513166254004041 1.821135880066953 5.8593357009378755 -0.9660835282127426 1.7266870628786777 -0.29147619520296897
Ni 6.9534203480635455 5.583610330520666 1.967690236792996 0.3819468876907164 0.4110540894693179 -2.49358208698028
Ni 7.206064917566124 6.550376930963403 13.1729872453151 1.1013937456126837 -0.5887515135862182 0.550166968444801
Ni 8.462738644396868 4.102363653020963 12.757385958585376 -0.06121051007104941 0.11170543349680763 -1.1771129908228695
Ni 6.093804382194677 0.4298467788538485 2.1548537603101683 -1.6714746793725925 0.32173088032245234 0.15047278407299247
Ni 1.3575154059378944 8.151937144266956 13.100320640826675 0.7425880719251211 -1.647220691921234 -0.5757687281733053
Ni 4.107166957329447 0.8982382273585454 3.6157270378429645 1.0414770146523935 -0.5788424820026226 0.26744563661632653
Ni 4.227896163698453 8.942976704008547 5.736890236990954 0.6618040105975183 -2.494847841066581 -0.650114490074732
Ni 3.2498510352544496 5.415319174374001 4.3166436767842615 0.3191284097025988 0.3355109648256802 -1.1239497765363289
Ni 0.3183048156871844 6.200677903058443 12.037676391537135 0.15214605801035733 0.9668998534664509 -0.19880078175441893
Ni 3.8334155602405513 8.466091720289137 11.20225522369752 -1.3351702721113392 -0.2903397676056806 1.0338734912735226
Ni 6.647828585683604 5.330864152657717 7.009531255797939 -0.6860700822337346 0.32083279398821524 -0.6803149249175122
Ni 2.66467925074974 5.936653197194226 13.401182072175128 -1.574942096961481 -0.048893897487225474 0.6279307548888411
Ni 3.0181654993594678 2.629975377120945 8.324312956500567 -2.100291749252286 0.9462322978147704 -0.252262758228301
Ni 7.776346458714533 7.50962451273863 6.781430647599346 -2.3679919250815797 1.124033851609703 0.055029320961002
Ni 2.1467722008111445 1.1695307021264447 13.098927682577216 -0.4483993628869955 1.0001221058546903 -1.4043704852560845
Ni 6.15985905356 7.306176863903331 11.395408098202426 1.4506804240662177 1.477293655778372 -1.2646212582481833
P 6.771689176976795 9.07322014775782 8.350729282772495 0.39159469519312556 -3.0819872729706725 4.581182099697511
Ni 8.956121130991185 6.963618132595403 4.6638366730375065 1.640814274174258 0.21058774708701794 1.1722651758122649
P 0.5550273551195055 2.3891358516688332 12.068920038639087 -0.10271248596957794 -0.6613651232878868 -0.5616196903664327
Ni 6.779365226746698 6.835388381806226 9.086026496014131 0.423342934139 0.8882410660119671 -0.0899191908596516
P 4.1422957386470705 4.760259312180852 7.996438480691095 0.0311172902300948 0.6942952983570042 0.45404010611254064
P 8.50063856281554 7.896807788497104 11.164819932599459 -0.6103521225751295 -0.26114154877516965 -0.010653365948788105
P 7.8605890265864025 8.781317802657057 1.1928830744769792 -1.2363974875157997 -1.0118666479851282 -2.3059092968182227
Ni 5.113708612295898 7.09010206701092 7.3134215399978375 -1.3392161600459385 0.597606392873687 0.21818612825956618
