# total energy = -381169.1468323187 ev
CRYSTAL
PRIMVEC
9.22830651979049 0.00000000000000 0.00000000000000

0.00000000000000 9.22830651979049 0.00000000000000

0.00000000000000 0.00000000000000 13.50655940323015

PRIMCOORD
 96 1
Ni 5.803275924636485 5.53267429256473 5.990267253980126 -1.0193375024408768 -0.7854061955319118 -0.7677026076045617
Ni 4.199959178242369 3.0870438686018304 13.14331404904834 -0.533497735319236 0.830306398478712 0.8544585702448834
Ni 1.486449472630971 5.659102091882094 10.952307367249306 0.503563666763965 0.5762243276534851 -1.3816766432029948
Ni 7.98574273158236 6.840389924525724 4.491174078586766 -0.8802253947963421 -0.6619503063673955 -1.357341923112372
Ni 9.217740108550728 8.057612782756348 3.035342281326244 0.35573834761614864 -0.8683767229878723 -2.4382619742517364
Ni 1.039134999017012 1.8416193056475667 7.056326760098476 0.4877495825498439 -0.5755617543688216 -0.616415298050074
Ni 6.701540824633092 6.785223108152059 12.803678224396045 -1.2316628010442916 0.5176345430347343 -0.24298133292637508
Ni 4.512125102878023 8.323018878257615 10.785757659677046 -1.056542136515632 -1.3024817807393827 -0.908425768489958
Ni 8.043299679344578 1.3419711057614352 7.654653241597788 0.011808562599153857 -1.1803970608907801 -2.547154878000413
Ni 0.07755376515935694 4.012412304846254 9.84984772889538 0.9716759346988556 2.234035907716688 -0.35728872282240404
Ni 4.962198840141317 8.930462926598208 2.709794389406641 -1.1295956619681964 2.494430551023504 1.5544203228590454
Ni 7.909332353600771 8.964284669992233 12.407449810012821 0.029754862664929396 0.6546288330053177 -0.6471116986926662
Ni 2.5771983900116338 7.786383625841265 1.5433807412111666 1.184583845278618 -1.6167050398308802 -1.7725843396314247
Ni 5.386488688989084 3.117220430920646 10.719845403192057 0.40165053676723084 -1.609612651760473 0.8691951051241095
Ni 4.941730456281031 8.051955830859884 0.7336411399949686 0.31274436055312593 -0.5274754403845561 -1.864502048978344
Ni 5.72546284406393 7.713433862804494 4.616204712297075 0.02030580143688761 -0.00032935831496072306 0.7571677695115089
Ni 0.8756020248459806 4.655496072965217 4.537136582037865 0.14972716415621956 -0.09116154790718495 -0.24548558740546753
Ni 1.9384057844242462 0.24323139776552394 2.6568211414926663 -0.6504898711362798 3.0179855733077314 1.0371045966163106
Ni 6.26231034753023 2.0380530382219755 12.731283082581099 -1.1062513308153012 -1.3417885487588053 0.2825596094396295
Ni 8.285302789512356 7.486934307589505 0.8645806583697232 0.7713687436022392 -0.5810816557457863 -1.043285271505726
Ni 4.066822400085318 4.941702771361473 10.32149632397065 -0.9492831688259523 2.35743034751565 -1.859412036049946
Ni 0.7417223680141083 6.7228028428540565 5.6492942477131525 0.9476592600692841 0.2077433356596874 0.5391284512424521
Ni 3.279620169051081 8.812386744681007 4.46491770087744 -0.11749272960254604 -1.2135969446815162 0.020101912956197638
Ni 1.2051799182226557 5.48923665377737 7.8844269999659025 -1.6128890085188998 1.130656756242859 0.17384154070591995
P 3.711938644570827 2.3755414359471794 9.331722613695874 1.8898644390025325 -2.141986557887911 1.109736204040108
Ni 3.4802620093983885 5.499572357079228 1.1576015382999894 -2.2772533236444263 -0.8326784982553143 -1.4086927667805222
P 7.148043207273334 8.838309057694326 6.168661492970185 -0.1293527142649256 0.5202760944226394 -0.23398684273724862
Ni 7.547471998357526 6.738758584826298 6.652710163515727 0.6102947869746328 -0.09111166850585599 0.9568383554653909
P 1.8721188586945658 3.7851191152705854 6.4665761438477505 1.3873811497869397 0.6760641200609583 -1.1567544817711755
P 1.8574458513285361 8.829597536339902 6.903674882144606 0.7151366605823878 1.460606167820362 -1.4814513867004873
P 9.139613265556509 1.2749736004297523 2.8856360788134032 0.6574747870945451 -1.337685068113393 -0.5778536357267919
Ni 6.738038776917777 7.1372091754194225 10.247831367178616 -0.9029362061302966 0.4988960860849666 -0.1514827133947456
Ni 3.7703538248393604 1.958449666184634 4.293951325804939 -1.1703579314872232 0.07035181025068529 -1.7956607618349139
Ni 2.3760120795796746 3.4422967563771016 10.804099841715235 -0.6098242750961175 -1.0211840687313123 1.5578411756151365
Ni 1.4162036034044183 6.748383708526153 12.996714094509969 -0.8266405195913505 0.3698678450389953 1.1268836623536722
Ni 5.709617841769922 1.0678904021318227 4.986580948796529 1.4359929972573722 -2.0120581736251735 2.245366502238159
Ni 6.8343546120619605 0.4088259756130153 1.1432016888069374 0.01942108483908913 0.6372805715348573 -0.08677987389972151
Ni 6.603139392215498 3.2619110488401306 1.318867117559176 0.8190560223758734 -1.4844824602173272 -0.3611878007664941
Ni 2.0034007472411943 8.1606283684337 10.809650668086721 -0.012972243889951853 -0.11792287516142916 0.9701551271789549
Ni 6.619030536042104 7.4279654289298005 2.355287148798147 0.6208386239287501 -1.380168176978268 0.2058569172702519
Ni 7.368166002683339 0.047147418008205065 3.606481248988411 0.36629478297575624 0.8247155346544958 0.6603955602857658
Ni 7.5195010012968755 2.9936534066243325 8.94759620048234 -2.1446283663861325 0.9690768065131116 0.9977353507900686
Ni 3.7513527417156785 6.914899271364293 12.609089230294888 0.09101088126193357 -0.23798747925620953 -0.5248457160711929
Ni 8.54126832744416 2.0629510092116283 13.365861120581023 0.8075089409682222 0.2997849721789805 0.8829785320614472
Ni 5.3037846059611855 3.7305429105141705 8.542750393471193 -1.2279956366053495 1.0781280902165238 0.04356734306798949
Ni 8.196175805146874 0.23233738191923578 9.689267812810591 -0.005971129981770362 -1.4761052918972255 0.8446037889379907
Ni 8.573973445749322 3.3508996086078198 2.8805171371870277 1.1494103827012787 -1.1050184868494646 -0.8937802506626413
Ni 0.4910732574681978 -0.017120354255005292 0.5514226907832218 -0.33670061425840725 1.110355582791662 0.8552859512421852
Ni 0.8024640043562118 5.464301769561639 2.3486012407247574 2.0566950956082577 1.2997836650819292 0.26730422594245573
Ni 3.824976171128373 0.8002971979854295 6.308886533364876 -1.2933155408590824 0.12707086020928438 1.4603768254183753
Ni 5.247851840146401 4.9116646336404495 12.182214532791006 0.1357393345175598 0.8841015899222967 1.6164525575004418
Ni 2.422125927257694 2.8397990803309687 2.0355733922601815 1.0693598571055905 -0.44026516381563535 0.42358538916710914
Ni 3.193363188013169 4.258226705606591 4.108181824244483 -0.041097541371258255 -0.2977512295784033 0.5795518493648212
Ni 7.931849421508389 5.2909480315925395 1.9103812631857815 -1.5532622979952024 0.7784338779791368 -0.575126466603616
Ni 5.745036082191823 5.516949258255476 1.03585710454128 -0.12569454868704802 0.2863797545166681 0.0991777333434421
Ni 7.640428729928606 4.325565658279496 4.647215513525255 0.5377169156069063 1.6221439514582643 0.19727766024167315
P 2.1987547679528197 8.964976792981197 12.965958917372378 1.6768356865741894 0.04102246515894871 -1.1107882994537064
Ni 3.8571275910423655 1.2191331176801634 1.0299463742155306 -0.15749806635089006 -0.9016108024506537 -0.18668265833464626
P 6.155861831827616 5.237110091357686 3.342967879154296 0.30425277814234697 0.23502916795883397 0.021256081165298875
Ni 5.650953497225361 3.3136357068820153 4.639975907060695 -0.034503433093508326 1.2627973176655671 -1.3135966597056217
P 4.501004993522006 6.88045923143346 8.775130225600419 -0.3460758848257201 -1.2357606252627493 0.9477423067013937
P 2.7458549199623006 4.8097749013584785 12.555346341617186 0.30822487541621757 0.1352791070516896 0.37661519106515784
P 0.17256564059233342 2.064427538254751 9.354319045039558 1.1315209040153673 -2.0680202908130902 -0.19225835265021082
Ni 6.813692433764765 3.474660427341043 6.802186581196233 0.3172039389863763 0.15117829478044933 -1.0024042170206477
Ni 3.6005898981063527 5.482767610907191 7.241055308683531 -0.3352577111642936 -0.1418639593580589 1.0913702999384107
Ni 7.088049986589963 4.866944260246877 10.778693391036356 0.6857705487154447 -0.8066576487115203 0.22240145189249438
Ni 4.463150480178953 7.5099127908230985 6.539619112780369 0.12140980526876509 1.1923547474732885 0.7817739980959633
Ni 4.368062009801865 3.4402573006362887 6.451826541537609 -2.0499184390060567 -0.8427047721430648 -0.46122556811738635
Ni 6.120065230838416 8.154408489839547 8.237083042286582 2.6170361763725833 0.6526094885824438 -1.0385295019882952
Ni 3.5684569348053987 1.4006631352255543 11.570569759322728 0.4515332805302869 -1.4365005330214098 -0.8146064712449519
Ni 5.8128918200298205 0.7906019391560265 9.87379426148287 0.46129344524084426 0.781305543099977 0.5597432992793263
Ni 8.545162672795394 1.9759834485717136 4.852514880172962 -1.7361145268401648 0.20087951866031858 1.8220994156424168
Ni 9.102109427861198 4.242557041136453 12.130321919570465 0.7221390600421499 0.004681464636069357 1.216881271859743
Ni 7.882256502272512 2.250673220431614 11.184646594829847 0.18930904021389977 -0.002859580935982172 -1.0384477409077664
Ni 8.581273036206259 6.796943057431844 11.545798216132392 2.280886035301007 -0.3013962825301584 -0.4065608295846546
Ni 2.3358597179132623 3.701584484655931 8.616226169979576 -0.42839823717472025 -0.019333667331605412 -1.6589647198310398
Ni 9.005738222877897 4.076659774835122 6.4505567265605235 -0.3893228684398134 0.055681609833020236 1.4274813602419352
Ni 4.435926975946383 6.44365579894523 3.0206877305732536 -0.3405207593354458 0.3216313786301106 -0.15600836917924102
Ni 5.727493071498223 1.6557150708119257 7.640768331608525 -1.1464050202160514 -1.6140637455532911 -0.29814512258271236
Ni 9.009798677746485 8.35361994267633 7.507904711324452 0.733310503277937 0.15372342979980622 0.0783422846553296
Ni 1.984990275734761 0.7613399020132946 9.09969345721439 0.03194621388929337 0.7238740404553855 0.189979326808047
Ni 0.6390279274036352 9.071065404729547 4.933392681340649 0.500766563634802 0.8758781735712399 1.7002268118046202
Ni 4.605561706388118 3.7345664521566793 2.290550578563745 -0.11105957238269261 -0.5515175689354244 0.7246667115600101
Ni 3.292576711404481 6.403401925907103 5.013310738630306 -1.2550829797404448 -0.0450477842682579 -0.35641480485788296
Ni 0.7956848903869757 3.7290848380840873 0.9622244468220654 -1.4196217549882002 0.42774466275112144 -1.4008017940682196
Ni 2.2568377291866506 7.547352030372773 8.495652808318193 -0.7355224233275913 -1.5334846011476426 0.5497486499604597
Ni 1.4586814983137488 2.3057662103531222 4.107061507833014 0.5705792135525658 -0.096896136398117 0.4834296150182514
Ni 4.041619894980521 8.959329069391252 8.427485153719836 -0.33026745703855376 2.4659470988718306 0.6132122177317438
P 5.780426637694165 9.032057353071556 12.247154125768835 0.287189394902157 0.35559642272164566 1.1809081961992436
Ni 0.7735747907968684 0.9287367681240473 11.344645127603904 -0.15008326194405763 0.27132208885259723 0.632784997657349
P 5.975116220336385 1.8058503895779245 3.0582091020509514 -0.36214733646628594 -0.05494498877731182 -2.2321474324447235
Ni 1.9040949407846872 2.4811686323695548 12.841131306405499 -0.6854450470552259 -0.2774027478290384 1.4614949981832184
P 1.8317911592042828 7.036242273789402 3.4170785631512217 0.8402064312012433 0.038470902381688585 1.5734922518888321
P 7.269376981391925 4.5086737162397235 13.147150256068505 -0.23097968047980866 0.24900208519915823 0.045471244958921686
P 8.795175953022111 7.022002996829791 9.243240687956106 -0.22078062845961974 -0.5818596715623914 0.47275619446480516
Ni 7.071134500739691 5.320986169313563 8.4718945331837 0.6613334987190029 0.71385342299459 -0.3980124257940113
