# total energy = -381182.141911546 ev
CRYSTAL
PRIMVEC
9.13829210664987 0.00000000000000 0.00000000000000
0.00000000000000 9.13829210664987 0.00000000000000
0.00000000000000 0.00000000000000 13.37481421081317
PRIMCOORD
 96 1
Ni 3.3675610822494266 1.5351873458661816 10.68027081324098 1.5146510133809077 -0.2265087891926486 -1.4017983536535341
Ni 2.633454679943001 2.653147698963458 12.44697587028181 0.240137949940309 -1.3532003901401728 2.0166635336076686
Ni 0.927399552339233 -0.008554355037145942 2.491995749162089 1.2847103156885746 2.134533958264608 0.17821473007295113
Ni 4.463287971181148 3.809708196999207 11.147452278620246 1.036987611422472 -0.26022315072595825 0.48935060848837664
Ni 8.948864236279183 1.9080296549309765 8.417947754121183 0.9713370633021982 0.4947756361586898 0.1447381955820604
Ni 6.129993613911559 6.365094449335822 4.654582576777865 1.019032312495632 0.24334540113401312 0.26669847403765684
Ni 3.6730633183853376 2.943023455969447 5.039469154552155 -0.6768814737559311 -0.3634894523164773 -0.25241445331481693
Ni 6.412147514271475 1.4584531088755668 7.542832938823965 0.4661970531900487 -0.3446854322360967 0.2744673193497983
Ni 0.8730605272806058 1.2621991522707743 0.09326083787158734 -0.8886768679978051 -0.9957157492568787 -1.0454722518547155
Ni 8.191235870650877 8.970339222217964 7.65391070439123 -0.7935288246390463 0.6975459440838181 -0.5984445725042662
Ni 5.551612843682906 4.095937775541548 3.8492048083719754 -0.8512372350941082 0.5023472778583605 -0.5012553303457624
Ni 7.479372070801895 2.0333064984351252 0.11477420463630156 -0.7173755772152356 0.4798591240581736 0.18424988052343752
Ni 5.89974521148027 8.146540485022545 6.606435824290977 0.9584658637664848 0.61096507356878 0.2711009739807267
Ni 4.322786733390187 1.7394281695818228 2.9118838125290254 1.0695457478641515 0.43642522124425487 2.0422686357702826
Ni 0.5533793174499663 8.761419593055237 5.651621396285216 0.07328389629581573 -0.17735315340360425 0.33496794783801664
Ni 7.084104393441879 7.441521265798307 11.219743478094504 0.21640538221005956 -0.8206092257956061 -1.099176683356707
Ni 1.5754963513878681 6.395588929368891 6.2672635516906245 -0.01911383801131547 1.2116531906915842 -1.4686521780532902
Ni 1.0837100350978925 7.717643893511587 8.091428360470122 -0.54242331994364 -0.7263695531837296 -1.7059508587725911
Ni 1.50163153805035 4.138275481862557 0.46529532193340845 -0.05261248398939326 0.5827510730284092 0.6032134546478192
Ni 4.883786472446259 8.523686929566985 11.167541899508677 -0.8071533574010163 -0.8823452693528223 0.2668054319291663
Ni 6.782531622818171 4.048272445049342 12.21757184602105 -0.5665454098028243 0.026341980328638503 0.20903634343949806
Ni 5.741424304506064 3.277146822301214 6.350963908588104 -0.3249319037582533 -0.1037776940092987 -0.9498359560056286
Ni 3.706628264493058 4.888054054758348 13.26477897416896 1.040578156987208 -1.0313363266739657 -0.06536027057336485
Ni 7.080284587432343 6.303685127842797 13.312795215069698 1.4290880426074228 -0.20509741339640805 0.4370147751991377
P 8.147161888870986 0.9833715901583964 11.661513181389276 0.48116138780936485 -1.2018634582946721 0.08796926622213237
Ni 0.7244234682210074 5.083933341395698 2.635761184815745 -0.21558648585319 0.5152637288097126 0.34601854922522346
P 4.551828881292148 4.931817334614018 5.739426673899164 -0.2814674048167152 0.8837166957790523 -0.7470934159946424
Ni 5.763082056282622 1.4711553346010584 11.57178155184516 0.2145829842893401 1.220822001675046 0.2978340191001967
P 6.22665846551174 2.417388906523197 2.1196405110549694 0.5045296302216602 0.3917001104227383 -0.11559885501394285
P 8.964344502738884 6.14759396408947 4.752151205445853 0.5013437762945108 -0.048959203507522135 -0.2392048966030784
P 0.2848204539330812 5.848890617118858 12.907458053877367 0.027133108771366175 -0.4275441167045411 0.7654523781178043
Ni 2.7131314469218233 4.534913903005899 6.807231511964525 0.7112481241612589 -1.1445440557479127 0.14851566034662164
Ni 2.295557199061142 0.5364122508999514 8.416047903237493 0.582060731829604 0.24746790794281895 0.2794624585715445
Ni 2.115030242797048 8.871389797645573 11.576623932717057 0.2620990275924325 0.35539767644727827 -0.6558285097403738
Ni 8.269066702668153 4.245220911837687 0.8876690006941101 -0.30312226408232956 0.5714973544914609 -0.5939420566482222
Ni 1.9221940073586832 5.646614526159318 8.941236504039567 1.340384726432743 -1.481604367338584 -1.339602339740764
Ni 3.529893699362834 8.4830489455373 3.053068594553272 -2.947716038358207 -0.058433461546544524 -0.48802366214683696
Ni 2.7021654966552116 1.6710646079613882 1.461185458150331 -1.3065330679906209 -0.01443057360303321 -0.1727717046805089
Ni 8.185771172101347 2.2699425668967153 6.122200478588753 0.594729328436208 0.04934641164361179 -0.3980751607111467
Ni 7.601441373853059 2.643991130490837 10.334062969715408 -0.75088373627501 -0.09849999055012713 -0.43110895123766396
Ni 4.031457987973871 7.28550320838009 5.2294853131136225 -1.1955136048172441 -0.008737894093630112 0.37381705949473043
Ni 7.566889492221343 4.706960524397147 5.534444734711337 0.7234264113950057 -0.18243005370587936 0.8835655149131686
Ni 8.20533625503536 7.958876522793265 3.5405544306803582 -0.12020061545201235 -0.9638921769883786 0.7707611919252274
Ni 1.605186661734719 7.295792925046927 3.885958104519713 -0.24223134213422803 -0.4117187196365103 -0.1301970645430919
Ni 4.848832505971434 2.4852681386735225 0.3462133265007063 -0.2785206634835655 -0.32217156740429675 -0.574498860321946
Ni 0.17870021171551395 7.476182806932688 1.4267048551953485 -0.8197818447983043 -2.5999931048473672 -1.6576822535741904
Ni 5.832240649297386 4.453528275443864 1.2344324523665247 0.5291482001012887 0.21525918442075828 0.12012425368812214
Ni 6.985218936912709 0.20677944120236189 9.733721056419489 0.292276065396445 0.29696267223883693 0.1517133413483129
Ni 4.164776528340202 6.31543697121185 10.200836726097153 -1.1993082959729862 0.1246635363193724 -0.07215466778737896
Ni 1.6763556789650282 2.1457349035435604 6.547573344747373 -1.1485758026151254 0.18515388039494562 -0.025931375153781147
Ni 4.823236150390785 0.5122643145836837 8.850328776329356 -1.112761106909361 -0.85333242706024 0.44789928332212536
Ni 2.645160831852609 6.410813323655703 1.6757306197998314 0.159679390272925 -0.9919868783420659 0.5803134101211941
Ni 9.136683549470575 4.379051196549793 9.785736213850782 -1.0133632871353129 -1.5048993333107825 -0.8543683245239221
Ni 8.693485531153577 1.2414095382236563 4.009207161053728 0.7863353922144006 -0.14922271371597529 0.46853212908112857
Ni 2.9521343329826233 5.184664732886414 4.206819981662391 0.2958961786475356 0.5182256396515139 -0.3815990174329944
Ni 2.2862178647507445 4.435050649244623 11.24224012506646 -1.3102912494814725 0.846820336973335 -1.2506318859476269
P 5.397002083215571 2.557826176270936 9.619112254866375 -0.010195709586079215 -0.04718617076749938 -1.0278409119261978
Ni 3.6777695387080915 6.895681952985825 7.814730020367844 0.19690922115866089 0.772463776438631 -0.591022311898266
P 5.284354359101804 5.786128828426285 11.879201915448538 1.5475243670701606 -0.21436315496905017 0.4942997249635358
Ni 2.6421543338211797 6.751141590179994 12.421350272167116 -0.8004191240009764 -0.6226371105900697 -0.6062980071104139
P 2.7509639753416333 8.834434545247092 6.266715254177294 -0.9578074042468794 0.01709937868444797 0.3525836040372508
P 1.922714889996347 3.2627265977006195 3.0165821365286885 -0.8308445303703692 -1.2796419000267316 0.8451763736120089
P 2.396160654465415 7.629267472654587 9.716494462379831 0.8989034308218197 0.9939681704381527 1.4224535680100405
Ni 0.10877948515722054 7.97115838709187 12.383151298242565 -0.6233853016100037 0.656454830470463 0.18652273571801425
Ni 4.882443143538599 7.049232671594055 0.1847863141134834 -0.98316568050601 0.5436818749410894 0.5967836398620754
Ni 9.124145812999082 2.315670579508485 1.995696030508214 1.6266125287525792 1.1630765673344616 -0.050902443276822015
Ni 3.606801563899337 4.06361563713071 2.116350725974986 0.37405437231651706 0.27885027890884234 -0.201896132850291
Ni 4.941010456254194 6.306152466652785 2.7181236957806982 -0.8424579462395814 0.06317277600374281 -1.025386536848434
Ni 2.401022225750279 8.39553152411785 0.6743858371544587 0.08092238667767998 1.5575035897700595 -0.14111602544844085
Ni 4.351289065791488 4.495600971300097 8.715952021762298 0.07623937937971385 -0.8568967473727307 -0.6535451130228358
Ni 7.5969910257031925 0.5446083848950547 1.910498821399342 -0.39397862204426987 -0.2601583589262939 0.6054716545543766
Ni 6.711600201176971 8.859190177973968 13.17437933548777 0.7733852598116359 -0.422479300587124 -0.5881663305067096
Ni 1.9858422103644746 1.0997203224871457 4.2844077351154235 1.1571468321135878 0.596552754798192 -0.12377007797082556
Ni 3.788781508573756 2.285011610221417 7.496383001152975 0.6555999386693354 0.2942416737632481 0.8991111759572515
Ni 5.945372702881262 7.160454822173162 8.936836416495089 0.6543267283838666 0.9244465693982467 -0.08674979199273447
Ni 0.2447938216307599 8.958002528168027 9.717671474375113 -0.6843754681401311 0.09923584027488716 1.9787528746048244
Ni 8.200867630301717 6.835478886022127 6.999200523502639 0.25285308351413227 -1.331429059901352 -0.3326002189367885
Ni 4.908825392221688 0.11896593912571385 1.2790739220727119 -0.15626316550252445 0.4351964910434763 0.53986378674658
Ni 0.3801977202061246 4.633488657610848 7.255595406686285 -0.8727342286256197 -0.7829559342192064 0.32221527615803863
Ni 7.465344792752521 5.8513579559288456 2.420239139763327 -0.29803276537456413 0.5183266840057524 0.8841262725126451
Ni 0.9011753961058202 4.090007024105689 4.910856834508579 -0.42378413544147664 -0.8215535919867464 0.1571774497866777
Ni 6.5032654226951285 4.879500613550392 9.799726024903412 -0.021389778529685745 0.1795858993888649 0.41170792100323284
Ni 9.120335145281434 3.16913221217509 12.23515940259032 0.2709600775274882 1.4384697409326388 -0.21335913918456803
Ni 7.730766480663966 3.4232955244794803 3.663320985402642 2.0780483644730534 1.1743390276221584 -1.7714741372863814
Ni 5.552270800698903 8.580134158564368 3.7044752829240464 2.3245832190786415 0.9028166498332968 1.4328621649378743
Ni 1.022035703140091 1.8958391735512599 10.655432935887104 0.21450225165007578 0.30958036100284747 -0.86895599253011
Ni 7.416034569720323 3.6295193575350004 7.876067149354947 -0.33723617504690306 0.9813846773461874 0.8551982766243852
Ni 6.036746483477804 5.8392223043004625 6.963409489490796 -0.877518023167508 -1.0210444578296545 1.3409069174848005
P 6.4594381747962375 7.8358659756775495 1.9339851453828572 0.5733971426173351 -1.959287823901677 -1.4044807855817036
Ni 6.409177569407601 1.8207863822681922 4.331647221205609 -1.540361016552502 -1.4074298409076986 0.9641086638745591
P 1.7207677775448054 3.4232863861875917 8.72867069641319 0.2629253801484697 -1.116305886837826 -0.43894335968041825
Ni 0.764369683554707 6.151733610315115 10.770791077375103 -1.0494947427505474 2.9096446854077826 1.796830356662983
P 3.8342902021801946 0.5202840795453324 12.862599092824224 -0.22124085592548995 0.6322939169535433 -1.3920813834760863
P 8.065611772054952 6.379916758779525 9.2509706831492 0.08930289743189136 0.04320636018414494 0.15860466915150748
P 7.381976155850606 9.098631702045433 5.206387366535384 -0.608833629048074 0.3914453140994549 1.4710918978430343
Ni 4.562401885007539 0.7587871010398128 5.742356410278727 -0.4147963301205695 0.3784671566722321 -0.4213557285056421
