# total energy = -340876.65471939114 ev
CRYSTAL
PRIMVEC
9.15342776219940 0.00000000000000 0.00000000000000
0.00000000000000 9.15342776219940 0.00000000000000
0.00000000000000 0.00000000000000 13.39696677263428
PRIMCOORD
 96 1
Ni 2.3925229961421786 2.735868078341632 8.140104111333523 0.8173560089656311 0.6927914601179681 -0.4137979707630422
Ni 4.188745928837719 1.2010304340301912 11.087544523185104 0.8779229719154106 -0.2654175504427042 1.2322814084648972
Ni 2.176081038965738 8.308319402698597 10.976309320774748 -0.4997229528616361 0.7385252147096572 0.06881557611181696
Ni 0.672791599407927 0.33365800940575346 12.797961391642996 0.24684544386747168 -0.9674811798912176 2.349906528334779
Ni 7.145843207170782 4.9720047580514555 3.412958127512312 0.08096198166636379 -0.11613595846433548 2.186120572092648
Ni 7.5607864027523775 6.665837445759443 9.435336133712084 -0.8061125748413278 0.029222644310543222 2.088952670090383
Ni 4.323484388181253 7.835627230214942 9.38377121272935 0.13378452478403408 1.31452919882222 0.6001710682770697
Ni 7.63295202866708 4.488740376291862 10.63589242017475 0.4088272570213282 0.41456827327016343 0.6084243094247974
Ni 8.741743369300206 8.874230085369385 3.519195558264952 0.9949603591480928 -1.2737345334033612 -1.1154129427099113
Ni 5.5037365407773535 2.8683731012666995 4.030397117454055 1.313387371908293 0.7232916855893544 -1.187526729957026
Ni 3.7539581014723757 7.820148783560735 1.8869224195123344 0.8501293467419101 0.5866990019325637 0.05651773258107041
Ni 8.71017319631951 4.8571566976313925 8.381370165095538 1.242072940634022 -0.02619105657307102 1.9006247628428297
Ni 0.21025423988593558 8.907283113677096 5.851862458392237 -0.6321795028628661 0.9046935551410356 1.6646250034406105
Ni 7.9478024896752 8.35918500178637 0.9309676959546735 -0.65666488959874 2.460090125870421 -0.9134625595829171
Ni 8.015190026202855 7.069851448375265 7.346227305704128 0.4924251336486422 0.7015175271370564 -2.758657423592217
Ni 8.564560464577871 2.0348070320698075 11.397643439747217 -0.5399278072152959 1.1556807890910226 1.7495459697547224
Ni 3.8036154480714703 3.794159957004767 5.623711436189148 -0.06936784907086117 -0.037207205177916564 1.9584301038870724
Ni 1.350505912364424 5.341839860722389 7.021230269819491 1.980873777602569 0.17564902622830394 0.03407714418936712
Ni 3.152431430669409 5.742833232116514 3.146344401086294 0.727643791910463 -0.7811628468745256 -0.8783088944999197
Ni 4.499916711812137 1.2264220431483273 1.8286059300777113 1.1021493928317858 -0.276949976562336 -0.020019123434404235
Ni 0.7637885726329183 1.4091336183491614 9.540864173799024 0.018879096292690068 -1.4012509657904964 -0.7092945999793139
Ni 2.0163628747615725 0.3605150823378094 7.429743182270051 -0.3280696780562866 0.6371664145544962 0.6923176058053431
Ni 4.6936398608302445 0.9760300217256122 8.663081555573267 0.05511133915184702 0.6333028178340319 0.24633096612489835
Ni 4.811709927886783 7.525939302567538 4.449333953647851 0.23197341185164566 0.9480935193932253 -0.45334745092089024
P 2.7569941900376156 0.6337064620847688 9.574263201683038 0.2982662215416089 0.45447256566426897 -0.7750225383047425
P -0.20614526608163447 4.0592523837064025 12.363471050685849 0.4154715018107232 -0.14760780382037159 0.7890684748748474
P 3.056906256640257 1.1174870971804336 13.385191323339397 0.05012288479832013 -1.1169653747986958 0.3766583855982674
P 5.939915689190265 6.980230235370336 8.237005045582737 -1.7378469361502396 0.5940898950799962 -1.2193531304390033
P 4.281277931929009 4.61848106397768 12.131208308650077 0.4363727707397646 0.21328791962700044 -0.36205503386279586
P 7.535733470468189 6.854901499953784 11.619296443452479 -0.418880270381956 0.43920175554812746 -1.2058496966359296
P 6.481423332960926 1.4718437531971607 10.94634008234155 -0.30993620168036945 -0.4785967124059823 -0.8373319378669256
P 5.934789769541327 2.879348061372195 1.4461088905311048 1.8778355328624563 -1.4165318032089669 -0.7545475582798423
Ni 5.034101613227171 4.614215566555528 2.0054318511102105 -0.8105860372316491 0.2740130054211991 1.5833164370681052
Ni 3.113126611075582 6.183305338235412 5.419274199761965 -0.989590095975115 0.03571827933721591 0.8380860424241308
Ni 1.9148330520008063 1.8248182415942635 11.730317455648931 0.7455188724186709 1.2585334001828905 -2.2123129142172995
Ni 8.280483828319271 8.88855520010258 11.35259026740422 -0.49297972060053163 -0.7585103995823325 -0.9630655673220251
Ni 2.289967989451625 0.8816307193336377 2.4190899054083923 -1.5248505796217287 -1.1652247240257159 0.044909716028496846
Ni 7.305250154824835 4.869733507627182 1.236789215638306 1.478309755747712 -1.2890413389637607 -1.5127609954470465
Ni 6.17225715070636 6.001335190698086 12.913631429892478 -0.6714538749824565 -0.4652223479816052 1.5496997774549246
Ni 0.19538358084724639 8.307870884729317 9.117868707654623 -0.04682235967017742 0.11078780677854468 -0.37206948067600437
Ni 5.424220712223191 5.858093196794081 10.768856945182634 1.4979550407824653 -0.13265195384148767 -1.7324234511418226
Ni 2.4812288663526534 9.053783727929355 5.002682471807558 0.5450342752039258 0.48555026090567993 -0.8910222283015299
Ni 0.2920007588301813 6.365449400903685 10.68491177284611 2.2181110089563156 -0.5063597414518635 0.7048216518096249
Ni 0.8765340906541215 5.71080538773859 2.994530221912233 -0.8944937317898982 -0.04355782998629273 -1.235072340946473
Ni 6.2323585585901675 8.814449047463636 2.8177976658447683 -0.6951949273531383 0.4031556605578477 1.064795634773676
Ni 7.115051075565371 9.305008711295022 9.036910298856402 -0.7766199646988495 -0.5290381568859857 0.34240074996697806
Ni 6.116018489415146 6.6940116969727175 1.8590969139037472 -0.20905408405131093 0.8926782758477142 -0.018632784609838877
Ni 5.447415498634638 6.07945969820468 6.24716605897604 -0.07339676772459618 0.9845311933949689 1.0446721245509234
Ni 6.508224569982519 4.1144109405001625 5.845351625095289 1.2619177432740913 -0.754304589031101 -1.005238086925017
Ni 3.175818439067692 6.009252905870107 10.739892753137745 -2.062054303037642 0.38975327110901264 1.501843577203594
Ni 3.9610269484336134 3.0673320110690807 0.2599363007404803 -0.960444070538778 0.0711341969426646 0.5554570131991466
Ni 6.268386450979852 1.035216086814966 13.138111012147014 0.5205702286242906 1.0473147043800932 -0.5804856740330003
Ni 5.474793401616738 3.476197330495505 10.163997511265062 1.6884814983432341 -1.2600194978101138 -0.0685929185780496
Ni 1.386048673073048 2.468972426334923 0.5173590701673917 0.4014556471476054 0.8871156941582722 0.9875530109404281
Ni 8.128701686143017 2.6506862778898026 0.6977392672707532 -0.8785410651153839 -0.4055434440637338 -2.185189832748262
Ni 6.4443061826458425 2.164712481458628 7.37515122266606 0.12560995939304176 -0.9272979228041127 -1.399990611020834
P 2.069745666534092 7.630151079716052 3.3842081256813263 0.23330935705424982 0.5685110181696273 -0.01640698060311368
P 5.531361586313955 8.527415853978953 0.6955342064789151 -0.4664487641895386 -1.6748651931113798 0.6912922498646223
P 7.9383836123202745 3.097034884749092 4.44444419243988 0.21929093128797073 1.048032299272408 -0.8397562310377021
P 2.1663051779209765 7.002820895537446 12.600986029676195 -0.7144226652344987 -1.113203079542786 1.4949540491726125
P 2.1857836725869437 4.21687441291127 1.7400785517121553 0.4350951895789217 -0.26849773202992466 -0.13789931828335605
P 7.4925109837141015 8.031162757966067 5.025697851031294 -1.180612776446012 -0.5582104075745676 0.37672883382488664
P 0.12938645002436505 0.9844237151507494 1.782922086549339 0.6422394582020294 0.42634649685201415 -1.2799110945277183
P 1.760872393973752 7.473764763283697 6.6680992578045375 0.6459937830381391 0.6464645520269705 0.7857396676119307
Ni 4.195903909490345 1.327466734228033 6.42105922169511 -0.0786256202237033 0.8422748836944979 -1.355164455845079
Ni 1.4476695499956476 7.757008437599342 1.2266087730783957 -1.091375185034417 -0.12637074881846624 -0.256709481145745
Ni 6.552243404967782 4.478030865596757 8.155350060917936 -1.159770385779364 1.530475382007674 0.5229428426215252
Ni 3.976221638821539 5.704388834749473 8.605769197184161 1.4621372597529079 -2.421063608095579 -2.0539180470837533
Ni 2.1277234791347674 4.507440829582544 12.582940961826342 -1.814724206224268 -0.16253819987795878 -0.3739962653850721
Ni 6.057399936858354 3.4786229889008067 12.579658542565433 1.4250650374909584 -0.32955320458034854 0.07379091783922131
Ni 1.2322436233210505 4.241359832662898 4.935670225825628 -0.5790723386252414 0.21961051941091855 -0.8393376554430448
Ni 3.3353077675732448 3.626240321362299 10.35123362589888 -2.2068763165827607 -0.3635974386492512 -0.1360272980716238
Ni 0.17837468104071413 3.42625622763013 2.455904992601307 0.21398340303212823 0.5240365899063362 1.6292581939055426
Ni 2.185023938067548 7.124662174907132 8.91264061505303 -1.8293046751416044 0.22210243259483683 -2.0149642915283748
Ni 0.8182926593286434 3.543456719031938 10.109753381922962 -0.9159362179343904 0.5266076930676222 1.9022129332655562
Ni 3.90664643301514 8.10094849261519 6.809530703661114 0.6101873148624911 -0.8194512009317628 0.7432760991310812
Ni 7.728687731538956 2.4823821982736645 9.232854984836647 0.2068892151895082 0.8882739761324315 0.5953667049098907
Ni 8.7102738840269 6.347444608136788 13.24074473831789 1.6518625615686195 -0.899070038306671 0.5131230283176259
Ni 0.5588826806949737 6.708529033692748 5.034432967318763 -0.8845507616445732 -0.15852239385034633 0.03297234116096257
Ni 7.425645192579284 1.6246053121634811 2.7671700558835535 -0.10931096512270207 1.2751470974801717 -0.10650074936741659
Ni 3.5739467875151787 5.738366359279582 0.5878056823141108 -0.3647618912709976 0.46769137834738805 0.14689689379627605
Ni 5.9686574529361005 8.227027809123197 10.941771606454434 0.6462557784502742 1.359904798743542 0.046222007082017166
Ni 3.175607910224968 2.823347389207539 3.525840946952683 -1.1728598719734704 0.4148114996292211 -0.6296012006127286
Ni 0.6003001114583991 1.8517018594673584 4.360726025116382 0.741342372443478 -0.3316972475065449 0.036457214385769474
Ni 9.010854150869493 2.855137244458904 7.034292211496341 0.39604681742720826 0.8376975487364605 -1.1106664291638615
Ni 4.394414301323444 7.50668049017224 12.433135960086107 -1.1409272849309318 0.8491602979604215 0.6071104757093803
Ni 7.470103392105884 1.1689751293684347 5.212210844857493 -0.7482954067225436 0.35351948558795887 0.2147472777813463
Ni 6.303315932016193 8.85283852426301 6.673069569178419 -0.853632217688846 -0.740500336158157 0.5642566137686477
P 4.856461037107608 5.106999513377436 4.2680457364923905 1.6929696160215746 0.4106848790553572 -0.28852534010476116
P 8.583306685008274 0.9402126581786524 7.709646770728738 0.12409737940325724 -1.3608676768774433 -0.13511507066999956
P 8.447790184289456 5.211742189346733 6.313120168687583 -0.8737703831996178 -0.7549172829144353 -0.9325350028333359
P 4.78567757881253 3.3544841991170427 8.017280669145388 -1.8547241436559736 -0.6924962974750526 -0.11481158322595711
P 8.425785343510798 6.880045966517417 2.2053152571349894 -0.7646203691348122 -2.315923229410799 0.5529900397158928
P 1.8219349117917354 4.956617845676694 9.101175601112176 0.8604440984043569 1.1623394320581206 -0.20543088547642685
P 4.9008093954988725 0.9325237787052442 4.342948237362509 -0.4074638010148982 -2.23337693397645 -0.26903689236284634
P 1.944352857121927 2.5203140036758116 5.937428702817735 0.9533300852018163 -1.3641234648105798 0.5263966054980805
