# total energy = -340859.22873093566 ev
CRYSTAL
PRIMVEC
9.35331357140245 0.00000000000000 0.00000000000000
0.00000000000000 9.35331357140245 0.00000000000000
0.00000000000000 0.00000000000000 13.68951985917452
PRIMCOORD
 96 1
Ni 5.146810418644171 0.3586312943902546 1.2966358236216908 0.16879729341379318 0.4812328644772486 -0.09969863884391861
Ni 3.396824165254924 3.7151267777312174 2.0329754306622174 -0.4410670908916404 0.4503721703426502 -0.6148698079398249
Ni 4.894420606559298 1.1381018360760142 10.558342993252323 1.5339638547769066 0.8451989993198282 0.455154679332958
Ni 6.393709997611203 3.2920670538055257 2.1267760706516317 -0.23692767053312744 -2.2961092800086647 -2.688004280051029
Ni 6.672504213769437 6.330163585540916 10.158335445833615 1.0140040060431053 -0.36750962921946384 -0.21263563075498218
Ni 5.179416069582796 4.6807254525160475 3.2011706176647756 -1.9892218924569482 -0.01214537711328231 1.9626279440185037
Ni 9.042596447057988 9.265635561309985 5.265769601345781 0.440660342371525 0.8975137495631446 0.27006199119325097
Ni 3.9407380532018363 5.228418079125957 5.226904712998054 -2.5101114520938705 -0.30260161569216915 -0.6142049206623164
Ni 7.866744637606102 3.4021087873950053 3.757759180765713 -1.0291989686159888 2.709426968701179 1.8106891169229462
Ni 7.792339028536462 4.311503401224529 6.660006316240983 -0.44854668709813716 0.5818738126297786 -2.2291983771187285
Ni 1.4658512952097975 7.3295090155140885 11.322957667070664 -0.8355776741799804 0.9498436693151127 0.4229883790130585
Ni 2.527171780581516 1.4666276202321455 6.496101656070819 0.6805931182795634 -0.7421527841599154 -1.168388209355362
Ni 4.739099482208521 7.0887079588833055 9.108266996629183 -1.3441994721931432 -1.0456902814027926 0.03634125763319548
Ni 3.0800929094503724 8.579523247884035 2.172526868414452 0.12522197992600367 -1.0879383914387264 -0.17759380865950058
Ni 1.2986514626857395 5.802309336911737 13.14944093043313 -1.790020275719685 0.4920983464368428 0.35836832903982796
Ni 8.665396019331977 7.8412942715120115 12.463609216412848 0.47713272626594605 0.9113043755893337 -0.36794465987435343
Ni 1.8116994160091688 4.2668226225286565 8.294042347888732 -0.903399261809644 0.36014856086870234 -0.6071480138155351
Ni 6.452392686649911 9.29716558119355 12.849161217782896 -0.766241449678003 0.786949885869948 -0.9481781086872315
Ni 5.882186634391903 4.097948546884113 10.828547126271706 -0.2720607667908347 -0.6689820164031962 1.0613385294630109
Ni 1.109162684038118 0.435629641968267 13.318315006077674 1.3991670866782742 0.0642832354591022 -0.8543045611655222
Ni 6.944330211353582 1.2983334500259824 3.627722868859682 -1.6183921977253162 -0.7124272320710247 -0.42207332339795695
Ni 0.6475280244838899 0.24167933277052348 9.531629767912996 2.2055647968601884 -0.36421887428333405 1.4516278755811514
Ni 6.1261771709337784 3.0597868657935288 13.337288202557593 2.58203497770705 -0.8926826467230885 -0.6680787878626365
Ni 0.33447542688764603 3.2477604076505435 12.020726079808064 -1.2845223680474847 -0.9291714856777418 0.40472223371401905
P 2.6734482507562607 7.496895914308592 13.47738680915088 -0.8064514462379853 -0.27033478523866344 0.9070733682271216
P 0.44654402351740113 8.938138641641302 3.364692727311878 2.633126911286859 1.1478183556238104 -1.7748592517085304
P 0.3683119738858017 3.594758986013154 2.4435381923908066 0.3721288731590301 0.3987613881448939 -1.3783362659758518
P 2.8375989030720596 8.435865705495527 10.300569413904034 1.0847299118037577 0.5949460724327044 -0.5314282543847171
P 7.303534863862751 2.57160937312581 11.392213341714944 0.4347406344529803 0.013429900252660743 0.010392141867601457
P 6.797539308935112 6.694400320725065 7.795688450108787 0.2206793269950651 0.860036835663609 -0.2844933361272326
P 8.42032985173504 0.5634267706170675 7.334694492530834 1.1835232652245875 1.1913628158736642 -1.7400110336810934
P 2.8149919442887383 7.770770287554113 6.748645797828809 -0.45401979439756646 0.27563100064059626 -1.0294545362702205
Ni 7.966890565489022 4.555718417290939 0.7473858703103247 1.2366407138748574 0.0772181983532154 -0.40674363501942207
Ni 4.8822519456668285 0.49313661949722554 6.21846444479529 -0.38414800910709324 -0.06015275823049641 -0.03958958936716408
Ni 1.0837590845116387 5.148737201229757 10.90216892766818 0.9178486044657548 -0.40990763456970053 -1.1801880302037673
Ni 8.368596674643376 4.407066205481539 10.201813388410523 -0.4950957385022699 -1.402331857559501 -1.7145352580074924
Ni 8.150121977390247 8.585284889013753 8.78987646300578 -1.0790914825710576 -1.888122259500445 -0.5414409014257128
Ni 5.735180605762422 7.359187079320244 0.6421919591194363 -0.6750539336288891 -0.06628381082889874 -0.8649265596557427
Ni 0.6187544260953378 8.096901623448543 1.0376369602019844 0.7504453631860108 -0.9559958049594375 1.0959682037217384
Ni 4.048488224978361 9.024750324857502 12.578354731372679 -0.4131312837133207 -0.8152271355480862 -0.8563565585985444
Ni 2.5286589574315563 1.5736669401809775 11.266885487836023 0.34975513344952025 -0.31346684054144724 0.9479209983711029
Ni 2.743710341935536 0.19215166700741143 4.471846319605413 -0.20817450965983503 -0.25304617336154483 0.07389144797282758
Ni 0.9992331902109053 5.593534025781199 2.124832452101704 1.5250840357887736 0.2814743467952507 -1.3603781388355345
Ni 5.000477828588292 7.525853772973532 6.418084732650232 -1.8581354833303678 -0.4087385539622638 0.6447542542040832
Ni 7.024974480542573 8.672626130684689 10.644792864144586 0.3776266630488077 1.4764590756922187 1.1162737480483098
Ni 5.501880906576497 6.7842014838523585 4.174892645243696 -2.607914416576973 2.419844648086813 0.6628396509508843
Ni 5.8681566641085015 8.798605910516113 8.525052355924405 0.8594179711326876 2.359615013871794 -1.498420667564974
Ni 9.298456338459623 2.6681916885567465 5.4534531904836046 1.2660515629368065 -0.1433199750782951 0.7720562565875672
Ni 3.717886005220286 0.3150476593705437 8.841608704766092 -1.4090725187174442 -0.9077104875904883 -1.8281649051102062
Ni 7.079644598080228 1.661064301733047 6.06683881461716 -0.4409066540543761 0.6197821576397777 0.25841489387262595
Ni 1.6837460870245464 3.593262455849591 0.17772043957390454 -0.019086070097173582 -0.5440312878607082 0.9685070500525709
Ni 9.159634459162124 1.7343475131800148 3.2083577037752864 1.0690716364412105 -2.661296431742539 -0.12394517009610913
Ni 7.034907699503222 8.360926957555117 3.2757380390583504 -1.1342899821200723 0.5213610999567021 -0.11236723545052262
Ni 0.14158484811197541 5.053342756616149 4.221067148109075 0.04337939542689949 -0.5980257397992926 0.8552424995987593
Ni 9.154218890632732 2.0955818347235162 0.5359504768140538 -0.45929081298851865 0.7815647102986346 0.7478151246520153
Ni 6.978666225293827 8.425820246772611 5.896664628393022 -0.2625525701900834 0.5947064456180725 0.2647958576983052
P 5.442889558191555 4.825411859392007 0.6836954172117947 0.24394935326659922 0.13053053662311068 1.5946591157744343
P 7.1615702712217715 5.732673917738453 4.377867031327724 3.1430550868162705 -1.4275163272449287 0.8743270270340361
P 9.045888813417827 3.7035193156500825 8.091272799370843 0.6749220360367151 -0.620984405477995 1.6965066826405557
P 5.6532736392479235 1.945797871977921 8.15371084378874 -0.4472847896665781 -0.7139256709934221 0.19697247029642853
P 3.2979596413245544 1.2350395774207967 0.13764149113098734 -0.8546583449605152 0.5707352795144558 1.024837092102867
P 3.768225538597131 3.6828578460793935 11.079489980754685 -1.0642986405325994 0.017264443507402527 -2.489945518668957
P 8.843585995244698 6.956994597862732 9.879206381051281 1.3370487200809749 -0.8032133989166618 3.4308294076876207
P 0.18291246391011537 0.9870925892590019 11.503947089720603 -0.03675032014615606 0.5859909201219456 -0.2969066221899209
Ni 3.948791256144509 3.2140417124027683 13.019691765252231 -1.2576193730090535 -0.9292951557397996 1.464243250352317
Ni 1.0993604114667812 2.6115573751794154 9.752372643695274 -2.032609258303648 1.1766946723385283 2.5352126180368724
Ni 3.165367068832887 2.5507514839711525 8.950837635410485 2.5574320915567053 0.42950226887217646 0.06690421802171705
Ni 7.601119886887221 8.833297350370204 1.010121382482177 1.6253138645458136 -1.8918961247205803 1.0563809283474193
Ni 1.388836111667445 5.49937421855253 6.1998607041995 0.6028948949661359 0.4575028678501605 0.4744706060527506
Ni 6.680931549253 6.032297963110778 2.2406461154657755 1.7735441324415329 0.17686155847916635 -0.8638024733536285
Ni 6.347448508930067 4.490488408786645 8.676143911900413 0.014265765890394785 -1.2213351938660384 -0.24444686172830804
Ni 3.3833741004099034 5.313570645432682 0.20041999616109607 0.7973399708550203 1.6728497053432478 0.1405966626098611
Ni 4.06712937882824 1.6790787835769347 3.074420124799117 1.5210975403371996 -0.5552307561209534 0.6201896774908415
Ni 4.30742535652882 2.8340072306795085 6.430843587625958 1.492766040382358 1.6907232431895591 0.04666140861228093
Ni 7.961933309322221 1.670492441763493 9.38758780433872 -0.741460128968265 0.62296981133914 0.015583970481186064
Ni 8.828564573727936 7.163562527002015 3.1578713233761415 0.49948101205415923 -1.9669319707104962 -0.3075162793849672
Ni 5.645304616126952 5.80664927438607 12.423553651253737 -0.097997854102728 -1.0349590110282176 0.6653431340990283
Ni 2.4940329907721215 6.4842687791337985 8.524189980417653 -1.182628264214144 1.75516794392719 0.516000349865421
Ni 0.7592795437852403 8.304938022810822 7.527497150159395 1.2667190213174764 -0.04979198382146263 -1.5304908086266416
Ni 1.9709208720987321 7.037844639949214 4.4280672003330865 -0.36021052445488927 0.3630719051630844 -0.23060635630078996
Ni 0.8557991920155776 1.8595509679890903 7.73040325705471 -1.969531870227189 -0.3901435645688958 -0.7717184136321742
Ni 2.057167776087563 2.707961977653429 3.7046033646873133 -0.780109723019663 0.5165816762901878 0.9776401227020906
Ni 1.822960805489979 1.2604338236337536 2.002010350915398 0.3722743975979589 -0.8400969022065725 -1.614027750109033
Ni 8.047001695807246 5.547038704262007 12.116169161651987 0.35145823218355604 0.20492077860922775 1.243048160063098
Ni 3.668313443552267 6.010205436571182 10.976749443700687 -0.5816843223267918 -0.568030736099099 0.24783968945994087
Ni 9.160560437200829 6.045925740912723 8.013789950152377 -0.3179379889389234 -0.7953836184595979 -0.16415131000134955
Ni 5.603158585395613 5.281975152354462 6.7051678552519 -0.4582250907281657 -0.4676857219204333 -0.790123398501923
Ni 8.66071000925732 6.780684637967985 5.738249427929078 0.09648527411294351 -0.24076607044261117 -0.1331792870998674
P 3.2781212633438246 5.950980255348182 3.0619484165485256 -0.16373633395111803 -0.20840848004751206 0.0315651764007908
P 5.781891053492626 2.880736385036758 4.618748526454797 -1.2039954170360103 0.3261151254330771 -0.398103699956237
P 7.172756834194404 1.3871992818010481 1.0496681273856774 -1.5054773173014395 3.4241106009065483 0.4520935239091311
P 3.883261941607502 4.964177618808371 8.192561702166184 1.7060835276957136 -0.9244604533553176 -0.45448799228323666
P 5.159643164796721 9.09894080771613 4.017983328256837 -1.318352172112736 0.5683894049900985 0.5167169163164714
P 2.1076101959131526 3.5533425137365526 5.618082732451743 0.38668105994159213 0.05251349651768375 1.1196136110548203
P 8.182194489458103 6.805012606439403 0.6257619285862207 0.27828926419904976 -1.7411060665174851 0.12289975955073028
P 5.427727836971959 7.637784875894511 11.42660079887956 -1.1420220606570075 0.6240275631796931 0.5364658168086245
