# total energy = -340857.55755304743 ev
CRYSTAL
PRIMVEC
9.35469527599051 0.00000000000000 0.00000000000000
0.00000000000000 9.35469527599051 0.00000000000000
0.00000000000000 0.00000000000000 13.69154212349832
PRIMCOORD
 96 1
Ni 6.106380196031306 6.000756332483408 5.732333643770537 0.2957393413546971 -1.0228061777157678 -0.29118874586953725
Ni -0.11618999178076943 0.8897269317875559 5.241190629763734 1.190325889968718 0.08665003319007658 1.2416877893804616
Ni 5.29841517126539 5.529335822375112 0.20348613648507152 -0.2307333687969575 -0.290596363701177 -1.7786241180676015
Ni 3.293535604543363 2.467955688708393 0.5222024730229863 -2.582956718190371 -0.9422049218229321 0.050091517339752444
Ni 6.098428705107941 0.21789236709916796 12.915122133610078 0.237674576001481 0.9122407713606742 0.1908347328298068
Ni 0.6342773343835344 7.304894390867295 8.539524257477208 -0.8054217194218902 0.4976784116277816 0.1585838432159011
Ni 4.0134168192688024 6.802004686092881 10.987531058663157 -1.5147510292938815 -0.8512860860541727 0.2990028425973173
Ni 6.329480321950518 0.7556582465329804 1.9037263120121013 -0.5658707523333029 0.2447854760146494 -0.017587374064460034
Ni 0.9995585372381945 1.6462111979070457 8.696566203213663 -1.4056041005528694 -2.013465338385345 0.6634358897739865
Ni 8.231832429237157 7.2545754853652005 5.0645421783493 -0.39319957778640025 0.4962403936296744 -1.2412980101412106
Ni 5.925320070358685 8.105029535747496 4.405883701855688 0.7626071953595254 0.25909957864447636 0.20363008482226222
Ni 5.773783362749756 6.856542559131961 2.0435172643229382 -2.660567266885999 0.8190655354575701 0.6772982495783754
Ni 8.41022646677665 3.103401424522901 2.737637519395717 -0.03335620686294255 -0.6214063235067621 -1.160804483470833
Ni 3.0378530752287625 4.365181423023263 5.070950144564011 3.596600255570264 -0.1769821432174307 -0.06381066669805785
Ni 7.938123063918465 8.75331926807704 0.23500023368816772 1.5267097443176545 1.9748627955217986 1.6028113125679235
Ni -0.014887997417100323 3.012829265558173 6.4169383028818485 0.3660590128158664 -0.5878305444338457 1.7940754196256652
Ni 1.0480158583947008 8.551482364356428 4.039881252000803 -1.0111397971214326 0.12890559942517799 -0.6714227646342049
Ni 9.078451054585832 5.268723368688025 10.565297535937276 0.47209696361425146 1.2014621090911952 1.623914413095126
Ni 5.757253616324362 8.010528404797107 11.11268565485788 2.203166728941657 0.8493130214882019 0.9127557633238795
Ni 5.5006730362701814 4.66778710348092 11.379081181120055 -1.6761106354827071 -0.3357606189426411 -1.2265650748064103
Ni 2.7302332781417835 6.944757334905291 13.351950851793177 1.7133659202897393 1.2563183948094427 -1.3824991391042898
Ni 7.133581857597198 4.182755511850864 4.592772738109895 -1.5946125788072152 0.08649962365514136 -0.20985523979636764
Ni 3.912797717655023 6.9660860399703175 3.9632082991701156 -0.35639140781911527 -0.10151820855116066 0.24779752336809582
Ni 4.17660012240666 0.030424275211834984 0.6000204405466375 -0.7871136651413219 0.1923048896174301 0.5444246666443849
P 4.789042662714633 8.620173891239096 2.678750648556317 -1.36114021381254 1.8446348777407713 -0.5496362927523115
P 3.2059475933486974 0.5097859860787719 12.316910891115887 0.3774322876498145 0.6627815440194392 2.586173682465772
P 8.78271172040788 0.7711206222356038 2.3268363696785936 0.022881018363231562 1.2350391737156923 0.07075598766763944
P 6.835728362303152 2.0443844445683452 11.767168195412445 -1.1410393850287641 -1.0570607280232633 -0.22404207281971092
P 7.113562809860727 4.72667490978984 9.82250386624878 0.21359850888888374 0.5183408250731395 0.17088297229822827
P 5.443815198820521 4.008814309228455 6.482520329078722 -0.3347874563960944 -0.6433311486043115 -0.4294570174565378
P 0.1465291392662484 9.202859146103277 7.59376737876554 0.3526237132465669 -0.01615861203773346 -0.5244441097574001
P 5.351540485328671 7.73885870137894 8.880553413015605 0.8631015906318619 -0.31778835073493655 0.5304957152681186
Ni 7.567003595787015 5.818040425759686 2.921624729197657 1.9148506766342248 -0.7375949895859039 0.7900334098912781
Ni 4.166983495736989 4.499524200847315 1.9380374630811812 -1.0002722582793095 -0.06451823428804372 1.5208370875869615
Ni 5.013340189619951 1.1593273766266057 10.957381811490318 -0.4747817095352662 0.25750060958847265 0.15515784825348763
Ni 0.9880241980517134 7.556563755939397 5.998333466425582 -1.1156808516593173 -0.40593322330298476 3.1596854962841
Ni 0.02443446387274021 4.276068596510353 4.600988031438012 0.20167373242683975 1.4605246638501492 -0.7735397831116291
Ni 2.74284340727672 6.477855142580506 1.99862314656962 -0.8005710761978083 -0.6817087199412454 -0.1248550835048882
Ni 3.0993040680235673 4.589160890291647 11.41636338338591 -0.8289090039105531 0.09135258087206848 1.0844424624703262
Ni 3.560724408958832 3.15080166512136 9.740108646361831 0.43706285482825374 -1.273424201251794 -0.5854946972118175
Ni 0.16544339749913253 5.234195188690213 1.0002330107623998 -0.28600463056543646 0.5384018574890728 0.9987843608798733
Ni 7.52670356884836 7.526684859457952 7.462328298332798 0.39626381853402076 0.9833744540827064 -1.9206623982199953
Ni 2.0046831181227445 1.8419114215738623 2.646849266971777 0.06440999084495358 -0.3509753790098665 0.567468692948042
Ni 5.390465372072344 2.7697100919024895 1.0871867736222371 2.1756271287604916 -0.050950522905938066 0.17870118279106645
Ni 7.6509432758521365 8.396185069275509 2.8050268727059953 1.2743222875860312 -1.863882927337106 -0.525125966315773
Ni 2.747408498536252 0.5491851558692848 10.323833207863174 -1.1442257531765456 0.36377304499516705 -1.1758801468570328
Ni 7.072252475840045 2.322518242372446 5.810649281079038 0.10576567097360494 0.9910031742725577 1.1019483325645731
Ni 5.568709734488573 1.7230693737027707 7.3984712779315345 -1.8801292139926393 -0.21354323017091612 0.8554553869405139
Ni 2.260159844142857 8.93201265586306 2.292060290257877 3.2326593175386646 -0.18483583493389458 -0.08502843842625356
Ni 3.327277990144042 8.098266091115034 8.502159733893555 -1.3617984162218288 -0.37040520559970397 0.14113967959752466
Ni 1.0045258803914967 7.7198873795053125 0.9153737641587291 -1.8059096932564318 -1.1338369537430537 -0.12890045721885543
Ni 1.2863267187155494 5.285561820055151 7.114809790731414 0.7706226094648341 -0.5203815096522522 -1.0932757444912398
Ni 7.263144386172027 0.9067964441262193 4.261574431761338 -1.1254024498224555 -1.0525062758833614 -2.4725296371853545
Ni 4.175047243002802 0.33971949820984293 5.4264781421990245 1.6429850565733317 2.0061929730936483 -0.5414180186075772
Ni 3.138107343729588 6.354027042165706 6.365964568715477 1.0512451497827509 -0.9573780300189446 0.9463577676490412
Ni 0.3373368573413947 6.488781426578731 12.606076680974017 0.863569531407216 -1.0692714111568422 0.364090833345902
P 8.485176284750768 5.639515422487338 6.414035540960059 0.1660572687748108 -0.6776481767186265 0.10857897205268396
P 1.6979145982993258 2.8925653040160793 4.656438922728998 -1.1973876819115057 -1.997302612582554 -0.2623813347195417
P 8.120689295518924 7.765762804785526 12.140194150426463 -0.9039438214592045 0.849883292169375 -2.26572321151764
P 7.635049648700611 4.100209681371132 0.5312054316872762 -0.45768773016745695 0.4463658773967345 1.5093856512169102
P 1.718691376347318 7.972604470440258 10.459365902917169 -0.4033189256085893 0.1144760542634093 -0.21743073815078034
P 6.558969704694034 -0.07603496261777658 6.183045665105829 0.3848123821639695 0.8194776832943242 0.06468689865542408
P 2.871657560235232 8.164787328710386 5.4571475104252025 -0.495797649665301 1.2240307384203306 -0.6317349591262797
P 0.8115693888280009 4.36534045284173 12.117110504541175 1.8349292204172334 -0.1268767419206073 0.9761859067540671
Ni 5.465359061875238 5.518400183681684 8.333891218442828 -0.20114099985182132 0.3434649295654343 0.05977583450705189
Ni 5.048373523158777 7.753872987181294 6.643163832468702 -0.46258902412381625 0.8647386120146527 1.249892693788757
Ni 2.1552282280400523 6.0438721226784535 9.798147046346232 -0.33218807110003434 -1.7527981581434329 -1.0171392092379774
Ni 7.95550408760742 3.8340311840376904 12.135675832642951 1.171493330643247 -3.1656962212545547 -0.2112883726984684
Ni 0.6152657873205291 3.0370205073556105 0.17078025111299103 -0.23438973460262216 -0.37506455874858635 0.4817951647386219
Ni 6.64259132512222 0.05856600479390404 9.456693187645575 -0.8368789094899071 0.3973809628575995 -0.438085125445181
Ni 1.7488602683800851 5.816169486718894 4.29151787563969 -1.859195549163766 3.009881199033042 -1.156063626351738
Ni 7.467245126131999 6.641824240115496 0.7552120275717517 1.6799891446015067 -1.0606738992958185 -1.6714908773225086
Ni 2.5569281947932443 2.940012318090558 6.791018532045352 0.6137531778368784 2.2087917884379187 0.8661892284182502
Ni 0.982458154405358 0.6176652666403444 0.7670223302667496 -0.7193067327996774 1.7045565495282256 -0.44534257833854274
Ni 7.350236598520882 7.01111018798697 9.561556514473393 0.3223877971801609 -1.2535752848466668 2.15786723367391
Ni 2.4415006106715973 4.786217544763038 0.1037978270440853 0.00894589633937814 -0.9805971484478854 0.3290518394638978
Ni 8.990713368267903 4.947679583983366 8.503228040085846 -1.5331902098356756 0.11800772156575161 -2.046983267637133
Ni 7.1428055870683025 5.736252325591475 12.223535129998531 0.5926405642279794 4.580134118048971 0.49018698834674296
Ni 7.138614683616929 3.7314850152118946 7.794320818304171 0.6965002764281231 -0.5099353746182637 -0.5935738746755261
Ni 8.806163941284204 -0.20469102122734142 10.1134900797936 1.3247246512979831 -0.634608681129649 0.6057472768132665
Ni 8.816659909303047 1.481390823108497 12.28317505380185 1.2988693807977758 -0.8943494929025501 -0.05303465912847641
Ni 1.0689516662611602 8.706302569981943 12.44483167068242 0.2626816395687799 0.8780772381050878 -1.326954054849134
Ni 5.780715191895891 3.0752531466541897 9.593362478166851 0.5462444934619431 -1.0838230837187721 -0.03752936440402569
Ni 1.606266649386142 4.052388479488495 2.5594006407356504 0.334050835340386 0.9251201984265035 -0.23266298171950253
Ni 1.5308865154326425 3.6579009827375555 9.026258403634383 -0.7124290318432376 2.3538958519998303 0.5641689391508478
Ni 8.04180115086394 2.180027525025747 9.992826672766297 0.9369063924281541 0.6004268930416176 -0.2085941136957569
Ni 2.1300079697701797 0.8919374462642513 6.823015331520972 -0.718422530422511 -3.76018926531024 -1.233187465218934
Ni 7.822601932844779 1.192087519230869 7.853249785271988 1.0991049495785072 -0.07702073763042865 -1.2150506464089073
P 3.6483217748487013 0.8807819722335305 8.360192879478278 0.7024549513496612 1.4714536520578272 -0.35415583362037717
P 1.3663748455758242 2.349113640837301 11.083385814009562 -0.7150430724273169 -0.42323134826180014 -1.2140070356357415
P 3.385950638463271 4.76140889308214 8.06245631787428 -1.1472221168007082 -0.5206908133625548 0.7009040619227735
P 0.27598502431575167 6.8915010551091544 2.754012913350247 -0.2925594009648187 -0.8116329904389248 0.8151556588802025
P 4.911074661650275 7.671617152252884 13.161802639729908 -0.16656480453884862 -1.5161224557201114 -0.3924578145243693
P 5.363963520559529 5.425414513354334 3.575190509622234 1.054402978685442 -1.4617670208976823 0.4773283872165199
P 4.4980742230907005 3.4712561040281704 12.820773484191513 -0.279889261696318 0.5965555830116693 0.30524342419039047
P 4.819557678469947 1.9513800648505877 3.5595822006744284 0.5916368055538134 -0.4721195893220707 -0.7720835102810768
